@<TRIPOS>MOLECULE
tmp/4hqbA01.pdb
 101 96 0 0 0
SMALL
GASTEIGER

@<TRIPOS>ATOM
      1  N         12.6530   11.5260   18.6290 N.3    47  GLN47      -0.1245
      2  CA        12.9710   10.1400   19.0130 C.3    47  GLN47       0.1566
      3  C         13.2320   10.0380   20.4960 C.2    47  GLN47       0.2260
      4  O         14.1330   10.6790   21.0090 O.2    47  GLN47      -0.2867
      5  CB        14.1980    9.6550   18.2650 C.3    47  GLN47       0.0367
      6  CG        14.1770    9.9670   16.7950 C.3    47  GLN47       0.0905
      7  CD        13.3680    8.9580   16.0450 C.2    47  GLN47       0.2608
      8  OE1       13.3840    7.7700   16.3870 O.2    47  GLN47      -0.2717
      9  NE2       12.6260    9.4130   15.0300 N.am   47  GLN47      -0.0878
     10  N          4.6710   -0.1280   15.9170 N.3    87  LEU87      -0.1245
     11  CA         5.6010   -0.5300   14.8790 C.3    87  LEU87       0.1561
     12  C          6.1980   -1.8650   15.3060 C.2    87  LEU87       0.2260
     13  O          6.6960   -1.9920   16.4280 O.2    87  LEU87      -0.2867
     14  CB         6.7300    0.4980   14.7060 C.3    87  LEU87       0.0270
     15  CG         6.6450    1.6580   13.7030 C.3    87  LEU87       0.0019
     16  CD1        7.9620    2.4710   13.6670 C.3    87  LEU87       0.0001
     17  CD2        6.3040    1.1610   12.3110 C.3    87  LEU87       0.0001
     18  N         12.1010   -4.8760   13.8230 N.3    90  VAL90      -0.1245
     19  CA        12.7200   -5.1280   12.5310 C.3    90  VAL90       0.1561
     20  C         13.6850   -6.3100   12.6880 C.2    90  VAL90       0.2260
     21  O         14.4390   -6.3720   13.6600 O.2    90  VAL90      -0.2867
     22  CB        13.4520   -3.8670   12.0040 C.3    90  VAL90       0.0252
     23  CG1       14.2510   -4.1750   10.7490 C.3    90  VAL90       0.0019
     24  CG2       12.4570   -2.7530   11.7380 C.3    90  VAL90       0.0019
     25  N         21.6930   -6.5570    7.7780 N.3    94  LYS94      -0.1231
     26  CA        22.1380   -6.2550    9.1290 C.3    94  LYS94       0.1693
     27  C         21.3610   -5.0880    9.7270 C.2    94  LYS94       0.2592
     28  O         21.7920   -3.9320    9.6500 O.2    94  LYS94      -0.2718
     29  CB        23.6410   -5.9500    9.1430 C.3    94  LYS94       0.0285
     30  CG        24.0470   -5.3630   10.4910 C.3    94  LYS94       0.0035
     31  CD        24.1200   -6.5470   11.4070 C.3    94  LYS94       0.0206
     32  CE        24.7880   -6.1710   12.7370 C.3    94  LYS94       0.1093
     33  NZ        24.2660   -7.0690   13.7670 N.3    94  LYS94      -0.1314
     34  N         20.2080   -5.3970   10.3110 N.am   95  LEU95      -0.1966
     35  CA        19.4710   -4.4220   11.1030 C.3    95  LEU95       0.1728
     36  C         18.4790   -5.1400   11.9910 C.2    95  LEU95       0.2616
     37  O         17.5950   -5.8350   11.5020 O.2    95  LEU95      -0.2715
     38  CB        18.7440   -3.4040   10.2200 C.3    95  LEU95       0.0311
     39  CG        18.0650   -2.2660   10.9960 C.3    95  LEU95       0.0022
     40  CD1       19.1120   -1.3980   11.6770 C.3    95  LEU95       0.0001
     41  CD2       17.1780   -1.4360   10.0980 C.3    95  LEU95       0.0001
     42  N         18.6540   -4.9940   13.2980 N.am   96  LYS96      -0.1963
     43  CA        17.6900   -5.4890   14.2710 C.3    96  LYS96       0.1728
     44  C         17.2930   -4.3170   15.1600 C.2    96  LYS96       0.2616
     45  O         18.1560   -3.6670   15.7410 O.2    96  LYS96      -0.2715
     46  CB        18.2850   -6.6440   15.1040 C.3    96  LYS96       0.0311
     47  CG        18.7870   -7.7730   14.1870 C.3    96  LYS96       0.0038
     48  CD        19.4300   -8.8910   14.9780 C.3    96  LYS96       0.0206
     49  CE        20.0430   -9.9970   14.1040 C.3    96  LYS96       0.1093
     50  NZ        19.0420  -10.4970   13.1050 N.3    96  LYS96      -0.1314
     51  N         15.9950   -4.0280   15.2090 N.am   97  LEU97      -0.1964
     52  CA        15.4280   -2.9980   16.0840 C.3    97  LEU97       0.1713
     53  C         14.2900   -3.6060   16.8790 C.2    97  LEU97       0.2458
     54  O         13.5870   -4.4750   16.3740 O.2    97  LEU97      -0.2730
     55  CB        14.8860   -1.8160   15.2700 C.3    97  LEU97       0.0310
     56  CG        15.8830   -1.0760   14.3720 C.3    97  LEU97       0.0022
     57  CD1       15.1670   -0.1040   13.4320 C.3    97  LEU97       0.0001
     58  CD2       16.9450   -0.3620   15.1920 C.3    97  LEU97       0.0001
     59  N         14.1160   -3.1680   18.1370 N.am   98  PRO98      -0.2727
     60  CA        12.9390   -3.5730   18.9270 C.3    98  PRO98       0.1402
     61  C         11.6960   -2.9220   18.3380 C.2    98  PRO98       0.2269
     62  O         11.8320   -2.0750   17.4470 O.2    98  PRO98      -0.2865
     63  CB        13.2170   -2.9920   20.3120 C.3    98  PRO98       0.0296
     64  CG        14.1940   -1.8420   20.0580 C.3    98  PRO98       0.0237
     65  CD        15.0200   -2.2630   18.8760 C.3    98  PRO98       0.0939
     66  N          8.6050    9.0500   17.8420 N.3   130  ILE130     -0.1245
     67  CA         8.8280    7.6190   17.7950 C.3   130  ILE130      0.1561
     68  C          9.4890    7.2110   19.0830 C.2   130  ILE130      0.2260
     69  O         10.5710    7.6780   19.3930 O.2   130  ILE130     -0.2867
     70  CB         9.6900    7.2010   16.5880 C.3   130  ILE130      0.0252
     71  CG1        9.0030    7.6560   15.3000 C.3   130  ILE130      0.0019
     72  CG2        9.9290    5.6630   16.5950 C.3   130  ILE130      0.0019
     73  CD1        9.6350    7.1550   14.0400 C.3   130  ILE130      0.0001
     74  N         11.2270    4.2870   20.9670 N.3   132  ARG132     -0.1231
     75  CA        11.9350    3.0190   20.7420 C.3   132  ARG132      0.1694
     76  C         13.2240    2.8860   21.5710 C.2   132  ARG132      0.2593
     77  O         14.0320    3.8180   21.6330 O.2   132  ARG132     -0.2718
     78  CB        12.2900    2.8530   19.2610 C.3   132  ARG132      0.0321
     79  CG        12.6510    1.4310   18.8740 C.3   132  ARG132      0.0489
     80  CD        13.0390    1.3380   17.3940 C.3   132  ARG132      0.2205
     81  NE        14.1970    2.1890   17.1520 N.pl3 132  ARG132     -0.0865
     82  CZ        14.2520    3.1740   16.2600 C.cat 132  ARG132      0.5346
     83  NH1       13.2170    3.4240   15.4630 N.pl3 132  ARG132      0.1354
     84  NH2       15.3600    3.9020   16.1600 N.pl3 132  ARG132      0.1354
     85  N         13.4170    1.7080   22.1640 N.am  133  GLY133     -0.1942
     86  CA        14.6490    1.3430   22.8570 C.3   133  GLY133      0.2014
     87  C         15.1060    2.3840   23.8790 C.2   133  GLY133      0.2639
     88  O         14.2820    3.0650   24.5190 O.2   133  GLY133     -0.2714
     89  N         16.4290    2.5040   24.0220 N.am  134  GLY134     -0.1939
     90  CA        17.0380    3.4910   24.8850 C.3   134  GLY134      0.2014
     91  C         16.8050    3.2540   26.3590 C.2   134  GLY134      0.2638
     92  O         16.4230    2.1790   26.8010 O.2   134  GLY134     -0.2714
     93  N         17.0450    4.2890   27.1390 N.am  135  LYS135     -0.1977
     94  CA        16.8600    4.1850   28.5670 C.3   135  LYS135      0.1596
     95  C         16.1140    5.4150   29.0580 C.2   135  LYS135      0.2287
     96  O         16.4890    6.5560   28.7260 O.2   135  LYS135     -0.2864
     97  CB        18.2030    4.0970   29.2690 C.3   135  LYS135      0.0298
     98  CG        18.0770    4.1610   30.7830 C.3   135  LYS135      0.0038
     99  CD        19.4480    4.2270   31.4410 C.3   135  LYS135      0.0206
    100  CE        19.3240    4.2400   32.9550 C.3   135  LYS135      0.1093
    101  NZ        20.6110    4.6420   33.5750 N.3   135  LYS135     -0.1314
@<TRIPOS>BOND
     1    25    26    1
     2    26    29    1
     3    26    27    1
     4    29    30    1
     5    28    27    2
     6    27    34   am
     7    41    39    1
     8    38    39    1
     9    38    35    1
    10    34    35    1
    11    30    31    1
    12    23    22    1
    13    39    40    1
    14    35    36    1
    15    31    32    1
    16    37    36    2
    17    24    22    1
    18    36    42   am
    19    22    19    1
    20    17    15    1
    21    19    20    1
    22    19    18    1
    23    20    21    2
    24    32    33    1
    25    50    49    1
    26    42    43    1
    27    57    56    1
    28    16    15    1
    29    15    14    1
    30    73    71    1
    31    49    48    1
    32    47    48    1
    33    47    46    1
    34    43    46    1
    35    43    44    1
    36    56    58    1
    37    56    55    1
    38    14    11    1
    39    11    12    1
    40    11    10    1
    41     9     7   am
    42    44    51   am
    43    44    45    2
    44    51    52    1
    45    55    52    1
    46    71    70    1
    47    12    13    2
    48    83    82    1
    49     7     8    2
    50     7     6    1
    51    52    53    1
    52    84    82    1
    53    82    81    2
    54    54    53    2
    55    70    72    1
    56    70    67    1
    57     6     5    1
    58    53    59   am
    59    81    80    1
    60    80    79    1
    61    62    61    2
    62    67    66    1
    63    67    68    1
    64    59    65    1
    65    59    60    1
    66     5     2    1
    67    61    60    1
    68     1     2    1
    69    79    78    1
    70    65    64    1
    71    60    63    1
    72     2     3    1
    73    68    69    2
    74    78    75    1
    75    64    63    1
    76     3     4    2
    77    75    74    1
    78    75    76    1
    79    76    77    2
    80    76    85   am
    81    85    86    1
    82    86    87    1
    83    87    89   am
    84    87    88    2
    85    89    90    1
    86    90    91    1
    87    91    92    2
    88    91    93   am
    89    93    94    1
    90    94    95    1
    91    94    97    1
    92    96    95    2
    93    97    98    1
    94    98    99    1
    95    99   100    1
    96   100   101    1
