@<TRIPOS>MOLECULE
tmp/4hqbB00.pdb
 131 126 0 0 0
SMALL
GASTEIGER

@<TRIPOS>ATOM
      1  N         28.3600   11.3160   16.9010 N.3    64  ARG64      -0.1245
      2  CA        29.1720   10.3690   17.6850 C.3    64  ARG64       0.1563
      3  C         29.2970    9.0130   16.9650 C.2    64  ARG64       0.2260
      4  O         28.3710    8.5990   16.2490 O.2    64  ARG64      -0.2867
      5  CB        28.5830   10.1760   19.0900 C.3    64  ARG64       0.0307
      6  CG        27.2120    9.5350   19.0700 C.3    64  ARG64       0.0489
      7  CD        26.8030    8.9540   20.4070 C.3    64  ARG64       0.2205
      8  NE        25.6120    8.1220   20.2350 N.pl3  64  ARG64      -0.0865
      9  CZ        24.3810    8.6140   20.1620 C.cat  64  ARG64       0.5346
     10  NH1       24.2010    9.9220   20.2700 N.pl3  64  ARG64       0.1354
     11  NH2       23.3350    7.8080   19.9890 N.pl3  64  ARG64       0.1354
     12  N         29.6390    4.8550   16.7420 N.3    66  TRP66      -0.1241
     13  CA        29.1350    3.7020   17.4700 C.3    66  TRP66       0.1605
     14  C         29.3870    2.4660   16.6340 C.2    66  TRP66       0.2264
     15  O         29.1530    2.4760   15.4350 O.2    66  TRP66      -0.2867
     16  CB        27.6310    3.8430   17.7900 C.3    66  TRP66       0.0550
     17  CG        27.0410    2.6330   18.5350 C.ar   66  TRP66       0.0003
     18  CD1       27.5320    2.0350   19.6780 C.ar   66  TRP66       0.0946
     19  CD2       25.8470    1.9180   18.1980 C.ar   66  TRP66       0.0152
     20  NE1       26.7190    0.9800   20.0490 N.ar   66  TRP66      -0.2442
     21  CE2       25.6790    0.8970   19.1620 C.ar   66  TRP66       0.0810
     22  CE3       24.9090    2.0330   17.1680 C.ar   66  TRP66       0.0012
     23  CZ2       24.5940    0.0010   19.1230 C.ar   66  TRP66       0.0191
     24  CZ3       23.8510    1.1430   17.1290 C.ar   66  TRP66       0.0001
     25  CH2       23.7070    0.1380   18.0970 C.ar   66  TRP66       0.0015
     26  N         28.0420   -1.0140   15.8730 N.3    68  SER68      -0.1203
     27  CA        26.7550   -1.6770   16.0070 C.3    68  SER68       0.2005
     28  C         26.9370   -3.1620   16.2970 C.2    68  SER68       0.2461
     29  O         28.0210   -3.7020   16.1020 O.2    68  SER68      -0.2732
     30  CB        25.9410   -1.4910   14.7190 C.3    68  SER68       0.2103
     31  OG        26.5100   -2.2200   13.6450 O.3    68  SER68      -0.2182
     32  N         25.8720   -3.8250   16.7720 N.am   69  PRO69      -0.2717
     33  CA        25.9390   -5.2670   17.0260 C.3    69  PRO69       0.1535
     34  C         26.2670   -6.1050   15.7890 C.2    69  PRO69       0.2598
     35  O         26.5870   -7.2800   15.9370 O.2    69  PRO69      -0.2715
     36  CB        24.5370   -5.5900   17.5370 C.3    69  PRO69       0.0310
     37  CG        24.0860   -4.3340   18.1830 C.3    69  PRO69       0.0237
     38  CD        24.6390   -3.2320   17.3260 C.3    69  PRO69       0.0939
     39  N         26.1920   -5.5200   14.5990 N.am   70  GLU70      -0.1978
     40  CA        26.6010   -6.2230   13.3890 C.3    70  GLU70       0.1602
     41  C         28.0620   -5.8990   13.0820 C.2    70  GLU70       0.2287
     42  O         28.5940   -6.2970   12.0410 O.2    70  GLU70      -0.2864
     43  CB        25.6960   -5.8580   12.2070 C.3    70  GLU70       0.0415
     44  CG        24.3000   -6.4860   12.2160 C.3    70  GLU70       0.1163
     45  CD        23.2910   -5.7000   12.9710 C.2    70  GLU70       0.3649
     46  OE1       23.6540   -4.7020   13.6010 O.co2  70  GLU70      -0.2457
     47  OE2       22.1420   -6.0530   12.9260 O.co2  70  GLU70      -0.2457
     48  N         29.4680   -3.1080   12.3760 N.3    72  GLU72      -0.1245
     49  CA        29.7170   -2.0620   11.3990 C.3    72  GLU72       0.1567
     50  C         29.8430   -0.7180   12.0860 C.2    72  GLU72       0.2260
     51  O         29.0600   -0.4050   12.9780 O.2    72  GLU72      -0.2867
     52  CB        28.6010   -2.0150   10.3720 C.3    72  GLU72       0.0388
     53  CG        27.4350   -2.8970   10.7170 C.3    72  GLU72       0.1160
     54  CD        26.1430   -2.3940   10.1290 C.2    72  GLU72       0.3649
     55  OE1       26.0880   -2.2370    8.8920 O.co2  72  GLU72      -0.2457
     56  OE2       25.1880   -2.1560   10.9030 O.co2  72  GLU72      -0.2457
     57  N         29.2940    2.9100   12.7150 N.3    74  LEU74      -0.1245
     58  CA        28.3310    3.9530   12.4020 C.3    74  LEU74       0.1561
     59  C         28.7440    5.2730   13.0230 C.2    74  LEU74       0.2260
     60  O         29.4920    5.3220   14.0020 O.2    74  LEU74      -0.2867
     61  CB        26.9310    3.5950   12.9170 C.3    74  LEU74       0.0270
     62  CG        26.3970    2.1780   12.6540 C.3    74  LEU74       0.0019
     63  CD1       25.0530    1.9780   13.3360 C.3    74  LEU74       0.0001
     64  CD2       26.2840    1.8930   11.1600 C.3    74  LEU74       0.0001
     65  N         26.3670    8.4080   14.3490 N.3    76  ILE76      -0.1245
     66  CA        24.9950    8.8140   14.5750 C.3    76  ILE76       0.1561
     67  C         24.9440   10.3370   14.5840 C.2    76  ILE76       0.2260
     68  O         25.7010   10.9810   15.3060 O.2    76  ILE76      -0.2867
     69  CB        24.4230    8.2540   15.9270 C.3    76  ILE76       0.0252
     70  CG1       24.6290    6.7330   16.0450 C.3    76  ILE76       0.0019
     71  CG2       22.9290    8.6490   16.1270 C.3    76  ILE76       0.0019
     72  CD1       23.9880    5.9440   14.9530 C.3    76  ILE76       0.0001
     73  N         19.8760   11.6770   15.0160 N.3    79  GLY79      -0.1210
     74  CA        19.1000   10.4520   14.9350 C.3    79  GLY79       0.1956
     75  C         19.3860    9.5060   13.7690 C.2    79  GLY79       0.2612
     76  O         18.9430    8.3580   13.7840 O.2    79  GLY79      -0.2717
     77  N         20.1080    9.9660   12.7540 N.am   80  HIS80      -0.1961
     78  CA        20.3500    9.1290   11.5790 C.3    80  HIS80       0.1787
     79  C         21.6550    8.3560   11.7160 C.2    80  HIS80       0.2620
     80  O         22.5650    8.7830   12.4260 O.2    80  HIS80      -0.2715
     81  CB        20.3610    9.9750   10.3070 C.3    80  HIS80       0.0785
     82  CG        19.1240   10.8060   10.1440 C.ar   80  HIS80       0.0821
     83  ND1       19.1450   12.0600    9.5460 N.ar   80  HIS80      -0.2267
     84  CD2       17.8490   10.5830   10.4990 C.ar   80  HIS80       0.1154
     85  CE1       17.9270   12.5510    9.5430 C.ar   80  HIS80       0.1986
     86  NE2       17.1110   11.6830   10.1170 N.ar   80  HIS80      -0.2212
     87  N         21.7450    7.2030   11.0660 N.am   81  ALA81      -0.1977
     88  CA        23.0030    6.4430   11.1090 C.3    81  ALA81       0.1597
     89  C         23.6690    6.5980    9.7650 C.2    81  ALA81       0.2287
     90  O         23.0140    6.4870    8.7240 O.2    81  ALA81      -0.2864
     91  CB        22.7530    4.9830   11.4070 C.3    81  ALA81       0.0319
     92  N         26.9410    5.1220    7.5290 N.3    83  ARG83      -0.1245
     93  CA        27.9310    4.0370    7.4610 C.3    83  ARG83       0.1563
     94  C         29.2310    4.4890    6.8260 C.2    83  ARG83       0.2260
     95  O         29.2350    5.2830    5.8790 O.2    83  ARG83      -0.2867
     96  CB        27.3810    2.8280    6.7030 C.3    83  ARG83       0.0307
     97  CG        26.8330    1.7510    7.6060 C.3    83  ARG83       0.0489
     98  CD        25.9110    0.7980    6.8700 C.3    83  ARG83       0.2205
     99  NE        25.0820    0.0510    7.8130 N.pl3  83  ARG83      -0.0865
    100  CZ        23.9530    0.5150    8.3420 C.cat  83  ARG83       0.5346
    101  NH1       23.5150    1.7210    8.0120 N.pl3  83  ARG83       0.1354
    102  NH2       23.2570   -0.2230    9.1970 N.pl3  83  ARG83       0.1354
    103  N         24.2550    7.5000    4.3030 N.3    97  ARG97      -0.1231
    104  CA        23.0320    6.7560    4.5970 C.3    97  ARG97       0.1694
    105  C         22.1990    6.6170    3.3220 C.2    97  ARG97       0.2593
    106  O         22.4290    7.3220    2.3390 O.2    97  ARG97      -0.2718
    107  CB        22.2150    7.4730    5.6720 C.3    97  ARG97       0.0321
    108  CG        21.7270    8.8500    5.2580 C.3    97  ARG97       0.0489
    109  CD        20.9180    9.5030    6.3720 C.3    97  ARG97       0.2205
    110  NE        20.5250   10.8850    6.0840 N.pl3  97  ARG97      -0.0865
    111  CZ        19.5790   11.2400    5.2110 C.cat  97  ARG97       0.5346
    112  NH1       18.9360   10.3210    4.4910 N.pl3  97  ARG97       0.1354
    113  NH2       19.2800   12.5250    5.0440 N.pl3  97  ARG97       0.1354
    114  N         21.2320    5.7080    3.3330 N.am   98  GLY98      -0.1942
    115  CA        20.2970    5.6040    2.2270 C.3    98  GLY98       0.2014
    116  C         19.4320    6.8490    2.1020 C.2    98  GLY98       0.2639
    117  O         19.0480    7.4610    3.1070 O.2    98  GLY98      -0.2714
    118  N         19.1500    7.2330    0.8600 N.am   99  ALA99      -0.1963
    119  CA        18.2890    8.3680    0.5690 C.3    99  ALA99       0.1728
    120  C         16.8500    8.0560    0.9500 C.2    99  ALA99       0.2616
    121  O         16.4300    6.9060    0.9250 O.2    99  ALA99      -0.2715
    122  CB        18.3740    8.7290   -0.9080 C.3    99  ALA99       0.0334
    123  N         16.0980    9.0890    1.3000 N.am  100  LYS100     -0.1977
    124  CA        14.7030    8.9410    1.6910 C.3   100  LYS100      0.1596
    125  C         13.8650    9.9080    0.8780 C.2   100  LYS100      0.2287
    126  O         14.4030   10.8940    0.3560 O.2   100  LYS100     -0.2864
    127  CB        14.5450    9.2480    3.1780 C.3   100  LYS100      0.0298
    128  CG        15.2150    8.2300    4.0850 C.3   100  LYS100      0.0038
    129  CD        15.1240    8.6470    5.5440 C.3   100  LYS100      0.0206
    130  CE        15.7000   10.0350    5.7510 C.3   100  LYS100      0.1093
    131  NZ        15.8390   10.3590    7.1990 N.3   100  LYS100     -0.1314
@<TRIPOS>BOND
     1   122   119    1
     2   126   125    2
     3   119   118    1
     4   119   120    1
     5   118   116   am
     6   125   124    1
     7   121   120    2
     8   120   123   am
     9   123   124    1
    10   124   127    1
    11   116   115    1
    12   116   117    2
    13   115   114    1
    14   106   105    2
    15   127   128    1
    16   105   114   am
    17   105   104    1
    18   128   129    1
    19   103   104    1
    20   112   111    1
    21   104   107    1
    22   113   111    1
    23   111   110    2
    24   108   107    1
    25   108   109    1
    26   129   130    1
    27   130   131    1
    28    95    94    2
    29   110   109    1
    30    96    93    1
    31    96    97    1
    32    94    93    1
    33    98    97    1
    34    98    99    1
    35    93    92    1
    36    99   100    2
    37   101   100    1
    38   100   102    1
    39    90    89    2
    40    55    54   ar
    41    85    83   ar
    42    85    86   ar
    43    83    82   ar
    44    89    88    1
    45    86    84   ar
    46    54    53    1
    47    54    56   ar
    48    82    81    1
    49    82    84   ar
    50    81    78    1
    51    52    53    1
    52    52    49    1
    53    87    88    1
    54    87    79   am
    55    88    91    1
    56    64    62    1
    57    49    50    1
    58    49    48    1
    59    78    79    1
    60    78    77    1
    61    79    80    2
    62    42    41    2
    63    50    51    2
    64    43    44    1
    65    43    40    1
    66    44    45    1
    67    58    57    1
    68    58    61    1
    69    58    59    1
    70    62    61    1
    71    62    63    1
    72    77    75   am
    73    47    45   ar
    74    45    46   ar
    75    59    60    2
    76    41    40    1
    77    40    39    1
    78    31    30    1
    79    75    76    2
    80    75    74    1
    81    65    66    1
    82    66    67    1
    83    66    69    1
    84    67    68    2
    85    39    34   am
    86    30    27    1
    87    74    73    1
    88    72    70    1
    89    15    14    2
    90    34    35    2
    91    34    33    1
    92    26    27    1
    93    69    70    1
    94    69    71    1
    95    27    28    1
    96    29    28    2
    97     4     3    2
    98    28    32   am
    99    14    13    1
   100    12    13    1
   101    32    33    1
   102    32    38    1
   103     1     2    1
   104     3     2    1
   105    33    36    1
   106    24    22   ar
   107    24    25   ar
   108    22    19   ar
   109    38    37    1
   110    13    16    1
   111    36    37    1
   112     2     5    1
   113    16    17    1
   114    25    23   ar
   115    19    17   ar
   116    19    21   ar
   117    17    18   ar
   118     6     5    1
   119     6     7    1
   120    23    21   ar
   121    21    20   ar
   122    18    20   ar
   123    11     9    1
   124     9     8    2
   125     9    10    1
   126     8     7    1
