@<TRIPOS>MOLECULE
tmp/4hqbA00.pdb
 106 101 0 0 0
SMALL
GASTEIGER

@<TRIPOS>ATOM
      1  N          3.2030   24.4490   27.0020 N.3    33  ARG33      -0.1231
      2  CA         1.8580   24.2570   27.5410 C.3    33  ARG33       0.1694
      3  C          0.8800   25.2380   26.8970 C.2    33  ARG33       0.2591
      4  O         -0.3070   24.9850   26.8690 O.2    33  ARG33      -0.2718
      5  CB         1.8280   24.4100   29.0700 C.3    33  ARG33       0.0321
      6  CG         0.4040   24.0250   29.5640 C.3    33  ARG33       0.0489
      7  CD         0.4100   23.7950   31.0630 C.3    33  ARG33       0.2205
      8  NE         0.8030   25.0320   31.7260 N.pl3  33  ARG33      -0.0865
      9  CZ         2.0000   25.3190   32.2150 C.cat  33  ARG33       0.5346
     10  NH1        2.9950   24.4180   32.2190 N.pl3  33  ARG33       0.1354
     11  NH2        2.2750   26.5530   32.6340 N.pl3  33  ARG33       0.1354
     12  N          1.3870   26.3450   26.3570 N.am   34  LEU34      -0.1980
     13  CA         0.5280   27.3340   25.7010 C.3    34  LEU34       0.1596
     14  C          0.4050   27.0860   24.1970 C.2    34  LEU34       0.2287
     15  O         -0.0700   27.9430   23.4590 O.2    34  LEU34      -0.2864
     16  CB         1.0790   28.7430   25.9170 C.3    34  LEU34       0.0297
     17  CG         1.2420   29.2460   27.3550 C.3    34  LEU34       0.0022
     18  CD1        1.8930   30.6400   27.3540 C.3    34  LEU34       0.0001
     19  CD2       -0.1000   29.2690   28.1020 C.3    34  LEU34       0.0001
     20  N         -0.3520   18.4160   23.0880 N.3    64  ARG64      -0.1245
     21  CA        -1.2220   18.0270   24.1900 C.3    64  ARG64       0.1563
     22  C         -1.9570   16.7460   23.8210 C.2    64  ARG64       0.2260
     23  O         -2.2060   16.4840   22.6380 O.2    64  ARG64      -0.2867
     24  CB        -2.2250   19.1520   24.5580 C.3    64  ARG64       0.0307
     25  CG        -3.2370   19.4760   23.4630 C.3    64  ARG64       0.0489
     26  CD        -4.1550   20.6860   23.7900 C.3    64  ARG64       0.2205
     27  NE        -5.1630   20.8230   22.7470 N.pl3  64  ARG64      -0.0865
     28  CZ        -6.2990   20.1330   22.7300 C.cat  64  ARG64       0.5346
     29  NH1       -6.5630   19.2910   23.7180 N.pl3  64  ARG64       0.1354
     30  NH2       -7.1730   20.2810   21.7400 N.pl3  64  ARG64       0.1354
     31  N         -5.3980   14.5100   23.9130 N.3    66  TRP66      -0.1241
     32  CA        -6.8550   14.5470   24.0280 C.3    66  TRP66       0.1605
     33  C         -7.4890   13.1830   23.7560 C.2    66  TRP66       0.2264
     34  O         -7.1610   12.5260   22.7660 O.2    66  TRP66      -0.2867
     35  CB        -7.4720   15.5960   23.0970 C.3    66  TRP66       0.0550
     36  CG        -8.9670   15.5120   23.0760 C.ar   66  TRP66       0.0003
     37  CD1       -9.8150   15.8660   24.0810 C.ar   66  TRP66       0.0946
     38  CD2       -9.7920   15.0240   22.0070 C.ar   66  TRP66       0.0152
     39  NE1      -11.1170   15.6340   23.7060 N.ar   66  TRP66      -0.2442
     40  CE2      -11.1300   15.1200   22.4370 C.ar   66  TRP66       0.0810
     41  CE3       -9.5290   14.5210   20.7270 C.ar   66  TRP66       0.0012
     42  CZ2      -12.2040   14.7260   21.6360 C.ar   66  TRP66       0.0191
     43  CZ3      -10.5980   14.1310   19.9300 C.ar   66  TRP66       0.0001
     44  CH2      -11.9180   14.2450   20.3860 C.ar   66  TRP66       0.0015
     45  N        -14.1690   10.7860   22.1700 N.3    69  PRO69      -0.2116
     46  CA       -15.2880    9.8810   22.4480 C.3    69  PRO69       0.1372
     47  C        -15.0890    8.5790   21.6710 C.2    69  PRO69       0.2244
     48  O        -14.4200    8.5930   20.6360 O.2    69  PRO69      -0.2868
     49  CB       -16.5000   10.6480   21.9170 C.3    69  PRO69       0.0268
     50  CG       -16.1020   12.0790   21.9850 C.3    69  PRO69       0.0207
     51  CD       -14.6260   12.0990   21.6770 C.3    69  PRO69       0.0892
     52  N         -5.5670   10.7930   21.3280 N.3    74  LEU74      -0.1245
     53  CA        -4.8870   11.5100   20.2560 C.3    74  LEU74       0.1561
     54  C         -3.8860   12.5080   20.8060 C.2    74  LEU74       0.2260
     55  O         -4.0210   12.9860   21.9340 O.2    74  LEU74      -0.2867
     56  CB        -5.9080   12.2610   19.4000 C.3    74  LEU74       0.0270
     57  CG        -6.4630   11.5770   18.1450 C.3    74  LEU74       0.0019
     58  CD1       -6.5620   10.0810   18.3240 C.3    74  LEU74       0.0001
     59  CD2       -7.8300   12.1560   17.7740 C.3    74  LEU74       0.0001
     60  N         -2.4830   16.2950   19.8640 N.3    76  ILE76      -0.1245
     61  CA        -2.6980   17.4900   19.0520 C.3    76  ILE76       0.1561
     62  C         -1.4200   18.3210   19.0840 C.2    76  ILE76       0.2260
     63  O         -0.8450   18.5240   20.1620 O.2    76  ILE76      -0.2867
     64  CB        -3.8310   18.3770   19.6360 C.3    76  ILE76       0.0252
     65  CG1       -5.0680   17.5390   19.9520 C.3    76  ILE76       0.0019
     66  CG2       -4.1620   19.5370   18.6710 C.3    76  ILE76       0.0019
     67  CD1       -5.7520   17.0150   18.7230 C.3    76  ILE76       0.0001
     68  N         -2.2870   22.2110   15.6000 N.3    79  GLY79      -0.1210
     69  CA        -3.5300   22.0600   14.8480 C.3    79  GLY79       0.1956
     70  C         -3.6260   20.7730   14.0210 C.2    79  GLY79       0.2612
     71  O         -4.4370   20.6660   13.1010 O.2    79  GLY79      -0.2717
     72  N         -2.7730   19.8040   14.3180 N.am   80  HIS80      -0.1961
     73  CA        -2.8280   18.5190   13.6320 C.3    80  HIS80       0.1787
     74  C         -3.1040   17.4530   14.6660 C.2    80  HIS80       0.2620
     75  O         -2.5790   17.5250   15.7820 O.2    80  HIS80      -0.2715
     76  CB        -1.5030   18.2140   12.9210 C.3    80  HIS80       0.0785
     77  CG        -1.2360   19.0920   11.7450 C.ar   80  HIS80       0.0821
     78  ND1       -1.9900   19.0380   10.5930 N.ar   80  HIS80      -0.2267
     79  CD2       -0.3110   20.0620   11.5440 C.ar   80  HIS80       0.1154
     80  CE1       -1.5400   19.9350    9.7330 C.ar   80  HIS80       0.1986
     81  NE2       -0.5150   20.5630   10.2830 N.ar   80  HIS80      -0.2212
     82  N         -3.9240   16.4710   14.3080 N.am   81  ALA81      -0.1977
     83  CA        -4.1410   15.3200   15.1880 C.3    81  ALA81       0.1597
     84  C         -3.2130   14.1540   14.8230 C.2    81  ALA81       0.2287
     85  O         -3.1800   13.7270   13.6690 O.2    81  ALA81      -0.2864
     86  CB        -5.6030   14.8710   15.1410 C.3    81  ALA81       0.0319
     87  N         -1.9940   10.0970   15.8190 N.3    83  ARG83      -0.1245
     88  CA        -2.5140    8.8510   16.3870 C.3    83  ARG83       0.1563
     89  C         -1.3990    7.9040   16.8550 C.2    83  ARG83       0.2260
     90  O         -0.3600    7.7990   16.2130 O.2    83  ARG83      -0.2867
     91  CB        -3.3980    8.1420   15.3490 C.3    83  ARG83       0.0307
     92  CG        -4.7080    7.6000   15.8890 C.3    83  ARG83       0.0489
     93  CD        -5.6750    7.2080   14.7660 C.3    83  ARG83       0.2205
     94  NE        -6.3020    8.3800   14.1710 N.pl3  83  ARG83      -0.0865
     95  CZ        -7.5440    8.7830   14.4320 C.cat  83  ARG83       0.5346
     96  NH1       -8.3020    8.1020   15.2830 N.pl3  83  ARG83       0.1354
     97  NH2       -8.0310    9.8740   13.8470 N.pl3  83  ARG83       0.1354
     98  N         -0.7800   15.5950    4.2730 N.3   108  LYS108     -0.1245
     99  CA        -1.7940   16.3840    3.5750 C.3   108  LYS108      0.1561
    100  C         -1.1370   17.1030    2.4120 C.2   108  LYS108      0.2260
    101  O          0.1000   17.2340    2.3630 O.2   108  LYS108     -0.2867
    102  CB        -2.4420   17.3950    4.5260 C.3   108  LYS108      0.0271
    103  CG        -3.0620   16.7340    5.7570 C.3   108  LYS108      0.0035
    104  CD        -3.5130   17.7460    6.8050 C.3   108  LYS108      0.0206
    105  CE        -4.1310   17.0350    8.0170 C.3   108  LYS108      0.1093
    106  NZ        -4.2640   17.9070    9.2270 N.3   108  LYS108     -0.1314
@<TRIPOS>BOND
     1   101   100    2
     2   100    99    1
     3    99    98    1
     4    99   102    1
     5   102   103    1
     6   103   104    1
     7   104   105    1
     8   105   106    1
     9    80    81   ar
    10    80    78   ar
    11    81    79   ar
    12    78    77   ar
    13    79    77   ar
    14    77    76    1
    15    76    73    1
    16    71    70    2
    17    73    72    1
    18    73    74    1
    19    85    84    2
    20    97    95    1
    21    70    72   am
    22    70    69    1
    23    94    95    2
    24    94    93    1
    25    82    74   am
    26    82    83    1
    27    95    96    1
    28    74    75    2
    29    93    92    1
    30    84    83    1
    31    69    68    1
    32    86    83    1
    33    91    92    1
    34    91    88    1
    35    87    88    1
    36    90    89    2
    37    88    89    1
    38    59    57    1
    39    57    58    1
    40    57    56    1
    41    66    64    1
    42    67    65    1
    43    61    62    1
    44    61    64    1
    45    61    60    1
    46    62    63    2
    47    56    53    1
    48    64    65    1
    49    43    44   ar
    50    43    41   ar
    51    53    54    1
    52    53    52    1
    53    44    42   ar
    54    48    47    2
    55    41    38   ar
    56    54    55    2
    57    42    40   ar
    58    47    46    1
    59    51    50    1
    60    51    45    1
    61    30    28    1
    62    49    50    1
    63    49    46    1
    64    38    40   ar
    65    38    36   ar
    66    45    46    1
    67    40    39   ar
    68    23    22    2
    69    28    27    2
    70    28    29    1
    71    27    26    1
    72    34    33    2
    73    36    35    1
    74    36    37   ar
    75    20    21    1
    76    35    32    1
    77    15    14    2
    78    25    26    1
    79    25    24    1
    80    39    37   ar
    81    33    32    1
    82    22    21    1
    83    31    32    1
    84    21    24    1
    85    14    13    1
    86    13    16    1
    87    13    12    1
    88    16    17    1
    89    12     3   am
    90     4     3    2
    91     3     2    1
    92     1     2    1
    93    18    17    1
    94    17    19    1
    95     2     5    1
    96     5     6    1
    97     6     7    1
    98     7     8    1
    99     8     9    2
   100     9    10    1
   101     9    11    1
