@<TRIPOS>MOLECULE
tmp/4hqzB00.pdb
 94 91 0 0 0
SMALL
GASTEIGER

@<TRIPOS>ATOM
      1  N         18.4240    7.8320   57.7560 N.3    40  TRP40      -0.1241
      2  CA        17.7890    6.5420   57.4900 C.3    40  TRP40       0.1605
      3  C         16.4960    6.6630   56.6860 C.2    40  TRP40       0.2264
      4  O         15.9390    5.6390   56.2660 O.2    40  TRP40      -0.2867
      5  CB        17.5140    5.7870   58.8080 C.3    40  TRP40       0.0550
      6  CG        16.8070    6.6010   59.8630 C.ar   40  TRP40       0.0003
      7  CD1       17.3750    7.2010   60.9600 C.ar   40  TRP40       0.0946
      8  CD2       15.4110    6.8950   59.9340 C.ar   40  TRP40       0.0152
      9  NE1       16.4210    7.8490   61.6990 N.ar   40  TRP40      -0.2442
     10  CE2       15.2020    7.6790   61.0980 C.ar   40  TRP40       0.0810
     11  CE3       14.3110    6.5600   59.1340 C.ar   40  TRP40       0.0012
     12  CZ2       13.9380    8.1320   61.4700 C.ar   40  TRP40       0.0191
     13  CZ3       13.0540    7.0210   59.5110 C.ar   40  TRP40       0.0001
     14  CH2       12.8830    7.8020   60.6640 C.ar   40  TRP40       0.0015
     15  N         18.9590   14.4440   64.5080 N.3    69  ALA69      -0.1245
     16  CA        19.0860   14.1490   65.9280 C.3    69  ALA69       0.1562
     17  C         20.1210   13.0450   66.1220 C.2    69  ALA69       0.2260
     18  O         19.7840   11.8640   66.1470 O.2    69  ALA69      -0.2867
     19  CB        17.7370   13.7450   66.4830 C.3    69  ALA69       0.0290
     20  N         20.0100    9.3100   67.8770 N.3    72  ILE72      -0.1231
     21  CA        18.6390    9.1670   68.3770 C.3    72  ILE72       0.1692
     22  C         17.7320    8.6190   67.2670 C.2    72  ILE72       0.2591
     23  O         17.8240    9.0300   66.1140 O.2    72  ILE72      -0.2718
     24  CB        18.1150   10.5210   68.8930 C.3    72  ILE72       0.0266
     25  CG1       19.0250   11.0070   70.0170 C.3    72  ILE72       0.0019
     26  CG2       16.6720   10.4090   69.3310 C.3    72  ILE72       0.0020
     27  CD1       18.8360   12.4730   70.3910 C.3    72  ILE72       0.0001
     28  N         16.8610    7.7020   67.6390 N.am   73  GLN73      -0.1979
     29  CA        15.9320    7.0740   66.7140 C.3    73  GLN73       0.1601
     30  C         16.6050    6.5180   65.4510 C.2    73  GLN73       0.2287
     31  O         16.0140    6.5320   64.3680 O.2    73  GLN73      -0.2864
     32  CB        14.8200    8.0670   66.3640 C.3    73  GLN73       0.0394
     33  CG        13.7910    8.2670   67.4800 C.3    73  GLN73       0.0908
     34  CD        12.9320    7.0350   67.6660 C.2    73  GLN73       0.2608
     35  OE1       12.3900    6.4970   66.7000 O.2    73  GLN73      -0.2717
     36  NE2       12.8330    6.5510   68.8940 N.am   73  GLN73      -0.0878
     37  N         17.7910   16.4520   71.1160 N.3   101  ALA101     -0.1245
     38  CA        16.4750   16.3960   70.4960 C.3   101  ALA101      0.1562
     39  C         15.5270   17.4960   70.9630 C.2   101  ALA101      0.2260
     40  O         14.3260   17.4030   70.7700 O.2   101  ALA101     -0.2867
     41  CB        15.8440   15.0270   70.7090 C.3   101  ALA101      0.0290
     42  N         13.7590   19.1700   67.8530 N.3   104  PHE104     -0.1227
     43  CA        12.7080   18.2560   67.4060 C.3   104  PHE104      0.1736
     44  C         11.5160   18.3950   68.3420 C.2   104  PHE104      0.2595
     45  O         10.3670   18.4410   67.8920 O.2   104  PHE104     -0.2718
     46  CB        13.2020   16.8040   67.3550 C.3   104  PHE104      0.0547
     47  CG        13.8410   16.4070   66.0200 C.ar  104  PHE104     -0.0202
     48  CD1       15.1230   16.8240   65.6720 C.ar  104  PHE104     -0.0042
     49  CD2       13.1760   15.5660   65.1330 C.ar  104  PHE104     -0.0042
     50  CE1       15.6960   16.4550   64.4770 C.ar  104  PHE104     -0.0003
     51  CE2       13.7690   15.1930   63.9360 C.ar  104  PHE104     -0.0003
     52  CZ        15.0180   15.6320   63.6200 C.ar  104  PHE104     -0.0000
     53  N         11.7660   18.4490   69.6450 N.am  105  GLN105     -0.1979
     54  CA        10.6810   18.5990   70.6130 C.3   105  GLN105      0.1601
     55  C          9.9720   19.9470   70.5060 C.2   105  GLN105      0.2287
     56  O          8.7430   20.0050   70.5280 O.2   105  GLN105     -0.2864
     57  CB        11.2150   18.4120   72.0200 C.3   105  GLN105      0.0394
     58  CG        11.5000   16.9680   72.3470 C.3   105  GLN105      0.0908
     59  CD        10.2660   16.0820   72.2200 C.2   105  GLN105      0.2608
     60  OE1        9.1540   16.4970   72.5530 O.2   105  GLN105     -0.2717
     61  NE2       10.4580   14.8580   71.7350 N.am  105  GLN105     -0.0878
     62  N          7.9680   17.5030   66.3760 N.3   109  ILE109     -0.1231
     63  CA         8.1760   16.6550   65.2220 C.3   109  ILE109      0.1692
     64  C          7.7510   15.2280   65.5360 C.2   109  ILE109      0.2592
     65  O          8.2680   14.5960   66.4540 O.2   109  ILE109     -0.2718
     66  CB         9.6460   16.6480   64.7970 C.3   109  ILE109      0.0266
     67  CG1       10.1250   18.0720   64.4580 C.3   109  ILE109      0.0019
     68  CG2        9.8590   15.6710   63.6090 C.3   109  ILE109      0.0020
     69  CD1        9.3730   18.7700   63.3530 C.3   109  ILE109      0.0001
     70  N          6.7930   14.7210   64.7770 N.am  110  ARG110     -0.1966
     71  CA         6.2910   13.3670   65.0020 C.3   110  ARG110      0.1729
     72  C          6.4730   12.4830   63.7830 C.2   110  ARG110      0.2617
     73  O          6.2310   11.2770   63.8520 O.2   110  ARG110     -0.2715
     74  CB         4.8110   13.4070   65.3810 C.3   110  ARG110      0.0348
     75  CG         4.5170   14.0760   66.7110 C.3   110  ARG110      0.0492
     76  CD         5.1820   13.3490   67.8720 C.3   110  ARG110      0.2205
     77  NE         6.3970   14.0290   68.3170 N.pl3 110  ARG110     -0.0865
     78  CZ         6.4170   15.0740   69.1430 C.cat 110  ARG110      0.5346
     79  NH1        5.2850   15.5760   69.6270 N.pl3 110  ARG110      0.1354
     80  NH2        7.5750   15.6230   69.4890 N.pl3 110  ARG110      0.1354
     81  N          6.8580   13.0840   62.6660 N.am  111  SER111     -0.1936
     82  CA         7.0920   12.3410   61.4420 C.3   111  SER111      0.2055
     83  C          8.1700   13.0370   60.6360 C.2   111  SER111      0.2642
     84  O          8.3770   14.2380   60.7480 O.2   111  SER111     -0.2714
     85  CB         5.8000   12.1770   60.6270 C.3   111  SER111      0.2130
     86  OG         5.3350   13.4220   60.1430 O.3   111  SER111     -0.2179
     87  N          8.7380   12.2500   59.7260 N.am  112  ILE112     -0.1977
     88  CA         9.9950   12.5220   59.0420 C.3   112  ILE112      0.1596
     89  C          9.8300   12.2660   57.5340 C.2   112  ILE112      0.2287
     90  O          9.4150   11.1730   57.1460 O.2   112  ILE112     -0.2864
     91  CB        11.0700   11.5380   59.5600 C.3   112  ILE112      0.0276
     92  CG1       11.1570   11.5940   61.0890 C.3   112  ILE112      0.0022
     93  CG2       12.4270   11.8020   58.9250 C.3   112  ILE112      0.0022
     94  CD1       11.6620   12.9050   61.6300 C.3   112  ILE112      0.0001
@<TRIPOS>BOND
     1     4     3    2
     2     3     2    1
     3    90    89    2
     4     2     1    1
     5     2     5    1
     6    89    88    1
     7     5     6    1
     8    93    91    1
     9    88    91    1
    10    88    87    1
    11    11    13   ar
    12    11     8   ar
    13    13    14   ar
    14    91    92    1
    15    87    83   am
    16     6     8   ar
    17     6     7   ar
    18     8    10   ar
    19    86    85    1
    20    85    82    1
    21    83    84    2
    22    83    82    1
    23    14    12   ar
    24     7     9   ar
    25    92    94    1
    26    10    12   ar
    27    10     9   ar
    28    82    81    1
    29    81    72   am
    30    69    67    1
    31    68    66    1
    32    52    51   ar
    33    52    50   ar
    34    72    73    2
    35    72    71    1
    36    51    49   ar
    37    31    30    2
    38    67    66    1
    39    50    48   ar
    40    15    16    1
    41    70    71    1
    42    70    64   am
    43    66    63    1
    44    71    74    1
    45    49    47   ar
    46    63    64    1
    47    63    62    1
    48    74    75    1
    49    30    29    1
    50    64    65    2
    51    48    47   ar
    52    16    17    1
    53    16    19    1
    54    47    46    1
    55    23    22    2
    56    17    18    2
    57    32    29    1
    58    32    33    1
    59    35    34    2
    60    75    76    1
    61    29    28    1
    62    22    28   am
    63    22    21    1
    64    46    43    1
    65    43    42    1
    66    43    44    1
    67    33    34    1
    68    34    36   am
    69    76    77    1
    70    20    21    1
    71    45    44    2
    72    77    78    2
    73    44    53   am
    74    21    24    1
    75    24    26    1
    76    24    25    1
    77    78    80    1
    78    78    79    1
    79    53    54    1
    80    25    27    1
    81    38    41    1
    82    38    39    1
    83    38    37    1
    84    55    56    2
    85    55    54    1
    86    54    57    1
    87    40    39    2
    88    61    59   am
    89    57    58    1
    90    59    58    1
    91    59    60    2
