@<TRIPOS>MOLECULE
tmp/4hr2A00.pdb
 148 139 0 0 0
SMALL
GASTEIGER

@<TRIPOS>ATOM
      1  N         10.2810   20.4520    3.7000 N.3    12  LYS12      -0.1245
      2  CA         9.5640   19.4450    2.9450 C.3    12  LYS12       0.1561
      3  C          8.3900   20.0500    2.1730 C.2    12  LYS12       0.2260
      4  O          8.0750   21.2310    2.3290 O.2    12  LYS12      -0.2867
      5  CB         9.1380   18.3130    3.8740 C.3    12  LYS12       0.0271
      6  CG        10.3220   17.5860    4.4830 C.3    12  LYS12       0.0035
      7  CD         9.8980   16.4810    5.4440 C.3    12  LYS12       0.0206
      8  CE        11.1080   15.7150    5.9650 C.3    12  LYS12       0.1093
      9  NZ        10.7870   14.6530    6.9600 N.3    12  LYS12      -0.1314
     10  N         16.9080    8.4360    1.5930 N.3    52  TYR52      -0.1241
     11  CA        16.3220    7.7800    2.7740 C.3    52  TYR52       0.1605
     12  C         16.5510    6.2560    2.8570 C.2    52  TYR52       0.2264
     13  O         15.8030    5.5380    3.5320 O.2    52  TYR52      -0.2867
     14  CB        14.8190    8.1210    2.8460 C.3    52  TYR52       0.0534
     15  CG        14.5860    9.5570    3.2160 C.ar   52  TYR52      -0.0201
     16  CD1       14.9200   10.0200    4.4760 C.ar   52  TYR52      -0.0009
     17  CD2       14.0520   10.4730    2.2960 C.ar   52  TYR52      -0.0009
     18  CE1       14.7240   11.3470    4.8350 C.ar   52  TYR52       0.0417
     19  CE2       13.8540   11.8040    2.6460 C.ar   52  TYR52       0.0417
     20  CZ        14.1920   12.2350    3.9190 C.ar   52  TYR52       0.1957
     21  OH        14.0010   13.5470    4.2910 O.3    52  TYR52      -0.2866
     22  N         16.0300    3.9580    5.8770 N.3    55  HIS55      -0.1241
     23  CA        14.6650    3.5570    6.2800 C.3    55  HIS55       0.1621
     24  C         13.9930    2.5840    5.3130 C.2    55  HIS55       0.2264
     25  O         12.8000    2.3290    5.4300 O.2    55  HIS55      -0.2867
     26  CB        13.7860    4.7880    6.4500 C.3    55  HIS55       0.0745
     27  CG        14.3050    5.7520    7.4640 C.ar   55  HIS55       0.0817
     28  ND1       14.6290    5.3750    8.7490 N.ar   55  HIS55      -0.2268
     29  CD2       14.5990    7.0660    7.3710 C.ar   55  HIS55       0.1154
     30  CE1       15.0750    6.4250    9.4130 C.ar   55  HIS55       0.1986
     31  NE2       15.0680    7.4630    8.6000 N.ar   55  HIS55      -0.2212
     32  N          6.9710    2.8290    7.1430 N.3    60  PHE60      -0.1241
     33  CA         6.6630    4.1580    6.5860 C.3    60  PHE60       0.1605
     34  C          7.4800    4.5230    5.3370 C.2    60  PHE60       0.2264
     35  O          7.3290    5.6260    4.7930 O.2    60  PHE60      -0.2867
     36  CB         6.8570    5.2400    7.6610 C.3    60  PHE60       0.0534
     37  CG         8.2520    5.2960    8.2320 C.ar   60  PHE60      -0.0203
     38  CD1        9.2510    6.0310    7.6030 C.ar   60  PHE60      -0.0042
     39  CD2        8.5630    4.6210    9.4050 C.ar   60  PHE60      -0.0042
     40  CE1       10.5360    6.0820    8.1270 C.ar   60  PHE60      -0.0003
     41  CE2        9.8470    4.6660    9.9350 C.ar   60  PHE60      -0.0003
     42  CZ        10.8320    5.3940    9.2970 C.ar   60  PHE60      -0.0000
     43  N          5.4720    5.6500    2.1120 N.3    63  ASP63      -0.1225
     44  CA         4.7600    6.9020    2.3550 C.3    63  ASP63       0.1805
     45  C          5.7180    8.0990    2.3770 C.2    63  ASP63       0.2597
     46  O          5.4120    9.1550    1.8290 O.2    63  ASP63      -0.2718
     47  CB         3.9430    6.8380    3.6600 C.3    63  ASP63       0.1424
     48  CG         2.7020    5.9720    3.5370 C.2    63  ASP63       0.3668
     49  OD1        2.2470    5.6880    2.4180 O.co2  63  ASP63      -0.2456
     50  OD2        2.1630    5.5590    4.5720 O.co2  63  ASP63      -0.2456
     51  N          6.8710    7.9150    3.0140 N.am   64  LEU64      -0.1979
     52  CA         7.8900    8.9440    3.1080 C.3    64  LEU64       0.1596
     53  C          8.3730    9.3710    1.7260 C.2    64  LEU64       0.2287
     54  O          8.4770   10.5530    1.4260 O.2    64  LEU64      -0.2864
     55  CB         9.0710    8.4200    3.9220 C.3    64  LEU64       0.0297
     56  CG        10.3480    9.2500    3.9470 C.3    64  LEU64       0.0022
     57  CD1       10.0970   10.6310    4.5370 C.3    64  LEU64       0.0001
     58  CD2       11.4300    8.5160    4.7230 C.3    64  LEU64       0.0001
     59  N          5.6770   11.1970   -0.1580 N.3    67  PHE67      -0.1241
     60  CA         5.5830   12.5360    0.4140 C.3    67  PHE67       0.1605
     61  C          6.7260   13.4430   -0.0740 C.2    67  PHE67       0.2264
     62  O          6.5060   14.5670   -0.5240 O.2    67  PHE67      -0.2867
     63  CB         5.5650   12.4540    1.9440 C.3    67  PHE67       0.0534
     64  CG         5.6730   13.7860    2.6260 C.ar   67  PHE67      -0.0203
     65  CD1        4.9020   14.8560    2.2070 C.ar   67  PHE67      -0.0042
     66  CD2        6.5310   13.9650    3.7240 C.ar   67  PHE67      -0.0042
     67  CE1        5.0160   16.0960    2.8410 C.ar   67  PHE67      -0.0003
     68  CE2        6.6300   15.1820    4.3580 C.ar   67  PHE67      -0.0003
     69  CZ         5.8710   16.2530    3.9110 C.ar   67  PHE67      -0.0000
     70  N         18.5330   20.0470   14.9710 N.3    88  ARG88      -0.1245
     71  CA        17.6110   19.0270   15.4800 C.3    88  ARG88       0.1563
     72  C         16.7610   19.5950   16.6180 C.2    88  ARG88       0.2260
     73  O         15.5710   19.3310   16.6780 O.2    88  ARG88      -0.2867
     74  CB        18.3600   17.7870   15.9790 C.3    88  ARG88       0.0307
     75  CG        19.2200   17.0770   14.9290 C.3    88  ARG88       0.0489
     76  CD        18.4040   16.3080   13.9160 C.3    88  ARG88       0.2205
     77  NE        17.8910   15.0520   14.4540 N.pl3  88  ARG88      -0.0865
     78  CZ        17.1200   14.2020   13.7760 C.cat  88  ARG88       0.5346
     79  NH1       16.7820   14.4510   12.5120 N.pl3  88  ARG88       0.1354
     80  NH2       16.7050   13.0830   14.3670 N.pl3  88  ARG88       0.1354
     81  N         14.0870   21.7450   15.0940 N.3    91  MET91      -0.1245
     82  CA        13.1070   20.9520   14.3730 C.3    91  MET91       0.1570
     83  C         12.0780   20.3520   15.3210 C.2    91  MET91       0.2261
     84  O         10.9060   20.4330   15.0440 O.2    91  MET91      -0.2867
     85  CB        13.7730   19.8230   13.6030 C.3    91  MET91       0.0387
     86  CG        14.6150   20.2950   12.4330 C.3    91  MET91       0.0595
     87  SD        15.6760   18.9910   11.7610 S.3    91  MET91      -0.1393
     88  CE        14.5500   17.6430   11.5310 C.3    91  MET91       0.0692
     89  N         10.1150   13.9060   15.8040 N.3    94  THR94      -0.1218
     90  CA         9.6220   13.4590   14.5090 C.3    94  THR94       0.1862
     91  C          8.1140   13.6350   14.3890 C.2    94  THR94       0.2287
     92  O          7.6050   14.0720   13.3550 O.2    94  THR94      -0.2866
     93  CB         9.9590   11.9860   14.2910 C.3    94  THR94       0.1770
     94  OG1       11.3410   11.7800   14.5850 O.3    94  THR94      -0.2211
     95  CG2        9.6500   11.5750   12.8610 C.3    94  THR94       0.0375
     96  N          8.5280   21.6760   13.8860 N.3   105  ARG105     -0.1245
     97  CA         7.5420   20.6150   13.6930 C.3   105  ARG105      0.1563
     98  C          6.2510   20.8680   14.4550 C.2   105  ARG105      0.2260
     99  O          5.1790   20.7260   13.8850 O.2   105  ARG105     -0.2867
    100  CB         8.1400   19.2420   13.9850 C.3   105  ARG105      0.0307
    101  CG         9.0250   18.8090   12.8420 C.3   105  ARG105      0.0489
    102  CD         9.9560   17.6940   13.2230 C.3   105  ARG105      0.2205
    103  NE        10.5760   17.0780   12.0680 N.pl3 105  ARG105     -0.0865
    104  CZ        11.5180   16.1490   12.1510 C.cat 105  ARG105      0.5346
    105  NH1       11.9640   15.7500   13.3510 N.pl3 105  ARG105      0.1354
    106  NH2       12.0250   15.6150   11.0400 N.pl3 105  ARG105      0.1354
    107  N          2.8050   13.1780   11.8320 N.3   112  ILE112     -0.1231
    108  CA         4.0670   12.5590   11.4340 C.3   112  ILE112      0.1692
    109  C          4.1290   12.2950    9.9120 C.2   112  ILE112      0.2592
    110  O          5.2110   12.1560    9.3450 O.2   112  ILE112     -0.2718
    111  CB         4.3280   11.2680   12.2550 C.3   112  ILE112      0.0266
    112  CG1        5.7960   10.8550   12.1800 C.3   112  ILE112      0.0019
    113  CG2        3.4010   10.1390   11.8300 C.3   112  ILE112      0.0020
    114  CD1        6.1570    9.7420   13.1570 C.3   112  ILE112      0.0001
    115  N          2.9580   12.2540    9.2780 N.am  113  ASP113     -0.1974
    116  CA         2.7980   12.0270    7.8450 C.3   113  ASP113      0.1709
    117  C          3.2420   13.2080    6.9880 C.2   113  ASP113      0.2293
    118  O          3.4480   13.0410    5.7910 O.2   113  ASP113     -0.2864
    119  CB         1.3160   11.7540    7.5250 C.3   113  ASP113      0.1436
    120  CG         0.7890   10.5350    8.2350 C.2   113  ASP113      0.3671
    121  OD1        1.3300    9.4420    7.9940 O.co2 113  ASP113     -0.2456
    122  OD2       -0.1540   10.6780    9.0440 O.co2 113  ASP113     -0.2456
    123  N          5.7210   16.3650    8.1680 N.3   115  ASN115     -0.1240
    124  CA         6.3590   16.9520    9.3440 C.3   115  ASN115      0.1653
    125  C          7.3920   18.0410    9.0520 C.2   115  ASN115      0.2266
    126  O          8.3110   18.2520    9.8440 O.2   115  ASN115     -0.2867
    127  CB         6.9380   15.8650   10.2590 C.3   115  ASN115      0.1155
    128  CG         8.2000   15.2380    9.7110 C.2   115  ASN115      0.2627
    129  OD1        8.5690   15.4250    8.5440 O.2   115  ASN115     -0.2716
    130  ND2        8.8650   14.4560   10.5600 N.am  115  ASN115     -0.0877
    131  N         13.4820   18.2230    7.5150 N.3   118  HIS118     -0.1241
    132  CA        14.5290   17.2210    7.6980 C.3   118  HIS118      0.1621
    133  C         15.8060   17.8820    8.2100 C.2   118  HIS118      0.2264
    134  O         16.1070   19.0400    7.8670 O.2   118  HIS118     -0.2867
    135  CB        14.8660   16.5610    6.3650 C.3   118  HIS118      0.0745
    136  CG        16.0530   15.6450    6.4260 C.ar  118  HIS118      0.0817
    137  ND1       15.9350   14.2800    6.5560 N.ar  118  HIS118     -0.2268
    138  CD2       17.3830   15.9050    6.3840 C.ar  118  HIS118      0.1154
    139  CE1       17.1420   13.7370    6.5910 C.ar  118  HIS118      0.1986
    140  NE2       18.0410   14.7040    6.4770 N.ar  118  HIS118     -0.2212
    141  N         21.3120   13.7820   11.2220 N.3   121  ASP121     -0.1239
    142  CA        21.2660   13.4230   12.6350 C.3   121  ASP121      0.1674
    143  C         22.6190   13.1200   13.2750 C.2   121  ASP121      0.2266
    144  O         22.6770   12.8530   14.4760 O.2   121  ASP121     -0.2867
    145  CB        20.2840   12.2740   12.8710 C.3   121  ASP121      0.1410
    146  CG        20.7590   10.9620   12.3040 C.2   121  ASP121      0.3668
    147  OD1       21.8430   10.8940   11.6760 O.co2 121  ASP121     -0.2456
    148  OD2       20.0230    9.9800   12.4980 O.co2 121  ASP121     -0.2456
@<TRIPOS>BOND
     1    62    61    2
     2    59    60    1
     3    61    60    1
     4    60    63    1
     5    54    53    2
     6    10    11    1
     7    53    52    1
     8    46    45    2
     9    63    64    1
    10    43    44    1
    11     3     4    2
    12     3     2    1
    13    65    64   ar
    14    65    67   ar
    15    17    19   ar
    16    17    15   ar
    17    44    45    1
    18    44    47    1
    19    45    51   am
    20    49    48   ar
    21    64    66   ar
    22    19    20   ar
    23    11    14    1
    24    11    12    1
    25    67    69   ar
    26    14    15    1
    27    12    13    2
    28     2     1    1
    29     2     5    1
    30    51    52    1
    31    52    55    1
    32    15    16   ar
    33    48    47    1
    34    48    50   ar
    35    66    68   ar
    36     5     6    1
    37    69    68   ar
    38    20    21    1
    39    20    18   ar
    40    55    56    1
    41    56    57    1
    42    56    58    1
    43    16    18   ar
    44     6     7    1
    45    35    34    2
    46    24    25    2
    47    24    23    1
    48    34    33    1
    49     7     8    1
    50   118   117    2
    51    22    23    1
    52     8     9    1
    53    23    26    1
    54   135   136    1
    55   135   132    1
    56   138   136   ar
    57   138   140   ar
    58   136   137   ar
    59    26    27    1
    60   140   139   ar
    61   137   139   ar
    62    33    32    1
    63    33    36    1
    64   117   116    1
    65    29    27   ar
    66    29    31   ar
    67    27    28   ar
    68   131   132    1
    69   119   116    1
    70   119   120    1
    71    38    40   ar
    72    38    37   ar
    73    36    37    1
    74   132   133    1
    75   116   115    1
    76   134   133    2
    77   121   120   ar
    78    40    42   ar
    79   123   124    1
    80    37    39   ar
    81   120   122   ar
    82   129   128    2
    83    31    30   ar
    84    28    30   ar
    85   125   124    1
    86   125   126    2
    87   115   109   am
    88    42    41   ar
    89   124   127    1
    90   110   109    2
    91    39    41   ar
    92   128   127    1
    93   128   130   am
    94   109   108    1
    95   106   104    1
    96   141   142    1
    97   108   107    1
    98   108   111    1
    99    88    87    1
   100   147   146   ar
   101    87    86    1
   102   113   111    1
   103   103   104    2
   104   103   102    1
   105   104   105    1
   106   112   111    1
   107   112   114    1
   108   146   148   ar
   109   146   145    1
   110    86    85    1
   111    79    78    1
   112   142   145    1
   113   142   143    1
   114   101   102    1
   115   101   100    1
   116    95    93    1
   117   143   144    2
   118    92    91    2
   119    85    82    1
   120    97    96    1
   121    97   100    1
   122    97    98    1
   123    78    80    1
   124    78    77    2
   125    99    98    2
   126    76    77    1
   127    76    75    1
   128    93    90    1
   129    93    94    1
   130    82    81    1
   131    82    83    1
   132    91    90    1
   133    90    89    1
   134    75    74    1
   135    70    71    1
   136    84    83    2
   137    71    74    1
   138    71    72    1
   139    72    73    2
