@<TRIPOS>MOLECULE
tmp/4hr3A00.pdb
 195 193 0 0 0
SMALL
GASTEIGER

@<TRIPOS>ATOM
      1  N         18.3040   43.6290   43.4030 N.3   107  PRO107     -0.2116
      2  CA        18.8320   42.3620   43.8820 C.3   107  PRO107      0.1372
      3  C         20.2450   42.0530   43.4170 C.2   107  PRO107      0.2244
      4  O         20.8080   41.0470   43.8020 O.2   107  PRO107     -0.2868
      5  CB        17.8830   41.3570   43.2400 C.3   107  PRO107      0.0268
      6  CG        17.6090   41.9800   41.9170 C.3   107  PRO107      0.0207
      7  CD        17.5180   43.4470   42.1730 C.3   107  PRO107      0.0892
      8  N         16.4370   37.5560   41.6520 N.3   140  PHE140     -0.1227
      9  CA        16.4240   36.4590   42.6020 C.3   140  PHE140      0.1736
     10  C         14.9880   35.9500   42.6720 C.2   140  PHE140      0.2596
     11  O         14.0820   36.7010   43.0100 O.2   140  PHE140     -0.2718
     12  CB        16.9050   36.9400   43.9820 C.3   140  PHE140      0.0547
     13  CG        16.8900   35.8640   45.0370 C.ar  140  PHE140     -0.0202
     14  CD1       17.7310   34.7550   44.9290 C.ar  140  PHE140     -0.0042
     15  CD2       16.0330   35.9370   46.1200 C.ar  140  PHE140     -0.0042
     16  CE1       17.7290   33.7620   45.9040 C.ar  140  PHE140     -0.0003
     17  CE2       16.0270   34.9500   47.0960 C.ar  140  PHE140     -0.0003
     18  CZ        16.8720   33.8570   46.9830 C.ar  140  PHE140     -0.0000
     19  N         14.7860   34.6770   42.3420 N.am  141  CYS141     -0.1956
     20  CA        13.4490   34.1230   42.2020 C.3   141  CYS141      0.1843
     21  C         13.2010   33.0590   43.2740 C.2   141  CYS141      0.2625
     22  O         13.5980   31.9020   43.0870 O.2   141  CYS141     -0.2714
     23  CB        13.2910   33.5320   40.8010 C.3   141  CYS141      0.0997
     24  SG        13.3040   34.7860   39.4790 S.3   141  CYS141     -0.0797
     25  N         12.5450   33.4560   44.3680 N.am  142  MET142     -0.1963
     26  CA        12.2760   32.5470   45.4890 C.3   142  MET142      0.1736
     27  C         10.7880   32.4680   45.8240 C.2   142  MET142      0.2617
     28  O         10.2220   31.3660   45.9560 O.2   142  MET142     -0.2715
     29  CB        13.0700   32.9800   46.7260 C.3   142  MET142      0.0427
     30  CG        13.2290   31.8920   47.7810 C.3   142  MET142      0.0599
     31  SD        13.5640   32.5690   49.4160 S.3   142  MET142     -0.1393
     32  CE        12.0700   33.5480   49.6460 C.3   142  MET142      0.0692
     33  N         10.1450   33.6200   45.9590 N.am  143  THR143     -0.1937
     34  CA         8.7320   33.6770   46.3230 C.3   143  THR143      0.2028
     35  C          7.8270   33.0820   45.2370 C.2   143  THR143      0.2642
     36  O          8.0400   33.3000   44.0470 O.2   143  THR143     -0.2714
     37  CB         8.3580   35.1380   46.6140 C.3   143  THR143      0.1808
     38  OG1        9.2610   35.6410   47.6090 O.3   143  THR143     -0.2208
     39  CG2        6.9010   35.2780   47.0620 C.3   143  THR143      0.0379
     40  N          6.8200   32.3270   45.6720 N.am  144  GLU144     -0.1976
     41  CA         5.8950   31.6260   44.7830 C.3   144  GLU144      0.1602
     42  C          4.4770   32.0960   45.0750 C.2   144  GLU144      0.2287
     43  O          4.0890   32.1630   46.2340 O.2   144  GLU144     -0.2864
     44  CB         5.9780   30.1250   45.0370 C.3   144  GLU144      0.0415
     45  CG         7.3130   29.5260   44.6490 C.3   144  GLU144      0.1163
     46  CD         7.5210   28.0990   45.1290 C.2   144  GLU144      0.3649
     47  OE1        6.5580   27.4450   45.5940 O.co2 144  GLU144     -0.2457
     48  OE2        8.6760   27.6150   45.0230 O.co2 144  GLU144     -0.2457
     49  N          1.8220   29.6110   47.2870 N.3   147  VAL147     -0.1231
     50  CA         2.1210   29.1680   48.6440 C.3   147  VAL147      0.1692
     51  C          2.5630   30.3530   49.4830 C.2   147  VAL147      0.2592
     52  O          3.0290   31.3670   48.9460 O.2   147  VAL147     -0.2718
     53  CB         3.2080   28.0690   48.6950 C.3   147  VAL147      0.0266
     54  CG1        2.8160   26.8700   47.8360 C.3   147  VAL147      0.0020
     55  CG2        4.5680   28.6060   48.2750 C.3   147  VAL147      0.0020
     56  N          2.4230   30.2210   50.7960 N.am  148  ALA148     -0.1966
     57  CA         2.8270   31.2840   51.7000 C.3   148  ALA148      0.1728
     58  C          4.3430   31.1860   51.8580 C.2   148  ALA148      0.2617
     59  O          4.8640   30.3530   52.6180 O.2   148  ALA148     -0.2715
     60  CB         2.1120   31.1580   53.0270 C.3   148  ALA148      0.0334
     61  N          5.0410   32.0250   51.0980 N.am  149  SER149     -0.1936
     62  CA         6.4950   31.9200   50.9390 C.3   149  SER149      0.2055
     63  C          7.2600   32.5380   52.1100 C.2   149  SER149      0.2643
     64  O          8.4900   32.4050   52.1940 O.2   149  SER149     -0.2714
     65  CB         6.9130   32.5620   49.6220 C.3   149  SER149      0.2130
     66  OG         6.2350   31.9380   48.5320 O.3   149  SER149     -0.2179
     67  N          6.5440   33.1720   53.0380 N.am  150  SER150     -0.1949
     68  CA         7.1910   33.6460   54.2690 C.3   150  SER150      0.1924
     69  C          7.8080   32.4750   55.0570 C.2   150  SER150      0.2314
     70  O          8.7260   32.6840   55.8570 O.2   150  SER150     -0.2863
     71  CB         6.2160   34.4420   55.1340 C.3   150  SER150      0.2116
     72  OG         5.1070   33.6540   55.5230 O.3   150  SER150     -0.2180
     73  N          7.1580   34.8030   41.8110 N.3   173  TRP173     -0.1227
     74  CA         6.7200   36.1580   41.5910 C.3   173  TRP173      0.1737
     75  C          7.3450   37.1460   42.5730 C.2   173  TRP173      0.2595
     76  O          8.1230   36.7610   43.4490 O.2   173  TRP173     -0.2718
     77  CB         5.1870   36.2440   41.5500 C.3   173  TRP173      0.0564
     78  CG         4.4510   36.2800   42.8640 C.ar  173  TRP173      0.0003
     79  CD1        4.8110   35.6990   44.0450 C.ar  173  TRP173      0.0946
     80  CD2        3.1790   36.8990   43.0960 C.ar  173  TRP173      0.0152
     81  NE1        3.8650   35.9600   45.0090 N.ar  173  TRP173     -0.2442
     82  CE2        2.8490   36.6860   44.4550 C.ar  173  TRP173      0.0810
     83  CE3        2.3030   37.6390   42.2940 C.ar  173  TRP173      0.0012
     84  CZ2        1.6810   37.1790   45.0270 C.ar  173  TRP173      0.0191
     85  CZ3        1.1260   38.1220   42.8600 C.ar  173  TRP173      0.0001
     86  CH2        0.8340   37.9010   44.2140 C.ar  173  TRP173      0.0015
     87  N          7.0390   38.4200   42.3530 N.am  174  TRP174     -0.1962
     88  CA         7.7180   39.5260   43.0300 C.3   174  TRP174      0.1771
     89  C          9.2130   39.5200   42.7230 C.2   174  TRP174      0.2620
     90  O         10.0040   40.0240   43.5050 O.2   174  TRP174     -0.2715
     91  CB         7.4190   39.5470   44.5400 C.3   174  TRP174      0.0590
     92  CG         6.0290   40.0130   44.7600 C.ar  174  TRP174      0.0006
     93  CD1        4.9570   39.2610   45.1080 C.ar  174  TRP174      0.0946
     94  CD2        5.5390   41.3270   44.5050 C.ar  174  TRP174      0.0152
     95  NE1        3.8160   40.0370   45.1270 N.ar  174  TRP174     -0.2442
     96  CE2        4.1510   41.3130   44.7570 C.ar  174  TRP174      0.0810
     97  CE3        6.1440   42.5250   44.1010 C.ar  174  TRP174      0.0012
     98  CZ2        3.3560   42.4550   44.6090 C.ar  174  TRP174      0.0191
     99  CZ3        5.3620   43.6540   43.9790 C.ar  174  TRP174      0.0001
    100  CH2        3.9820   43.6090   44.2160 C.ar  174  TRP174      0.0015
    101  N          9.5970   38.9850   41.5700 N.am  175  SER175     -0.1936
    102  CA        11.0150   38.9610   41.1960 C.3   175  SER175      0.2055
    103  C         11.4370   40.3700   40.7690 C.2   175  SER175      0.2643
    104  O         11.1190   40.8260   39.6680 O.2   175  SER175     -0.2714
    105  CB        11.2660   37.9580   40.0660 C.3   175  SER175      0.2130
    106  OG        10.5920   36.7200   40.2840 O.3   175  SER175     -0.2179
    107  N         12.1260   41.0770   41.6530 N.am  176  THR176     -0.1950
    108  CA        12.5740   42.4380   41.3620 C.3   176  THR176      0.1897
    109  C         13.5690   42.4350   40.2030 C.2   176  THR176      0.2313
    110  O         14.5340   41.6720   40.2180 O.2   176  THR176     -0.2863
    111  CB        13.2660   43.0540   42.5930 C.3   176  THR176      0.1794
    112  OG1       12.3630   43.0500   43.6990 O.3   176  THR176     -0.2208
    113  CG2       13.7010   44.4800   42.3370 C.3   176  THR176      0.0378
    114  N          2.8280   47.9430   42.8880 N.3   222  THR222     -0.1218
    115  CA         2.7690   48.1200   44.3420 C.3   222  THR222      0.1862
    116  C          2.0240   49.4350   44.5000 C.2   222  THR222      0.2287
    117  O          2.5500   50.4680   44.1250 O.2   222  THR222     -0.2866
    118  CB         4.1780   48.2600   44.9590 C.3   222  THR222      0.1770
    119  OG1        4.8490   49.3600   44.3350 O.3   222  THR222     -0.2211
    120  CG2        4.9770   47.0530   44.7170 C.3   222  THR222      0.0375
    121  N          8.7620   44.4430   38.9900 N.3   232  HIS232     -0.1241
    122  CA         8.6460   43.2280   39.8150 C.3   232  HIS232      0.1621
    123  C          7.7970   42.2620   39.0210 C.2   232  HIS232      0.2264
    124  O          6.6580   42.5720   38.6910 O.2   232  HIS232     -0.2867
    125  CB         7.9460   43.5260   41.1300 C.3   232  HIS232      0.0745
    126  CG         8.6800   44.5020   41.9800 C.ar  232  HIS232      0.0817
    127  ND1        8.3460   45.8350   42.0400 N.ar  232  HIS232     -0.2268
    128  CD2        9.7540   44.3450   42.7860 C.ar  232  HIS232      0.1154
    129  CE1        9.1870   46.4630   42.8400 C.ar  232  HIS232      0.1986
    130  NE2       10.0500   45.5800   43.3070 N.ar  232  HIS232     -0.2212
    131  N          6.4690   48.3390   51.4200 N.3   383  ALA383     -0.1231
    132  CA         6.8430   47.1000   50.7630 C.3   383  ALA383      0.1694
    133  C          7.9750   46.3990   51.4880 C.2   383  ALA383      0.2591
    134  O          8.0540   45.1750   51.4910 O.2   383  ALA383     -0.2718
    135  CB         7.2400   47.3870   49.3180 C.3   383  ALA383      0.0304
    136  N          8.8330   47.1790   52.1260 N.am  384  LEU384     -0.1980
    137  CA         9.9670   46.6210   52.8440 C.3   384  LEU384      0.1596
    138  C          9.6080   46.0100   54.1920 C.2   384  LEU384      0.2287
    139  O         10.4760   45.4290   54.8540 O.2   384  LEU384     -0.2864
    140  CB        11.1170   47.6420   52.9210 C.3   384  LEU384      0.0297
    141  CG        12.0100   47.5990   51.6810 C.3   384  LEU384      0.0022
    142  CD1       12.8730   48.8480   51.5350 C.3   384  LEU384      0.0001
    143  CD2       12.8920   46.3780   51.7490 C.3   384  LEU384      0.0001
    144  N          7.5520   43.5660   53.9330 N.3   386  LEU386     -0.1231
    145  CA         7.2100   42.2750   53.3430 C.3   386  LEU386      0.1693
    146  C          8.3900   41.6970   52.5770 C.2   386  LEU386      0.2592
    147  O          8.7350   40.5450   52.7630 O.2   386  LEU386     -0.2718
    148  CB         6.0290   42.4270   52.3800 C.3   386  LEU386      0.0284
    149  CG         4.7190   42.7570   53.1190 C.3   386  LEU386      0.0019
    150  CD1        3.6350   43.2860   52.1850 C.3   386  LEU386      0.0001
    151  CD2        4.2300   41.5590   53.8770 C.3   386  LEU386      0.0001
    152  N          8.9910   42.5020   51.7040 N.am  387  ALA387     -0.1966
    153  CA        10.1850   42.0670   50.9690 C.3   387  ALA387      0.1728
    154  C         11.2680   41.6110   51.9430 C.2   387  ALA387      0.2616
    155  O         11.4270   42.2010   53.0000 O.2   387  ALA387     -0.2715
    156  CB        10.7020   43.1830   50.0950 C.3   387  ALA387      0.0334
    157  N         11.9800   40.5470   51.5730 N.am  388  ASP388     -0.1957
    158  CA        12.9570   39.8810   52.4370 C.3   388  ASP388      0.1840
    159  C         12.3750   39.4040   53.7790 C.2   388  ASP388      0.2623
    160  O         13.0760   39.3680   54.7870 O.2   388  ASP388     -0.2715
    161  CB        14.1760   40.7800   52.6770 C.3   388  ASP388      0.1450
    162  CG        15.3470   40.0290   53.3170 C.2   388  ASP388      0.3671
    163  OD1       15.5220   38.8090   53.0650 O.co2 388  ASP388     -0.2456
    164  OD2       16.0770   40.6470   54.1200 O.co2 388  ASP388     -0.2456
    165  N         11.0990   39.0380   53.7720 N.am  389  GLY389     -0.1940
    166  CA        10.4620   38.4280   54.9280 C.3   389  GLY389      0.1998
    167  C          9.6160   39.4090   55.7230 C.2   389  GLY389      0.2480
    168  O         10.0620   40.4990   56.0440 O.2   389  GLY389     -0.2729
    169  N          8.3740   39.0240   56.0360 N.am  390  PRO390     -0.2726
    170  CA         7.5060   39.9640   56.7470 C.3   390  PRO390      0.1402
    171  C          7.9820   40.3300   58.1490 C.2   390  PRO390      0.2269
    172  O          8.6570   39.5380   58.7920 O.2   390  PRO390     -0.2865
    173  CB         6.1620   39.2350   56.7930 C.3   390  PRO390      0.0296
    174  CG         6.2190   38.2850   55.6210 C.3   390  PRO390      0.0237
    175  CD         7.6370   37.8620   55.5140 C.3   390  PRO390      0.0939
    176  N          6.5480   40.1890   60.9010 N.3   392  GLU392     -0.1231
    177  CA         6.1390   39.1680   61.8670 C.3   392  GLU392      0.1699
    178  C          7.1500   38.0190   61.9880 C.2   392  GLU392      0.2592
    179  O          7.4100   37.5030   63.0870 O.2   392  GLU392     -0.2718
    180  CB         4.7490   38.6190   61.4890 C.3   392  GLU392      0.0402
    181  CG         3.5630   39.5670   61.6980 C.3   392  GLU392      0.1161
    182  CD         3.3830   40.6270   60.6010 C.2   392  GLU392      0.3649
    183  OE1        4.2000   40.6810   59.6430 O.co2 392  GLU392     -0.2457
    184  OE2        2.3930   41.4060   60.6960 O.co2 392  GLU392     -0.2457
    185  N          7.7110   37.6080   60.8540 N.am  393  VAL393     -0.1980
    186  CA         8.7060   36.5390   60.8590 C.3   393  VAL393      0.1595
    187  C          9.9580   37.0020   61.5960 C.2   393  VAL393      0.2287
    188  O         10.5270   36.2780   62.4290 O.2   393  VAL393     -0.2864
    189  CB         9.0460   36.1070   59.4210 C.3   393  VAL393      0.0276
    190  CG1       10.2160   35.1230   59.4110 C.3   393  VAL393      0.0022
    191  CG2        7.8060   35.5170   58.7520 C.3   393  VAL393      0.0022
    192  N          9.4640   37.1370   65.1940 N.3   396  GLY396     -0.1225
    193  CA         9.5930   35.7620   65.6930 C.3   396  GLY396      0.1811
    194  C         11.0360   35.3840   65.9760 C.2   396  GLY396      0.2280
    195  O         11.3320   34.7750   66.9960 O.2   396  GLY396     -0.2866
@<TRIPOS>BOND
     1   124   123    2
     2   121   122    1
     3   123   122    1
     4    24    23    1
     5   104   103    2
     6   122   125    1
     7   105   106    1
     8   105   102    1
     9   109   110    2
    10   109   108    1
    11   103   102    1
    12   103   107   am
    13    23    20    1
    14   125   126    1
    15   102   101    1
    16   108   107    1
    17   108   111    1
    18    77    74    1
    19    77    78    1
    20   101    89   am
    21    74    73    1
    22    74    75    1
    23     8     9    1
    24     6     7    1
    25     6     5    1
    26   126   127   ar
    27   126   128   ar
    28   127   129   ar
    29     7     1    1
    30    20    19    1
    31    20    21    1
    32    83    85   ar
    33    83    80   ar
    34   113   111    1
    35    19    10   am
    36    87    75   am
    37    87    88    1
    38    75    76    2
    39   111   112    1
    40     9    10    1
    41     9    12    1
    42    10    11    2
    43    89    88    1
    44    89    90    2
    45   128   130   ar
    46   129   130   ar
    47    85    86   ar
    48    78    80   ar
    49    78    79   ar
    50   114   115    1
    51    88    91    1
    52    22    21    2
    53    80    82   ar
    54     5     2    1
    55    21    25   am
    56     1     2    1
    57     3     4    2
    58     3     2    1
    59    99    97   ar
    60    99   100   ar
    61    12    13    1
    62    79    81   ar
    63    36    35    2
    64    97    94   ar
    65   117   116    2
    66    86    84   ar
    67   100    98   ar
    68   119   118    1
    69   115   116    1
    70   115   118    1
    71    25    26    1
    72    82    81   ar
    73    82    84   ar
    74    94    96   ar
    75    94    92   ar
    76    91    92    1
    77    98    96   ar
    78    45    44    1
    79    45    46    1
    80   120   118    1
    81    96    95   ar
    82    92    93   ar
    83    41    44    1
    84    41    42    1
    85    41    40    1
    86    14    13   ar
    87    14    16   ar
    88    48    46   ar
    89    13    15   ar
    90    42    43    2
    91    93    95   ar
    92    46    47   ar
    93    35    40   am
    94    35    34    1
    95    26    27    1
    96    26    29    1
    97    27    28    2
    98    27    33   am
    99    16    18   ar
   100    33    34    1
   101    15    17   ar
   102    34    37    1
   103    37    39    1
   104    37    38    1
   105    29    30    1
   106    18    17   ar
   107    49    50    1
   108    30    31    1
   109    54    53    1
   110    55    53    1
   111    66    65    1
   112    50    53    1
   113    50    51    1
   114    52    51    2
   115   135   132    1
   116    31    32    1
   117    51    56   am
   118    65    62    1
   119   156   153    1
   120   132   131    1
   121   132   133    1
   122    56    57    1
   123    62    61    1
   124    62    63    1
   125   153   152    1
   126   153   154    1
   127    61    58   am
   128   133   134    2
   129   133   136   am
   130   142   141    1
   131   157   154   am
   132   157   158    1
   133   141   143    1
   134   141   140    1
   135    57    58    1
   136    57    60    1
   137   152   146   am
   138    58    59    2
   139   154   155    2
   140    63    64    2
   141    63    67   am
   142   136   137    1
   143   150   149    1
   144   148   149    1
   145   148   145    1
   146   158   161    1
   147   158   159    1
   148   146   147    2
   149   146   145    1
   150   161   162    1
   151   137   140    1
   152   137   138    1
   153    67    68    1
   154   163   162   ar
   155   149   151    1
   156   162   164   ar
   157   145   144    1
   158   165   159   am
   159   165   166    1
   160   159   160    2
   161   138   139    2
   162    68    69    1
   163    68    71    1
   164   166   167    1
   165    69    70    2
   166    71    72    1
   167   175   174    1
   168   175   169    1
   169   174   173    1
   170   167   169   am
   171   167   168    2
   172   169   170    1
   173   170   173    1
   174   170   171    1
   175   171   172    2
   176   191   189    1
   177   190   189    1
   178   189   186    1
   179   183   182   ar
   180   182   184   ar
   181   182   181    1
   182   185   186    1
   183   185   178   am
   184   186   187    1
   185   176   177    1
   186   180   181    1
   187   180   177    1
   188   187   188    2
   189   177   178    1
   190   178   179    2
   191   192   193    1
   192   193   194    1
   193   194   195    2
