@<TRIPOS>MOLECULE
tmp/4hr6C01.pdb
 88 84 0 0 0
SMALL
GASTEIGER

@<TRIPOS>ATOM
      1  N         20.8170   68.7650    3.4810 N.3   199  ASP199     -0.1239
      2  CA        22.2640   68.9130    3.2590 C.3   199  ASP199      0.1674
      3  C         22.7390   68.1640    2.0050 C.2   199  ASP199      0.2266
      4  O         23.8580   67.6540    1.9750 O.2   199  ASP199     -0.2867
      5  CB        23.0690   68.4510    4.4930 C.3   199  ASP199      0.1410
      6  CG        22.7680   69.2750    5.7540 C.2   199  ASP199      0.3668
      7  OD1       22.3740   70.4560    5.6430 O.co2 199  ASP199     -0.2456
      8  OD2       22.9410   68.7360    6.8700 O.co2 199  ASP199     -0.2456
      9  N         21.4130   65.3410    0.5890 N.3   201  TRP201     -0.1241
     10  CA        21.3220   63.8880    0.7480 C.3   201  TRP201      0.1605
     11  C         19.8510   63.4910    0.8960 C.2   201  TRP201      0.2264
     12  O         19.0620   64.2260    1.4950 O.2   201  TRP201     -0.2867
     13  CB        22.0870   63.4350    1.9910 C.3   201  TRP201      0.0550
     14  CG        23.5770   63.7000    1.9900 C.ar  201  TRP201      0.0003
     15  CD1       24.2380   64.6590    2.7060 C.ar  201  TRP201      0.0946
     16  CD2       24.5890   62.9650    1.2820 C.ar  201  TRP201      0.0152
     17  NE1       25.5960   64.5800    2.4720 N.ar  201  TRP201     -0.2442
     18  CE2       25.8370   63.5520    1.6020 C.ar  201  TRP201      0.0810
     19  CE3       24.5630   61.8740    0.4050 C.ar  201  TRP201      0.0012
     20  CZ2       27.0410   63.0780    1.0850 C.ar  201  TRP201      0.0191
     21  CZ3       25.7660   61.4110   -0.1190 C.ar  201  TRP201      0.0001
     22  CH2       26.9860   62.0110    0.2270 C.ar  201  TRP201      0.0015
     23  N         21.5450   57.1740    8.2340 N.3   236  ASP236     -0.1239
     24  CA        22.4180   58.1540    8.8780 C.3   236  ASP236      0.1674
     25  C         21.5670   59.2120    9.5730 C.2   236  ASP236      0.2266
     26  O         20.6650   59.7960    8.9620 O.2   236  ASP236     -0.2867
     27  CB        23.3450   58.7750    7.8160 C.3   236  ASP236      0.1410
     28  CG        24.1770   59.9540    8.3370 C.2   236  ASP236      0.3668
     29  OD1       25.3350   60.1400    7.8880 O.co2 236  ASP236     -0.2456
     30  OD2       23.6710   60.7050    9.1750 O.co2 236  ASP236     -0.2456
     31  N         21.1970   62.7040   10.7120 N.3   238  ALA238     -0.1231
     32  CA        21.7670   63.9580   10.1970 C.3   238  ALA238      0.1694
     33  C         22.4750   64.7540   11.2830 C.2   238  ALA238      0.2592
     34  O         21.8720   65.0510   12.3220 O.2   238  ALA238     -0.2718
     35  CB        20.6660   64.8050    9.5690 C.3   238  ALA238      0.0304
     36  N         23.7510   65.0660   11.0430 N.am  239  ARG239     -0.1966
     37  CA        24.5670   65.9120   11.9330 C.3   239  ARG239      0.1729
     38  C         24.7860   65.3100   13.3220 C.2   239  ARG239      0.2616
     39  O         25.0980   66.0320   14.2630 O.2   239  ARG239     -0.2715
     40  CB        23.9140   67.3130   12.1160 C.3   239  ARG239      0.0348
     41  CG        24.0610   68.1700   10.8720 C.3   239  ARG239      0.0492
     42  CD        23.7280   69.6360   11.2120 C.3   239  ARG239      0.2205
     43  NE        23.7230   70.3540    9.9010 N.pl3 239  ARG239     -0.0865
     44  CZ        23.2330   71.5690    9.7850 C.cat 239  ARG239      0.5346
     45  NH1       22.6580   72.2230   10.8180 N.pl3 239  ARG239      0.1354
     46  NH2       23.2220   72.1780    8.5930 N.pl3 239  ARG239      0.1354
     47  N         24.6240   63.9910   13.4390 N.am  240  SER240     -0.1950
     48  CA        24.5300   63.3070   14.7330 C.3   240  SER240      0.1924
     49  C         23.5900   64.0510   15.6830 C.2   240  SER240      0.2314
     50  O         23.8240   64.0900   16.8910 O.2   240  SER240     -0.2863
     51  CB        25.9160   63.1430   15.3700 C.3   240  SER240      0.2116
     52  OG        26.8430   62.6140   14.4360 O.3   240  SER240     -0.2180
     53  N         18.7220   60.4480    6.9690 N.3   248  ILE248     -0.1245
     54  CA        19.1210   60.5770    5.5820 C.3   248  ILE248      0.1561
     55  C         19.9280   59.3620    5.1130 C.2   248  ILE248      0.2260
     56  O         20.3140   58.5200    5.9220 O.2   248  ILE248     -0.2867
     57  CB        19.9570   61.8610    5.3590 C.3   248  ILE248      0.0252
     58  CG1       21.3090   61.7760    6.0710 C.3   248  ILE248      0.0019
     59  CG2       19.1740   63.0850    5.8250 C.3   248  ILE248      0.0019
     60  CD1       22.2410   62.9340    5.7820 C.3   248  ILE248      0.0001
     61  N         23.3750   58.4370    3.3530 N.3   250  HIS250     -0.1241
     62  CA        24.6470   59.1320    3.2710 C.3   250  HIS250      0.1621
     63  C         25.7660   58.2090    2.8180 C.2   250  HIS250      0.2264
     64  O         25.6200   56.9970    2.8240 O.2   250  HIS250     -0.2867
     65  CB        24.9600   59.7040    4.6580 C.3   250  HIS250      0.0745
     66  CG        26.0550   60.7200    4.6690 C.ar  250  HIS250      0.0817
     67  ND1       27.3820   60.3810    4.8240 N.ar  250  HIS250     -0.2268
     68  CD2       26.0220   62.0670    4.5610 C.ar  250  HIS250      0.1154
     69  CE1       28.1200   61.4770    4.8050 C.ar  250  HIS250      0.1986
     70  NE2       27.3190   62.5130    4.6470 N.ar  250  HIS250     -0.2212
     71  N         30.5990   55.9340    6.4690 N.3   253  HIS253     -0.1241
     72  CA        31.8560   56.2080    7.1930 C.3   253  HIS253      0.1621
     73  C         31.9740   55.4710    8.5350 C.2   253  HIS253      0.2264
     74  O         33.0200   55.5300    9.1780 O.2   253  HIS253     -0.2867
     75  CB        32.0960   57.7260    7.3750 C.3   253  HIS253      0.0745
     76  CG        30.9290   58.4670    7.9530 C.ar  253  HIS253      0.0817
     77  ND1       30.3260   58.1060    9.1380 N.ar  253  HIS253     -0.2268
     78  CD2       30.2620   59.5610    7.5140 C.ar  253  HIS253      0.1154
     79  CE1       29.3350   58.9370    9.4040 C.ar  253  HIS253      0.1986
     80  NE2       29.2780   59.8340    8.4360 N.ar  253  HIS253     -0.2212
     81  N         26.5650   57.7910   14.3370 N.3   257  ASN257     -0.1240
     82  CA        25.2910   58.1750   13.7340 C.3   257  ASN257      0.1653
     83  C         24.8780   57.2710   12.5630 C.2   257  ASN257      0.2266
     84  O         23.7560   57.4050   12.0570 O.2   257  ASN257     -0.2867
     85  CB        25.2950   59.6500   13.2960 C.3   257  ASN257      0.1155
     86  CG        26.3580   59.9460   12.2640 C.2   257  ASN257      0.2627
     87  OD1       27.4430   59.3730   12.3060 O.2   257  ASN257     -0.2716
     88  ND2       26.0490   60.8290   11.3230 N.am  257  ASN257     -0.0877
@<TRIPOS>BOND
     1    21    22   ar
     2    21    19   ar
     3    22    20   ar
     4    19    16   ar
     5     9    10    1
     6    10    11    1
     7    10    13    1
     8    11    12    2
     9    20    18   ar
    10    16    18   ar
    11    16    14   ar
    12    18    17   ar
    13     4     3    2
    14    14    13    1
    15    14    15   ar
    16     3     2    1
    17    17    15   ar
    18    63    64    2
    19    63    62    1
    20     2     1    1
    21     2     5    1
    22    62    61    1
    23    62    65    1
    24     5     6    1
    25    68    70   ar
    26    68    66   ar
    27    70    69   ar
    28    65    66    1
    29    66    67   ar
    30    69    67   ar
    31    55    54    1
    32    55    56    2
    33    57    54    1
    34    57    59    1
    35    57    58    1
    36    54    53    1
    37     7     6   ar
    38     6     8   ar
    39    60    58    1
    40    71    72    1
    41    72    75    1
    42    72    73    1
    43    75    76    1
    44    78    76   ar
    45    78    80   ar
    46    27    28    1
    47    27    24    1
    48    29    28   ar
    49    76    77   ar
    50    23    24    1
    51    28    30   ar
    52    80    79   ar
    53    73    74    2
    54    46    44    1
    55    24    25    1
    56    26    25    2
    57    77    79   ar
    58    35    32    1
    59    44    43    2
    60    44    45    1
    61    43    42    1
    62    32    31    1
    63    32    33    1
    64    41    42    1
    65    41    40    1
    66    36    33   am
    67    36    37    1
    68    33    34    2
    69    88    86   am
    70    37    40    1
    71    37    38    1
    72    84    83    2
    73    86    87    2
    74    86    85    1
    75    83    82    1
    76    85    82    1
    77    38    47   am
    78    38    39    2
    79    47    48    1
    80    82    81    1
    81    52    51    1
    82    48    51    1
    83    48    49    1
    84    49    50    2
