@<TRIPOS>MOLECULE
tmp/4hrdY00.pdb
 119 111 0 0 0
SMALL
GASTEIGER

@<TRIPOS>ATOM
      1  N         57.0460 -153.6830    8.2270 N.3     1  THR1       -0.1218
      2  CA        57.1660 -154.3860    6.9510 C.3     1  THR1        0.1862
      3  C         56.5510 -153.6590    5.7700 C.2     1  THR1        0.2287
      4  O         55.4630 -153.1070    5.8710 O.2     1  THR1       -0.2866
      5  CB        56.5460 -155.7650    7.0910 C.3     1  THR1        0.1770
      6  OG1       57.1420 -156.3640    8.2340 O.3     1  THR1       -0.2211
      7  CG2       56.7980 -156.6560    5.8900 C.3     1  THR1        0.0375
      8  N         63.2070 -154.5100    8.0180 N.3    19  ARG19      -0.1231
      9  CA        63.0190 -153.8720    9.3230 C.3    19  ARG19       0.1694
     10  C         62.0780 -154.6620   10.2360 C.2    19  ARG19       0.2592
     11  O         61.0580 -155.1820    9.7940 O.2    19  ARG19      -0.2718
     12  CB        62.5250 -152.4250    9.1710 C.3    19  ARG19       0.0321
     13  CG        62.4430 -151.6600   10.4900 C.3    19  ARG19       0.0489
     14  CD        62.3380 -150.1630   10.2860 C.3    19  ARG19       0.2205
     15  NE        63.5940 -149.5920    9.8050 N.pl3  19  ARG19      -0.0865
     16  CZ        63.8390 -148.2890    9.6970 C.cat  19  ARG19       0.5346
     17  NH1       62.9150 -147.4000   10.0410 N.pl3  19  ARG19       0.1354
     18  NH2       65.0140 -147.8740    9.2450 N.pl3  19  ARG19       0.1354
     19  N         62.4560 -154.7560   11.5060 N.am   20  ALA20      -0.1966
     20  CA        61.6080 -155.3180   12.5430 C.3    20  ALA20       0.1728
     21  C         61.4740 -154.2840   13.6470 C.2    20  ALA20       0.2617
     22  O         62.4740 -153.7730   14.1460 O.2    20  ALA20      -0.2715
     23  CB        62.2020 -156.6040   13.0790 C.3    20  ALA20       0.0334
     24  N         60.2370 -153.9630   14.0150 N.am   21  THR21      -0.1937
     25  CA        59.9940 -152.9310   15.0230 C.3    21  THR21       0.2028
     26  C         59.2560 -153.4580   16.2440 C.2    21  THR21       0.2642
     27  O         58.4750 -154.4030   16.1540 O.2    21  THR21      -0.2714
     28  CB        59.2170 -151.7070   14.4550 C.3    21  THR21       0.1808
     29  OG1       57.9300 -152.1210   13.9860 O.3    21  THR21      -0.2208
     30  CG2       59.9820 -151.0350   13.3190 C.3    21  THR21       0.0379
     31  N         59.5360 -152.8430   17.3880 N.am   22  ALA22      -0.1963
     32  CA        58.7520 -153.0280   18.6010 C.3    22  ALA22       0.1728
     33  C         58.3190 -151.6370   19.0430 C.2    22  ALA22       0.2616
     34  O         59.0560 -150.9390   19.7450 O.2    22  ALA22      -0.2715
     35  CB        59.5800 -153.7100   19.6750 C.3    22  ALA22       0.0334
     36  N         57.1310 -151.2300   18.6060 N.am   23  GLY23      -0.1955
     37  CA        56.6750 -149.8540   18.7830 C.3    23  GLY23       0.1869
     38  C         57.4680 -148.9280   17.8770 C.2    23  GLY23       0.2309
     39  O         57.4560 -149.0840   16.6540 O.2    23  GLY23      -0.2863
     40  N         63.9000 -152.8490   16.1670 N.3    27  ALA27      -0.1245
     41  CA        64.4400 -154.0270   16.8400 C.3    27  ALA27       0.1562
     42  C         65.4900 -154.7340   15.9950 C.2    27  ALA27       0.2260
     43  O         66.4070 -155.3590   16.5300 O.2    27  ALA27      -0.2867
     44  CB        63.3180 -154.9840   17.2220 C.3    27  ALA27       0.0290
     45  N         66.2290 -158.5700    8.9350 N.3    31  VAL31      -0.1245
     46  CA        65.3390 -159.7270    9.0310 C.3    31  VAL31       0.1561
     47  C         65.0500 -160.3330    7.6620 C.2    31  VAL31       0.2260
     48  O         64.6450 -159.6310    6.7350 O.2    31  VAL31      -0.2867
     49  CB        64.0080 -159.3760    9.7600 C.3    31  VAL31       0.0252
     50  CG1       62.9730 -160.4860    9.5980 C.3    31  VAL31       0.0019
     51  CG2       64.2620 -159.1290   11.2290 C.3    31  VAL31       0.0019
     52  N         62.6610 -161.8430    5.4580 N.3    33  LYS33      -0.1245
     53  CA        61.1980 -161.8590    5.3840 C.3    33  LYS33       0.1561
     54  C         60.6570 -162.7530    4.2720 C.2    33  LYS33       0.2260
     55  O         59.4480 -162.7810    4.0180 O.2    33  LYS33      -0.2867
     56  CB        60.6410 -160.4400    5.2550 C.3    33  LYS33       0.0271
     57  CG        60.5780 -159.7020    6.5730 C.3    33  LYS33       0.0035
     58  CD        60.1250 -158.2780    6.3840 C.3    33  LYS33       0.0206
     59  CE        60.6120 -157.4260    7.5270 C.3    33  LYS33       0.1093
     60  NZ        60.1160 -156.0390    7.4360 N.3    33  LYS33      -0.1314
     61  N         56.6470 -162.6170    4.7070 N.3    45  MET45      -0.1230
     62  CA        56.1850 -162.4280    6.0860 C.3    45  MET45       0.1702
     63  C         55.8920 -160.9630    6.4090 C.2    45  MET45       0.2592
     64  O         56.7350 -160.0900    6.1750 O.2    45  MET45      -0.2718
     65  CB        57.2140 -162.9880    7.0760 C.3    45  MET45       0.0401
     66  CG        57.9640 -164.2180    6.5740 C.3    45  MET45       0.0596
     67  SD        58.8830 -165.1230    7.8310 S.3    45  MET45      -0.1393
     68  CE        60.0110 -163.8730    8.4480 C.3    45  MET45       0.0692
     69  N         54.6960 -160.7030    6.9380 N.am   46  ALA46      -0.1966
     70  CA        54.3140 -159.3690    7.4170 C.3    46  ALA46       0.1728
     71  C         53.3770 -159.4770    8.6100 C.2    46  ALA46       0.2617
     72  O         52.5250 -160.3650    8.6570 O.2    46  ALA46      -0.2715
     73  CB        53.6660 -158.5590    6.3100 C.3    46  ALA46       0.0334
     74  N         53.5320 -158.5610    9.5640 N.am   47  GLY47      -0.1940
     75  CA        52.7710 -158.6000   10.8130 C.3    47  GLY47       0.2014
     76  C         53.6580 -159.0800   11.9440 C.2    47  GLY47       0.2639
     77  O         54.8410 -158.7370   11.9930 O.2    47  GLY47      -0.2714
     78  N         53.0900 -159.8810   12.8440 N.am   48  GLY48      -0.1939
     79  CA        53.8340 -160.4540   13.9710 C.3    48  GLY48       0.2014
     80  C         54.9880 -161.3160   13.5000 C.2    48  GLY48       0.2639
     81  O         54.8000 -162.2310   12.6930 O.2    48  GLY48      -0.2714
     82  N         56.1840 -161.0140   14.0050 N.am   49  ALA49      -0.1963
     83  CA        57.4240 -161.6520   13.5500 C.3    49  ALA49       0.1728
     84  C         57.4470 -163.1460   13.8420 C.2    49  ALA49       0.2616
     85  O         57.6950 -163.9480   12.9430 O.2    49  ALA49      -0.2715
     86  CB        58.6290 -160.9700   14.1690 C.3    49  ALA49       0.0334
     87  N         57.1760 -163.5050   15.0950 N.am   50  ALA50      -0.1977
     88  CA        57.1380 -164.8990   15.5260 C.3    50  ALA50       0.1597
     89  C         56.0000 -165.6590   14.8600 C.2    50  ALA50       0.2287
     90  O         56.2220 -166.7430   14.3310 O.2    50  ALA50      -0.2864
     91  CB        57.0290 -164.9870   17.0340 C.3    50  ALA50       0.0319
     92  N         48.5730 -162.4540   14.2020 N.3    96  SER96      -0.1217
     93  CA        48.7350 -161.3050   13.3260 C.3    96  SER96       0.1889
     94  C         49.7310 -161.6170   12.2240 C.2    96  SER96       0.2288
     95  O         50.9440 -161.6260   12.4490 O.2    96  SER96      -0.2866
     96  CB        49.1780 -160.0800   14.1320 C.3    96  SER96       0.2089
     97  OG        49.7620 -159.0950   13.2970 O.3    96  SER96      -0.2183
     98  N         51.5970 -155.2770    4.3380 N.3   130  GLY130     -0.1210
     99  CA        52.3530 -154.6710    5.4280 C.3   130  GLY130      0.1956
    100  C         51.9510 -153.2290    5.6530 C.2   130  GLY130      0.2612
    101  O         51.1250 -152.6860    4.9210 O.2   130  GLY130     -0.2717
    102  N         52.5480 -152.6090    6.6680 N.am  131  SER131     -0.1952
    103  CA        52.2480 -151.2230    7.0370 C.3   131  SER131      0.1924
    104  C         52.6070 -150.2270    5.9360 C.2   131  SER131      0.2314
    105  O         51.9930 -149.1650    5.8400 O.2   131  SER131     -0.2863
    106  CB        52.9770 -150.8500    8.3270 C.3   131  SER131      0.2116
    107  OG        54.3760 -151.0450    8.1860 O.3   131  SER131     -0.2180
    108  N         58.0280 -147.4710    9.6700 N.3   170  TYR170     -0.1241
    109  CA        58.1520 -148.8520   10.1100 C.3   170  TYR170      0.1605
    110  C         58.6720 -149.7840    9.0080 C.2   170  TYR170      0.2264
    111  O         58.6270 -151.0100    9.1460 O.2   170  TYR170     -0.2867
    112  CB        56.8150 -149.3400   10.6700 C.3   170  TYR170      0.0534
    113  CG        56.2850 -148.4830   11.7980 C.ar  170  TYR170     -0.0201
    114  CD1       57.1200 -148.0600   12.8330 C.ar  170  TYR170     -0.0009
    115  CD2       54.9470 -148.1050   11.8410 C.ar  170  TYR170     -0.0009
    116  CE1       56.6400 -147.2760   13.8730 C.ar  170  TYR170      0.0417
    117  CE2       54.4560 -147.3230   12.8840 C.ar  170  TYR170      0.0417
    118  CZ        55.3100 -146.9140   13.8940 C.ar  170  TYR170      0.1957
    119  OH        54.8350 -146.1370   14.9270 O.3   170  TYR170     -0.2866
@<TRIPOS>BOND
     1    55    54    2
     2    54    53    1
     3    98    99    1
     4    61    62    1
     5   101   100    2
     6    56    53    1
     7    56    57    1
     8    53    52    1
     9    99   100    1
    10   100   102   am
    11     3     4    2
    12     3     2    1
    13   105   104    2
    14     7     5    1
    15   104   103    1
    16    62    63    1
    17    62    65    1
    18    64    63    2
    19    73    70    1
    20    58    57    1
    21    58    59    1
    22    63    69   am
    23    66    65    1
    24    66    67    1
    25   102   103    1
    26    48    47    2
    27    69    70    1
    28     2     5    1
    29     2     1    1
    30   103   106    1
    31     5     6    1
    32    70    71    1
    33    60    59    1
    34    47    46    1
    35    67    68    1
    36     8     9    1
    37   107   106    1
    38    71    72    2
    39    71    74   am
    40    45    46    1
    41   110   111    2
    42   110   109    1
    43    46    49    1
    44    12     9    1
    45    12    13    1
    46    18    16    1
    47     9    10    1
    48    74    75    1
    49    50    49    1
    50   108   109    1
    51    16    15    2
    52    16    17    1
    53    49    51    1
    54    11    10    2
    55    15    14    1
    56   109   112    1
    57    10    19   am
    58    14    13    1
    59   112   113    1
    60    75    76    1
    61    19    20    1
    62   113   115   ar
    63   113   114   ar
    64   115   117   ar
    65    76    77    2
    66    76    78   am
    67    94    95    2
    68    94    93    1
    69    20    23    1
    70    20    21    1
    71    81    80    2
    72   114   116   ar
    73    78    79    1
    74   117   118   ar
    75    85    84    2
    76    97    96    1
    77    30    28    1
    78    93    96    1
    79    93    92    1
    80    80    79    1
    81    80    82   am
    82    83    84    1
    83    83    82    1
    84    83    86    1
    85    21    24   am
    86    21    22    2
    87    84    87   am
    88   116   118   ar
    89   118   119    1
    90    29    28    1
    91    24    25    1
    92    90    89    2
    93    28    25    1
    94    89    88    1
    95    25    26    1
    96    87    88    1
    97    88    91    1
    98    42    43    2
    99    42    41    1
   100    27    26    2
   101    40    41    1
   102    26    31   am
   103    39    38    2
   104    41    44    1
   105    31    32    1
   106    38    37    1
   107    32    33    1
   108    32    35    1
   109    36    37    1
   110    36    33   am
   111    33    34    2
