@<TRIPOS>MOLECULE
tmp/4hrdH00.pdb
 125 116 0 0 0
SMALL
GASTEIGER

@<TRIPOS>ATOM
      1  N         64.0920 -139.2000   44.8700 N.3     1  THR1       -0.1218
      2  CA        64.9070 -138.5230   45.8410 C.3     1  THR1        0.1862
      3  C         65.0370 -139.2410   47.1710 C.2     1  THR1        0.2287
      4  O         64.1500 -139.9930   47.5460 O.2     1  THR1       -0.2866
      5  CB        64.2440 -137.1810   46.0390 C.3     1  THR1        0.1770
      6  OG1       64.0730 -136.5010   44.8010 O.3     1  THR1       -0.2211
      7  CG2       65.0440 -136.2880   46.9670 C.3     1  THR1        0.0375
      8  N         70.3510 -137.2080   42.5200 N.3    19  ARG19      -0.1231
      9  CA        69.8010 -137.9230   41.3650 C.3    19  ARG19       0.1694
     10  C         68.4630 -137.3480   40.9240 C.2    19  ARG19       0.2593
     11  O         67.6100 -137.0280   41.7440 O.2    19  ARG19      -0.2718
     12  CB        69.6540 -139.4240   41.6400 C.3    19  ARG19       0.0321
     13  CG        69.0180 -140.2060   40.4820 C.3    19  ARG19       0.0489
     14  CD        69.0350 -141.7040   40.7110 C.3    19  ARG19       0.2205
     15  NE        70.3830 -142.2560   40.5880 N.pl3  19  ARG19      -0.0865
     16  CZ        70.6710 -143.5540   40.6200 C.cat  19  ARG19       0.5346
     17  NH1       69.7050 -144.4530   40.7690 N.pl3  19  ARG19       0.1354
     18  NH2       71.9300 -143.9550   40.5020 N.pl3  19  ARG19       0.1354
     19  N         68.3000 -137.2420   39.6120 N.am   20  SER20      -0.1938
     20  CA        67.0630 -136.8090   38.9920 C.3    20  SER20       0.2055
     21  C         66.6990 -137.8490   37.9310 C.2    20  SER20       0.2644
     22  O         67.5640 -138.2750   37.1690 O.2    20  SER20      -0.2714
     23  CB        67.2660 -135.4080   38.4040 C.3    20  SER20       0.2130
     24  OG        66.7200 -135.2670   37.1070 O.3    20  SER20      -0.2179
     25  N         65.4400 -138.2840   37.8980 N.am   21  THR21      -0.1936
     26  CA        65.0360 -139.3560   36.9780 C.3    21  THR21       0.2028
     27  C         63.8720 -139.0040   36.0520 C.2    21  THR21       0.2642
     28  O         63.0250 -138.1740   36.3800 O.2    21  THR21      -0.2714
     29  CB        64.6840 -140.6870   37.7140 C.3    21  THR21       0.1808
     30  OG1       63.5440 -140.4970   38.5650 O.3    21  THR21      -0.2208
     31  CG2       65.8590 -141.2070   38.5280 C.3    21  THR21       0.0379
     32  N         63.8650 -139.6570   34.8900 N.am   22  GLN22      -0.1963
     33  CA        62.7480 -139.6720   33.9490 C.3    22  GLN22       0.1733
     34  C         62.3710 -141.1320   33.7360 C.2    22  GLN22       0.2616
     35  O         62.9710 -141.8190   32.9000 O.2    22  GLN22      -0.2715
     36  CB        63.1680 -139.0580   32.6130 C.3    22  GLN22       0.0408
     37  CG        63.0300 -137.5550   32.5290 C.3    22  GLN22       0.0908
     38  CD        61.7350 -137.1140   31.8590 C.2    22  GLN22       0.2608
     39  OE1       61.7220 -136.1420   31.0990 O.2    22  GLN22      -0.2717
     40  NE2       60.6430 -137.8270   32.1330 N.am   22  GLN22      -0.0878
     41  N         61.3910 -141.6100   34.5000 N.am   23  GLY23      -0.1955
     42  CA        61.0750 -143.0350   34.5290 C.3    23  GLY23       0.1869
     43  C         62.2640 -143.8340   35.0470 C.2    23  GLY23       0.2309
     44  O         62.8000 -143.5220   36.1140 O.2    23  GLY23      -0.2863
     45  N         67.9650 -138.6110   34.6060 N.3    27  ALA27      -0.1245
     46  CA        67.9160 -137.3420   33.8860 C.3    27  ALA27       0.1562
     47  C         69.0800 -136.4210   34.2510 C.2    27  ALA27       0.2260
     48  O         69.6510 -135.7760   33.3720 O.2    27  ALA27      -0.2867
     49  CB        66.5800 -136.6490   34.1170 C.3    27  ALA27       0.0290
     50  N         72.1290 -132.8490   40.4420 N.3    31  CYS31      -0.1235
     51  CA        71.2610 -131.6750   40.5950 C.3    31  CYS31       0.1677
     52  C         71.1130 -131.2440   42.0550 C.2    31  CYS31       0.2270
     53  O         71.2380 -132.0590   42.9690 O.2    31  CYS31      -0.2867
     54  CB        69.8860 -131.9090   39.9600 C.3    31  CYS31       0.0956
     55  SG        68.8080 -133.0180   40.8750 S.3    31  CYS31      -0.0801
     56  N         69.0870 -130.1810   45.1700 N.3    33  LYS33      -0.1245
     57  CA        67.7640 -130.3020   45.7730 C.3    33  LYS33       0.1561
     58  C         67.6170 -129.4220   47.0150 C.2    33  LYS33       0.2260
     59  O         66.5310 -129.3230   47.5960 O.2    33  LYS33      -0.2867
     60  CB        67.4690 -131.7650   46.1000 C.3    33  LYS33       0.0271
     61  CG        67.5100 -132.6630   44.8820 C.3    33  LYS33       0.0035
     62  CD        67.2230 -134.0920   45.2400 C.3    33  LYS33       0.0206
     63  CE        67.6230 -135.0140   44.1090 C.3    33  LYS33       0.1093
     64  NZ        67.1600 -136.4140   44.3310 N.3    33  LYS33      -0.1314
     65  N         67.4390 -125.7890   48.4850 N.3    35  HIS35      -0.1241
     66  CA        67.0190 -124.4860   47.9760 C.3    35  HIS35       0.1621
     67  C         67.0520 -123.4090   49.0510 C.2    35  HIS35       0.2264
     68  O         66.5880 -123.6180   50.1710 O.2    35  HIS35      -0.2867
     69  CB        65.6110 -124.5670   47.3900 C.3    35  HIS35       0.0745
     70  CG        65.4330 -125.6440   46.3650 C.ar   35  HIS35       0.0817
     71  ND1       65.9460 -125.5530   45.0880 N.ar   35  HIS35      -0.2268
     72  CD2       64.7800 -126.8300   46.4240 C.ar   35  HIS35       0.1154
     73  CE1       65.6270 -126.6410   44.4090 C.ar   35  HIS35       0.1986
     74  NE2       64.9190 -127.4310   45.1960 N.ar   35  HIS35      -0.2212
     75  N         64.0320 -130.4640   48.6840 N.3    45  GLY45      -0.1210
     76  CA        62.9100 -130.7340   47.7910 C.3    45  GLY45       0.1956
     77  C         62.8570 -132.1400   47.2350 C.2    45  GLY45       0.2612
     78  O         63.8510 -132.6490   46.7170 O.2    45  GLY45      -0.2717
     79  N         61.6830 -132.7590   47.3450 N.am   46  ALA46      -0.1965
     80  CA        61.4090 -134.0740   46.7660 C.3    46  ALA46       0.1728
     81  C         60.0600 -134.0510   46.0450 C.2    46  ALA46       0.2617
     82  O         59.1590 -133.2990   46.4280 O.2    46  ALA46      -0.2715
     83  CB        61.4150 -135.1390   47.8470 C.3    46  ALA46       0.0334
     84  N         59.9250 -134.8750   45.0070 N.am   47  GLY47      -0.1940
     85  CA        58.6940 -134.9310   44.2150 C.3    47  GLY47       0.2014
     86  C         58.9160 -134.4830   42.7830 C.2    47  GLY47       0.2640
     87  O         59.8720 -134.9060   42.1410 O.2    47  GLY47      -0.2714
     88  N         58.0300 -133.6260   42.2810 N.am   48  THR48      -0.1936
     89  CA        58.1410 -133.1120   40.9190 C.3    48  THR48       0.2028
     90  C         59.1570 -131.9780   40.8820 C.2    48  THR48       0.2642
     91  O         58.9790 -130.9540   41.5390 O.2    48  THR48      -0.2714
     92  CB        56.7720 -132.6570   40.3740 C.3    48  THR48       0.1808
     93  OG1       55.8430 -133.7430   40.4600 O.3    48  THR48      -0.2208
     94  CG2       56.8790 -132.2150   38.9180 C.3    48  THR48       0.0379
     95  N         60.2200 -132.1800   40.1080 N.am   49  ALA49      -0.1963
     96  CA        61.3800 -131.2830   40.0890 C.3    49  ALA49       0.1728
     97  C         61.0320 -129.8220   39.8340 C.2    49  ALA49       0.2616
     98  O         61.4690 -128.9450   40.5810 O.2    49  ALA49      -0.2715
     99  CB        62.4110 -131.7660   39.0810 C.3    49  ALA49       0.0334
    100  N         60.2510 -129.5650   38.7860 N.am   50  ALA50      -0.1977
    101  CA        59.8190 -128.2080   38.4680 C.3    50  ALA50       0.1597
    102  C         58.9600 -127.6300   39.5820 C.2    50  ALA50       0.2287
    103  O         59.0500 -126.4450   39.8770 O.2    50  ALA50      -0.2864
    104  CB        59.0720 -128.1770   37.1560 C.3    50  ALA50       0.0319
    105  N         58.9870 -128.3740   42.9850 N.3    52  THR52      -0.1218
    106  CA        59.7870 -128.0210   44.1620 C.3    52  THR52       0.1862
    107  C         60.5900 -126.7450   43.9390 C.2    52  THR52       0.2287
    108  O         60.7000 -125.9190   44.8420 O.2    52  THR52      -0.2866
    109  CB        60.7490 -129.1550   44.5980 C.3    52  THR52       0.1770
    110  OG1       61.6630 -129.4510   43.5370 O.3    52  THR52      -0.2211
    111  CG2       59.9770 -130.4110   44.9680 C.3    52  THR52       0.0375
    112  N         60.7450 -138.6430   50.3570 N.3   128  GLY128     -0.1210
    113  CA        61.1900 -139.1400   49.0570 C.3   128  GLY128      0.1956
    114  C         61.0940 -140.6480   48.9630 C.2   128  GLY128      0.2612
    115  O         60.6680 -141.3030   49.9120 O.2   128  GLY128     -0.2717
    116  N         61.4820 -141.2020   47.8160 N.am  129  SER129     -0.1952
    117  CA        61.4550 -142.6540   47.6130 C.3   129  SER129      0.1924
    118  C         62.4550 -143.3780   48.5150 C.2   129  SER129      0.2314
    119  O         62.2150 -144.5150   48.9270 O.2   129  SER129     -0.2863
    120  CB        61.6920 -143.0140   46.1420 C.3   129  SER129      0.2116
    121  OG        62.9430 -142.5310   45.6900 O.3   129  SER129     -0.2180
    122  N         65.7340 -144.8410   43.1440 N.3   168  GLY168     -0.1225
    123  CA        65.3970 -143.4600   42.8120 C.3   168  GLY168      0.1811
    124  C         66.3000 -142.4630   43.5090 C.2   168  GLY168      0.2280
    125  O         65.9490 -141.2900   43.6460 O.2   168  GLY168     -0.2866
@<TRIPOS>BOND
     1    39    38    2
     2    38    40   am
     3    38    37    1
     4    37    36    1
     5    36    33    1
     6    35    34    2
     7    48    47    2
     8    34    33    1
     9    34    41   am
    10    46    49    1
    11    46    47    1
    12    46    45    1
    13    33    32    1
    14    41    42    1
    15    42    43    1
    16    32    27   am
    17    43    44    2
    18    27    28    2
    19    27    26    1
    20    26    29    1
    21    26    25    1
    22    24    23    1
    23   104   101    1
    24    22    21    2
    25    29    31    1
    26    29    30    1
    27    25    21   am
    28    21    20    1
    29    23    20    1
    30   101   100    1
    31   101   102    1
    32   100    97   am
    33    94    92    1
    34    20    19    1
    35    99    96    1
    36   102   103    2
    37    19    10   am
    38    97    96    1
    39    97    98    2
    40    54    51    1
    41    54    55    1
    42    96    95    1
    43    95    90   am
    44    92    93    1
    45    92    89    1
    46    50    51    1
    47    13    14    1
    48    13    12    1
    49    18    16    1
    50    15    16    2
    51    15    14    1
    52    51    52    1
    53    16    17    1
    54    90    89    1
    55    90    91    2
    56    89    88    1
    57    10     9    1
    58    10    11    2
    59     9    12    1
    60     9     8    1
    61    52    53    2
    62    87    86    2
    63    88    86   am
    64    86    85    1
    65   123   122    1
    66   123   124    1
    67   105   106    1
    68   124   125    2
    69   110   109    1
    70   107   106    1
    71   107   108    2
    72    63    64    1
    73    63    62    1
    74   106   109    1
    75    85    84    1
    76    73    71   ar
    77    73    74   ar
    78   109   111    1
    79     6     5    1
    80     1     2    1
    81    61    62    1
    82    61    60    1
    83    84    81   am
    84    71    70   ar
    85    56    57    1
    86    74    72   ar
    87   121   120    1
    88    57    60    1
    89    57    58    1
    90     2     5    1
    91     2     3    1
    92     5     7    1
    93    81    82    2
    94    81    80    1
    95   120   117    1
    96    70    72   ar
    97    70    69    1
    98    78    77    2
    99    80    79    1
   100    80    83    1
   101    58    59    2
   102     3     4    2
   103    77    79   am
   104    77    76    1
   105    69    66    1
   106   117   116    1
   107   117   118    1
   108    76    75    1
   109   116   114   am
   110    66    65    1
   111    66    67    1
   112   118   119    2
   113   114   113    1
   114   114   115    2
   115    67    68    2
   116   113   112    1
