@<TRIPOS>MOLECULE
tmp/4hrdN00.pdb
 123 113 0 0 0
SMALL
GASTEIGER

@<TRIPOS>ATOM
      1  N         44.0520 -142.8550   63.0010 N.3     1  THR1       -0.1218
      2  CA        43.8060 -142.1740   64.2680 C.3     1  THR1        0.1862
      3  C         42.9710 -142.9850   65.2370 C.2     1  THR1        0.2287
      4  O         41.9030 -143.4750   64.9030 O.2     1  THR1       -0.2866
      5  CB        43.1540 -140.8280   63.9690 C.3     1  THR1        0.1770
      6  OG1       44.0130 -140.1420   63.0640 O.3     1  THR1       -0.2211
      7  CG2       42.9880 -139.9620   65.2090 C.3     1  THR1        0.0375
      8  N         49.9070 -141.2880   65.7830 N.3    19  ARG19      -0.1231
      9  CA        50.2850 -141.9390   64.5300 C.3    19  ARG19       0.1694
     10  C         49.6500 -141.2790   63.2990 C.2    19  ARG19       0.2593
     11  O         48.4460 -141.0300   63.2720 O.2    19  ARG19      -0.2718
     12  CB        49.9100 -143.4230   64.5980 C.3    19  ARG19       0.0321
     13  CG        50.3640 -144.2710   63.4240 C.3    19  ARG19       0.0489
     14  CD        50.1240 -145.7530   63.6940 C.3    19  ARG19       0.2205
     15  NE        51.1650 -146.3320   64.5430 N.pl3  19  ARG19      -0.0865
     16  CZ        51.2180 -147.6070   64.9210 C.cat  19  ARG19       0.5346
     17  NH1       50.2850 -148.4680   64.5370 N.pl3  19  ARG19       0.1354
     18  NH2       52.2130 -148.0260   65.6890 N.pl3  19  ARG19       0.1354
     19  N         50.4700 -140.9800   62.2930 N.am   20  THR20      -0.1939
     20  CA        49.9620 -140.6240   60.9670 C.3    20  THR20       0.2028
     21  C         50.4990 -141.6170   59.9410 C.2    20  THR20       0.2643
     22  O         51.6640 -142.0150   60.0130 O.2    20  THR20      -0.2714
     23  CB        50.3080 -139.1660   60.5340 C.3    20  THR20       0.1808
     24  OG1       51.6930 -139.0670   60.1860 O.3    20  THR20      -0.2208
     25  CG2       50.0050 -138.1830   61.6350 C.3    20  THR20       0.0379
     26  N         49.6510 -142.0100   58.9910 N.am   21  THR21      -0.1936
     27  CA        50.0050 -143.0550   58.0280 C.3    21  THR21       0.2028
     28  C         49.6670 -142.7400   56.5690 C.2    21  THR21       0.2642
     29  O         48.7620 -141.9540   56.2800 O.2    21  THR21      -0.2714
     30  CB        49.3440 -144.4110   58.3850 C.3    21  THR21       0.1808
     31  OG1       47.9680 -144.2070   58.7390 O.3    21  THR21      -0.2208
     32  CG2       50.0710 -145.0850   59.5350 C.3    21  THR21       0.0379
     33  N         50.4390 -143.3500   55.6700 N.am   22  THR22      -0.1950
     34  CA        50.0690 -143.5400   54.2710 C.3    22  THR22       0.1897
     35  C         50.0050 -145.0420   54.0580 C.2    22  THR22       0.2313
     36  O         51.0360 -145.7010   53.8870 O.2    22  THR22      -0.2863
     37  CB        51.1130 -142.9690   53.2940 C.3    22  THR22       0.1794
     38  OG1       52.4260 -143.3520   53.7210 O.3    22  THR22      -0.2208
     39  CG2       51.0260 -141.4640   53.2320 C.3    22  THR22       0.0378
     40  N         54.1210 -142.4570   58.8020 N.3    27  ALA27      -0.1245
     41  CA        54.7780 -141.2240   58.3640 C.3    27  ALA27       0.1562
     42  C         55.3210 -140.3980   59.5320 C.2    27  ALA27       0.2260
     43  O         56.3690 -139.7610   59.4210 O.2    27  ALA27      -0.2867
     44  CB        53.8250 -140.3940   57.5310 C.3    27  ALA27       0.0290
     45  N         53.0780 -137.5510   66.4430 N.3    31  THR31      -0.1218
     46  CA        52.1710 -136.4670   66.0500 C.3    31  THR31       0.1862
     47  C         51.3620 -135.9020   67.2170 C.2    31  THR31       0.2287
     48  O         50.9390 -136.6400   68.1150 O.2    31  THR31      -0.2866
     49  CB        51.1840 -136.9440   64.9610 C.3    31  THR31       0.1770
     50  OG1       51.9080 -137.6000   63.9170 O.3    31  THR31      -0.2211
     51  CG2       50.4070 -135.7750   64.3650 C.3    31  THR31       0.0375
     52  N         47.9260 -134.5130   67.7270 N.3    33  LYS33      -0.1245
     53  CA        46.5920 -134.3920   67.1410 C.3    33  LYS33       0.1561
     54  C         45.6680 -133.5030   67.9710 C.2    33  LYS33       0.2260
     55  O         44.5300 -133.2370   67.5680 O.2    33  LYS33      -0.2867
     56  CB        45.9620 -135.7740   66.9530 C.3    33  LYS33       0.0271
     57  CG        46.7340 -136.6760   66.0150 C.3    33  LYS33       0.0035
     58  CD        46.1930 -138.0870   66.0350 C.3    33  LYS33       0.0206
     59  CE        47.1630 -139.0280   65.3560 C.3    33  LYS33       0.1093
     60  NZ        46.5310 -140.3170   64.9640 N.3    33  LYS33      -0.1314
     61  N         41.8220 -134.0330   66.1970 N.3    45  ARG45      -0.1231
     62  CA        41.7910 -134.1330   64.7400 C.3    45  ARG45       0.1694
     63  C         41.9420 -135.5670   64.2400 C.2    45  ARG45       0.2593
     64  O         42.8490 -136.2890   64.6560 O.2    45  ARG45      -0.2718
     65  CB        42.8650 -133.2410   64.1150 C.3    45  ARG45       0.0321
     66  CG        42.7520 -131.7680   64.4820 C.3    45  ARG45       0.0489
     67  CD        43.8480 -130.9360   63.8330 C.3    45  ARG45       0.2205
     68  NE        45.1850 -131.2780   64.3200 N.pl3  45  ARG45      -0.0865
     69  CZ        46.0820 -131.9860   63.6380 C.cat  45  ARG45       0.5346
     70  NH1       45.8010 -132.4440   62.4230 N.pl3  45  ARG45       0.1354
     71  NH2       47.2690 -132.2380   64.1770 N.pl3  45  ARG45       0.1354
     72  N         41.0340 -135.9630   63.3480 N.am   46  SER46      -0.1938
     73  CA        41.0940 -137.2560   62.6710 C.3    46  SER46       0.2055
     74  C         40.6650 -137.0910   61.2210 C.2    46  SER46       0.2644
     75  O         39.8940 -136.1810   60.8960 O.2    46  SER46      -0.2714
     76  CB        40.2060 -138.2900   63.3670 C.3    46  SER46       0.2130
     77  OG        38.8320 -138.0640   63.0930 O.3    46  SER46      -0.2179
     78  N         41.1640 -137.9760   60.3600 N.am   47  GLY47      -0.1939
     79  CA        40.8910 -137.9130   58.9280 C.3    47  GLY47       0.2014
     80  C         42.1170 -137.4780   58.1500 C.2    47  GLY47       0.2640
     81  O         43.2210 -137.9520   58.3970 O.2    47  GLY47      -0.2714
     82  N         41.9190 -136.5800   57.1940 N.am   48  SER48      -0.1935
     83  CA        43.0190 -136.0380   56.4140 C.3    48  SER48       0.2055
     84  C         43.8120 -135.0380   57.2510 C.2    48  SER48       0.2643
     85  O         43.2370 -134.1080   57.8280 O.2    48  SER48      -0.2714
     86  CB        42.4850 -135.3720   55.1520 C.3    48  SER48       0.2130
     87  OG        43.4440 -134.4940   54.6000 O.3    48  SER48      -0.2179
     88  N         45.1270 -135.2440   57.3190 N.am   49  ALA49      -0.1963
     89  CA        46.0170 -134.3650   58.0790 C.3    49  ALA49       0.1728
     90  C         45.9780 -132.9470   57.5340 C.2    49  ALA49       0.2616
     91  O         45.7700 -132.0050   58.2890 O.2    49  ALA49      -0.2715
     92  CB        47.4390 -134.8960   58.0710 C.3    49  ALA49       0.0334
     93  N         46.1620 -132.8080   56.2230 N.am   50  ALA50      -0.1977
     94  CA        46.1170 -131.5060   55.5550 C.3    50  ALA50       0.1597
     95  C         44.7760 -130.7920   55.7490 C.2    50  ALA50       0.2287
     96  O         44.7460 -129.5980   56.0550 O.2    50  ALA50      -0.2864
     97  CB        46.4370 -131.6550   54.0800 C.3    50  ALA50       0.0319
     98  N         42.4740 -131.2340   58.1610 N.3    52  THR52      -0.1218
     99  CA        42.2380 -130.8770   59.5640 C.3    52  THR52       0.1862
    100  C         43.1830 -129.7860   60.0670 C.2    52  THR52       0.2287
    101  O         42.8160 -129.0020   60.9350 O.2    52  THR52      -0.2866
    102  CB        42.3010 -132.1020   60.5020 C.3    52  THR52       0.1770
    103  OG1       43.5420 -132.7890   60.3200 O.3    52  THR52      -0.2211
    104  CG2       41.1540 -133.0540   60.2190 C.3    52  THR52       0.0375
    105  N         37.7910 -134.5310   54.1640 N.3    94  THR94      -0.1218
    106  CA        37.7230 -135.7420   54.9720 C.3    94  THR94       0.1862
    107  C         38.2340 -135.3570   56.3560 C.2    94  THR94       0.2287
    108  O         39.4270 -135.4780   56.6440 O.2    94  THR94      -0.2866
    109  CB        38.5780 -136.8870   54.3860 C.3    94  THR94       0.1770
    110  OG1       38.4380 -136.9200   52.9600 O.3    94  THR94      -0.2211
    111  CG2       38.1470 -138.2280   54.9680 C.3    94  THR94       0.0375
    112  N         39.5740 -143.9720   63.3600 N.3   129  SER129     -0.1217
    113  CA        39.4460 -145.3470   62.8810 C.3   129  SER129      0.1889
    114  C         39.5050 -146.3640   64.0210 C.2   129  SER129      0.2288
    115  O         38.8780 -147.4220   63.9440 O.2   129  SER129     -0.2866
    116  CB        40.5230 -145.6610   61.8370 C.3   129  SER129      0.2089
    117  OG        41.8260 -145.6280   62.4000 O.3   129  SER129     -0.2183
    118  N         46.0280 -148.4420   62.6650 N.3   168  SER168     -0.1217
    119  CA        46.1640 -147.0400   62.2650 C.3   168  SER168      0.1889
    120  C         46.3470 -146.1170   63.4700 C.2   168  SER168      0.2288
    121  O         46.3490 -144.8890   63.3370 O.2   168  SER168     -0.2866
    122  CB        44.9550 -146.5990   61.4380 C.3   168  SER168      0.2089
    123  OG        44.8080 -147.4080   60.2870 O.3   168  SER168     -0.2183
@<TRIPOS>BOND
     1   110   109    1
     2    39    37    1
     3    37    38    1
     4    37    34    1
     5    36    35    2
     6    35    34    1
     7    97    94    1
     8   105   106    1
     9    34    33    1
    10   109   111    1
    11   109   106    1
    12    87    86    1
    13   106   107    1
    14    86    83    1
    15    94    95    1
    16    94    93    1
    17    33    28   am
    18    95    96    2
    19    93    90   am
    20    29    28    2
    21   107   108    2
    22    83    82    1
    23    83    84    1
    24    28    27    1
    25    82    80   am
    26    84    88   am
    27    84    85    2
    28    88    89    1
    29    44    41    1
    30    90    89    1
    31    90    91    2
    32    27    30    1
    33    27    26    1
    34    92    89    1
    35    80    81    2
    36    80    79    1
    37    98    99    1
    38    41    40    1
    39    41    42    1
    40    30    31    1
    41    30    32    1
    42    79    78    1
    43    26    21   am
    44    43    42    2
    45    99   100    1
    46    99   102    1
    47    21    22    2
    48    21    20    1
    49   100   101    2
    50    24    23    1
    51   104   102    1
    52   123   122    1
    53   103   102    1
    54    78    74   am
    55    23    20    1
    56    23    25    1
    57    75    74    2
    58    20    19    1
    59    74    73    1
    60   122   119    1
    61   116   117    1
    62   116   113    1
    63   119   118    1
    64   119   120    1
    65    19    10   am
    66    70    69    1
    67    73    72    1
    68    73    76    1
    69   113   112    1
    70   113   114    1
    71     1     2    1
    72     6     5    1
    73    77    76    1
    74    11    10    2
    75    10     9    1
    76   121   120    2
    77    72    63   am
    78    13    14    1
    79    13    12    1
    80    69    71    1
    81    69    68    2
    82    14    15    1
    83    67    68    1
    84    67    66    1
    85    50    49    1
    86   115   114    2
    87     5     2    1
    88     5     7    1
    89    65    66    1
    90    65    62    1
    91    63    64    2
    92    63    62    1
    93     2     3    1
    94    51    49    1
    95     9    12    1
    96     9     8    1
    97    17    16    1
    98    15    16    2
    99    62    61    1
   100     4     3    2
   101    16    18    1
   102    49    46    1
   103    60    59    1
   104    59    58    1
   105    57    58    1
   106    57    56    1
   107    46    45    1
   108    46    47    1
   109    56    53    1
   110    53    52    1
   111    53    54    1
   112    47    48    2
   113    55    54    2
