@<TRIPOS>MOLECULE
tmp/4hreI00.pdb
 114 108 0 0 0
SMALL
GASTEIGER

@<TRIPOS>ATOM
      1  N        -11.5050   31.5650   83.1030 N.3    54  ILE54      -0.1245
      2  CA       -10.5920   31.6530   81.9650 C.3    54  ILE54       0.1561
      3  C        -11.2860   32.1120   80.6780 C.2    54  ILE54       0.2260
      4  O        -10.7400   32.9290   79.9300 O.2    54  ILE54      -0.2867
      5  CB        -9.8540   30.3090   81.7300 C.3    54  ILE54       0.0252
      6  CG1       -8.8950   30.0120   82.8860 C.3    54  ILE54       0.0019
      7  CG2       -9.0870   30.3300   80.4220 C.3    54  ILE54       0.0019
      8  CD1       -7.9180   28.8770   82.6020 C.3    54  ILE54       0.0001
      9  N        -11.6300   35.7290   79.5960 N.3    57  ASP57      -0.1225
     10  CA       -10.3560   36.3210   79.1990 C.3    57  ASP57       0.1805
     11  C         -9.9620   35.9510   77.7690 C.2    57  ASP57       0.2598
     12  O         -9.7430   36.8300   76.9350 O.2    57  ASP57      -0.2718
     13  CB        -9.2390   35.9690   80.1890 C.3    57  ASP57       0.1424
     14  CG        -8.2680   37.1210   80.4080 C.2    57  ASP57       0.3668
     15  OD1       -8.6000   38.2650   80.0290 O.co2  57  ASP57      -0.2456
     16  OD2       -7.1730   36.8810   80.9610 O.co2  57  ASP57      -0.2456
     17  N         -9.8770   34.6450   77.5080 N.am   58  LEU58      -0.1966
     18  CA        -9.1360   34.0760   76.3780 C.3    58  LEU58       0.1728
     19  C         -9.3770   34.7320   75.0320 C.2    58  LEU58       0.2616
     20  O        -10.5200   34.8180   74.5790 O.2    58  LEU58      -0.2715
     21  CB        -9.5680   32.6210   76.1870 C.3    58  LEU58       0.0311
     22  CG        -9.0470   31.5270   77.1010 C.3    58  LEU58       0.0022
     23  CD1       -9.6100   30.1830   76.6590 C.3    58  LEU58       0.0001
     24  CD2       -7.5440   31.5340   77.0500 C.3    58  LEU58       0.0001
     25  N         -8.2840   35.1470   74.3870 N.am   59  ASP59      -0.1957
     26  CA        -8.3140   35.5990   73.0010 C.3    59  ASP59       0.1840
     27  C         -9.4150   36.6300   72.8230 C.2    59  ASP59       0.2621
     28  O         -9.3800   37.7100   73.4150 O.2    59  ASP59      -0.2715
     29  CB        -8.5490   34.3980   72.0870 C.3    59  ASP59       0.1450
     30  CG        -8.4160   34.7280   70.6050 C.2    59  ASP59       0.3671
     31  OD1       -7.6150   35.6190   70.2550 O.co2  59  ASP59      -0.2456
     32  OD2       -9.1200   34.0830   69.7940 O.co2  59  ASP59      -0.2456
     33  N        -10.3950   36.2670   72.0010 N.am   60  GLN60      -0.1977
     34  CA       -11.6200   37.0260   71.8460 C.3    60  GLN60       0.1601
     35  C        -12.8130   36.1600   72.2380 C.2    60  GLN60       0.2287
     36  O        -13.1660   35.2150   71.5320 O.2    60  GLN60      -0.2864
     37  CB       -11.7610   37.4930   70.3980 C.3    60  GLN60       0.0394
     38  CG       -11.6720   38.9930   70.2410 C.3    60  GLN60       0.0908
     39  CD       -12.8000   39.7020   70.9510 C.2    60  GLN60       0.2608
     40  OE1      -13.8840   39.8700   70.3950 O.2    60  GLN60      -0.2717
     41  NE2      -12.5610   40.1080   72.1950 N.am   60  GLN60      -0.0878
     42  N         -7.3850   29.6210   67.5540 N.3    69  GLN69      -0.1245
     43  CA        -6.5400   30.8030   67.7100 C.3    69  GLN69       0.1566
     44  C         -6.7130   31.3240   69.1300 C.2    69  GLN69       0.2260
     45  O         -5.8280   31.9720   69.6930 O.2    69  GLN69      -0.2867
     46  CB        -6.9160   31.8760   66.6780 C.3    69  GLN69       0.0367
     47  CG        -6.0510   33.1310   66.7190 C.3    69  GLN69       0.0905
     48  CD        -6.0970   33.9190   65.4190 C.2    69  GLN69       0.2608
     49  OE1       -5.1010   34.5060   65.0040 O.2    69  GLN69      -0.2717
     50  NE2       -7.2570   33.9340   64.7730 N.am   69  GLN69      -0.0878
     51  N         -3.7950   30.3010   72.8560 N.3    73  SER73      -0.1202
     52  CA        -3.4190   31.3870   73.7510 C.3    73  SER73       0.2020
     53  C         -3.5950   30.9980   75.2310 C.2    73  SER73       0.2618
     54  O         -2.9470   31.5720   76.1150 O.2    73  SER73      -0.2717
     55  CB        -4.1950   32.6620   73.4130 C.3    73  SER73       0.2103
     56  OG        -5.5870   32.4240   73.4100 O.3    73  SER73      -0.2182
     57  N         -4.4720   30.0290   75.4940 N.am   74  LEU74      -0.1979
     58  CA        -4.6480   29.4850   76.8420 C.3    74  LEU74       0.1596
     59  C         -3.3710   28.7940   77.3040 C.2    74  LEU74       0.2287
     60  O         -2.7810   29.1600   78.3250 O.2    74  LEU74      -0.2864
     61  CB        -5.8360   28.5060   76.8690 C.3    74  LEU74       0.0297
     62  CG        -6.3870   27.8900   78.1640 C.3    74  LEU74       0.0022
     63  CD1       -7.8180   27.4310   77.9490 C.3    74  LEU74       0.0001
     64  CD2       -5.5500   26.7090   78.6160 C.3    74  LEU74       0.0001
     65  N         -0.7220   29.1070   75.9720 N.3    76  ALA76      -0.1231
     66  CA         0.3460   30.0830   75.8150 C.3    76  ALA76       0.1694
     67  C          0.5700   30.7580   77.1540 C.2    76  ALA76       0.2593
     68  O          1.6630   30.6950   77.7100 O.2    76  ALA76      -0.2718
     69  CB         0.0110   31.1060   74.7400 C.3    76  ALA76       0.0304
     70  N         -0.4700   31.4190   77.6530 N.am   77  GLY77      -0.1942
     71  CA        -0.4480   31.9910   78.9850 C.3    77  GLY77       0.2014
     72  C          0.0560   31.0120   80.0260 C.2    77  GLY77       0.2638
     73  O          0.9120   31.3570   80.8450 O.2    77  GLY77      -0.2714
     74  N         -0.4540   29.7830   79.9910 N.am   78  LEU78      -0.1977
     75  CA        -0.0250   28.7840   80.9670 C.3    78  LEU78       0.1596
     76  C          1.4520   28.3940   80.8350 C.2    78  LEU78       0.2287
     77  O          2.1490   28.3310   81.8360 O.2    78  LEU78      -0.2864
     78  CB        -0.9320   27.5460   80.9560 C.3    78  LEU78       0.0297
     79  CG        -2.1170   27.6020   81.9320 C.3    78  LEU78       0.0022
     80  CD1       -3.4450   27.7660   81.2120 C.3    78  LEU78       0.0001
     81  CD2       -2.1510   26.3750   82.8320 C.3    78  LEU78       0.0001
     82  N          4.0040   30.0590   79.2590 N.3    80  ILE80      -0.1231
     83  CA         4.8290   31.2160   79.5810 C.3    80  ILE80       0.1692
     84  C          4.8700   31.3610   81.1050 C.2    80  ILE80       0.2591
     85  O          5.9400   31.5710   81.7000 O.2    80  ILE80      -0.2718
     86  CB         4.2960   32.5020   78.8980 C.3    80  ILE80       0.0266
     87  CG1        4.4100   32.3750   77.3730 C.3    80  ILE80       0.0019
     88  CG2        5.0560   33.7230   79.3800 C.3    80  ILE80       0.0020
     89  CD1        3.9520   33.6140   76.6070 C.3    80  ILE80       0.0001
     90  N          3.7050   31.2080   81.7330 N.am   81  ALA81      -0.1980
     91  CA         3.6130   31.2290   83.1870 C.3    81  ALA81       0.1597
     92  C          4.5380   30.2040   83.8430 C.2    81  ALA81       0.2287
     93  O          5.3100   30.5460   84.7320 O.2    81  ALA81      -0.2864
     94  CB         2.1900   31.0070   83.6210 C.3    81  ALA81       0.0319
     95  N          8.3750   30.7740   83.1890 N.3    84  ASP84      -0.1225
     96  CA         8.7950   31.8720   84.0530 C.3    84  ASP84       0.1805
     97  C          9.2890   31.3350   85.3940 C.2    84  ASP84       0.2597
     98  O         10.3510   31.7180   85.8690 O.2    84  ASP84      -0.2718
     99  CB         7.6500   32.8660   84.2720 C.3    84  ASP84       0.1424
    100  CG         7.4020   33.1540   85.7440 C.2    84  ASP84       0.3668
    101  OD1        8.0240   34.0930   86.2850 O.co2  84  ASP84      -0.2456
    102  OD2        6.5970   32.4290   86.3680 O.co2  84  ASP84      -0.2456
    103  N          8.5300   30.4140   85.9770 N.am   85  TYR85      -0.1976
    104  CA         8.8550   29.8670   87.2870 C.3    85  TYR85       0.1639
    105  C         10.0270   28.9000   87.1790 C.2    85  TYR85       0.2290
    106  O         10.8670   28.8320   88.0720 O.2    85  TYR85      -0.2864
    107  CB         7.6310   29.1630   87.8750 C.3    85  TYR85       0.0560
    108  CG         7.7120   28.8620   89.3580 C.ar   85  TYR85      -0.0198
    109  CD1        8.3620   27.7280   89.8270 C.ar   85  TYR85      -0.0009
    110  CD2        7.1220   29.7030   90.2880 C.ar   85  TYR85      -0.0009
    111  CE1        8.4260   27.4440   91.1840 C.ar   85  TYR85       0.0417
    112  CE2        7.1830   29.4300   91.6490 C.ar   85  TYR85       0.0417
    113  CZ         7.8370   28.3010   92.0890 C.ar   85  TYR85       0.1957
    114  OH         7.8990   28.0290   93.4350 O.3    85  TYR85      -0.2866
@<TRIPOS>BOND
     1    50    48   am
     2    49    48    2
     3    48    47    1
     4    46    47    1
     5    46    43    1
     6    42    43    1
     7    43    44    1
     8    44    45    2
     9    32    30   ar
    10    38    37    1
    11    38    39    1
    12    31    30   ar
    13    40    39    2
    14    37    34    1
    15    30    29    1
    16    39    41   am
    17    36    35    2
    18    34    33    1
    19    34    35    1
    20    33    27   am
    21    29    26    1
    22    27    26    1
    23    27    28    2
    24    51    52    1
    25    26    25    1
    26    56    55    1
    27    55    52    1
    28    52    53    1
    29    25    19   am
    30    20    19    2
    31    69    66    1
    32    19    18    1
    33    53    57   am
    34    53    54    2
    35    57    58    1
    36    66    65    1
    37    66    67    1
    38    21    18    1
    39    21    22    1
    40    18    17    1
    41    89    87    1
    42    23    22    1
    43    58    61    1
    44    58    59    1
    45    61    62    1
    46    12    11    2
    47    24    22    1
    48    67    70   am
    49    67    68    2
    50    59    60    2
    51    87    86    1
    52    17    11   am
    53    70    71    1
    54    11    10    1
    55    63    62    1
    56    62    64    1
    57    86    88    1
    58    86    83    1
    59    71    72    1
    60    10     9    1
    61    10    13    1
    62    82    83    1
    63    83    84    1
    64     4     3    2
    65    74    72   am
    66    74    75    1
    67    72    73    2
    68    15    14   ar
    69    13    14    1
    70    14    16   ar
    71     7     5    1
    72     3     2    1
    73    76    75    1
    74    76    77    2
    75    78    75    1
    76    78    79    1
    77    84    85    2
    78    84    90   am
    79    80    79    1
    80     5     2    1
    81     5     6    1
    82    90    91    1
    83    79    81    1
    84     2     1    1
    85     8     6    1
    86    91    94    1
    87    91    92    1
    88    95    96    1
    89    92    93    2
    90    96    99    1
    91    96    97    1
    92    99   100    1
    93    97    98    2
    94    97   103   am
    95   100   101   ar
    96   100   102   ar
    97   103   104    1
    98   105   104    1
    99   105   106    2
   100   104   107    1
   101   107   108    1
   102   108   109   ar
   103   108   110   ar
   104   109   111   ar
   105   110   112   ar
   106   111   113   ar
   107   112   113   ar
   108   113   114    1
