@<TRIPOS>MOLECULE
tmp/4hrgA00.pdb
 193 187 0 0 0
SMALL
GASTEIGER

@<TRIPOS>ATOM
      1  N        -25.7440    1.7980  -24.1170 N.3    42  PHE42      -0.1241
      2  CA       -24.4930    2.2830  -24.6830 C.3    42  PHE42       0.1605
      3  C        -23.8940    1.4710  -25.8160 C.2    42  PHE42       0.2264
      4  O        -23.8280    1.9470  -26.9670 O.2    42  PHE42      -0.2867
      5  CB       -23.4640    2.5960  -23.5680 C.3    42  PHE42       0.0534
      6  CG       -22.2560    3.3260  -24.0660 C.ar   42  PHE42      -0.0203
      7  CD1      -22.3410    4.6640  -24.4340 C.ar   42  PHE42      -0.0042
      8  CD2      -21.0450    2.6650  -24.2170 C.ar   42  PHE42      -0.0042
      9  CE1      -21.2320    5.3340  -24.9100 C.ar   42  PHE42      -0.0003
     10  CE2      -19.9250    3.3300  -24.6990 C.ar   42  PHE42      -0.0003
     11  CZ       -20.0170    4.6720  -25.0440 C.ar   42  PHE42      -0.0000
     12  N        -12.7810   -1.3740  -27.0210 N.3    55  ILE55      -0.1245
     13  CA       -12.6190   -0.6850  -25.7580 C.3    55  ILE55       0.1561
     14  C        -11.6010   -1.4470  -24.9230 C.2    55  ILE55       0.2260
     15  O        -10.5970   -0.8820  -24.4860 O.2    55  ILE55      -0.2867
     16  CB       -13.9390   -0.5730  -24.9980 C.3    55  ILE55       0.0252
     17  CG1      -14.8530    0.4360  -25.7010 C.3    55  ILE55       0.0019
     18  CG2      -13.6690   -0.1710  -23.5430 C.3    55  ILE55       0.0019
     19  CD1      -16.2490    0.4640  -25.1150 C.3    55  ILE55       0.0001
     20  N         -9.3130   -3.2990  -25.7990 N.3    57  LYS57      -0.1231
     21  CA        -7.9770   -3.0940  -26.3430 C.3    57  LYS57       0.1693
     22  C         -7.3520   -1.7620  -25.9150 C.2    57  LYS57       0.2592
     23  O         -6.1270   -1.6550  -25.8310 O.2    57  LYS57      -0.2718
     24  CB        -8.0210   -3.1520  -27.8800 C.3    57  LYS57       0.0285
     25  CG        -6.6980   -2.8610  -28.5520 C.3    57  LYS57       0.0035
     26  CD        -6.8990   -2.6670  -30.0370 C.3    57  LYS57       0.0206
     27  CE        -5.6780   -2.0300  -30.6830 C.3    57  LYS57       0.1093
     28  NZ        -4.4390   -2.8130  -30.4220 N.3    57  LYS57      -0.1314
     29  N         -8.1750   -0.7410  -25.6700 N.am   58  ASP58      -0.1960
     30  CA        -7.6480    0.6150  -25.3720 C.3    58  ASP58       0.1840
     31  C         -7.6510    1.0130  -23.8810 C.2    58  ASP58       0.2622
     32  O         -7.4720    2.1900  -23.5180 O.2    58  ASP58      -0.2715
     33  CB        -8.3810    1.6740  -26.2010 C.3    58  ASP58       0.1450
     34  CG        -7.7610    1.8680  -27.5750 C.2    58  ASP58       0.3671
     35  OD1       -6.8120    1.1240  -27.9090 O.co2  58  ASP58      -0.2456
     36  OD2       -8.2210    2.7600  -28.3250 O.co2  58  ASP58      -0.2456
     37  N         -7.8480    0.0210  -23.0190 N.am   59  LEU59      -0.1963
     38  CA        -7.8630    0.2500  -21.5790 C.3    59  LEU59       0.1728
     39  C         -6.4710    0.0850  -20.9780 C.2    59  LEU59       0.2616
     40  O         -5.8660   -0.9830  -21.0740 O.2    59  LEU59      -0.2715
     41  CB        -8.8480   -0.7010  -20.8950 C.3    59  LEU59       0.0311
     42  CG       -10.3340   -0.4130  -21.1180 C.3    59  LEU59       0.0022
     43  CD1      -11.1940   -1.4100  -20.3580 C.3    59  LEU59       0.0001
     44  CD2      -10.6720    1.0130  -20.7110 C.3    59  LEU59       0.0001
     45  N         -5.9680    1.1480  -20.3580 N.am   60  ASP60      -0.1971
     46  CA        -4.6490    1.1210  -19.7370 C.3    60  ASP60       0.1709
     47  C         -4.4500   -0.1540  -18.9240 C.2    60  ASP60       0.2293
     48  O         -5.4050   -0.7030  -18.3740 O.2    60  ASP60      -0.2864
     49  CB        -4.4500    2.3490  -18.8460 C.3    60  ASP60       0.1436
     50  CG        -3.2190    2.2400  -17.9680 C.2    60  ASP60       0.3671
     51  OD1       -3.2050    1.3740  -17.0680 O.co2  60  ASP60      -0.2456
     52  OD2       -2.2660    3.0190  -18.1790 O.co2  60  ASP60      -0.2456
     53  N         -7.8580   -0.8740  -11.8520 N.3    70  GLN70      -0.1245
     54  CA        -7.2450    0.3230  -12.4140 C.3    70  GLN70       0.1566
     55  C         -7.6440    0.4790  -13.8760 C.2    70  GLN70       0.2260
     56  O         -7.9660    1.5770  -14.3290 O.2    70  GLN70      -0.2867
     57  CB        -5.7220    0.2570  -12.2860 C.3    70  GLN70       0.0367
     58  CG        -4.9960    1.4360  -12.9140 C.3    70  GLN70       0.0905
     59  CD        -3.7930    1.8760  -12.1030 C.2    70  GLN70       0.2608
     60  OE1       -3.7020    1.6040  -10.9060 O.2    70  GLN70      -0.2717
     61  NE2       -2.8600    2.5620  -12.7540 N.am   70  GLN70      -0.0878
     62  N        -11.2040    1.4860  -14.0210 N.3    73  PHE73      -0.1227
     63  CA       -11.3090    2.8940  -13.7070 C.3    73  PHE73       0.1736
     64  C        -10.9370    3.7980  -14.8860 C.2    73  PHE73       0.2596
     65  O        -11.4870    4.8950  -15.0200 O.2    73  PHE73      -0.2718
     66  CB       -10.4960    3.2870  -12.4630 C.3    73  PHE73       0.0547
     67  CG       -11.1550    4.3610  -11.6720 C.ar   73  PHE73      -0.0202
     68  CD1      -12.1260    4.0490  -10.7300 C.ar   73  PHE73      -0.0042
     69  CD2      -10.8660    5.6990  -11.9200 C.ar   73  PHE73      -0.0042
     70  CE1      -12.7600    5.0460  -10.0090 C.ar   73  PHE73      -0.0003
     71  CE2      -11.5150    6.7140  -11.2080 C.ar   73  PHE73      -0.0003
     72  CZ       -12.4520    6.3770  -10.2430 C.ar   73  PHE73      -0.0000
     73  N         -9.9970    3.3630  -15.7220 N.am   74  SER74      -0.1938
     74  CA        -9.6450    4.1860  -16.8810 C.3    74  SER74       0.2055
     75  C        -10.8280    4.2880  -17.8620 C.2    74  SER74       0.2642
     76  O        -11.0460    5.3430  -18.4860 O.2    74  SER74      -0.2714
     77  CB        -8.3950    3.6660  -17.5800 C.3    74  SER74       0.2130
     78  OG        -8.6950    2.4550  -18.2510 O.3    74  SER74      -0.2179
     79  N        -11.5960    3.2050  -18.0020 N.am   75  LEU75      -0.1977
     80  CA       -12.8560    3.2380  -18.7520 C.3    75  LEU75       0.1596
     81  C        -13.7910    4.3000  -18.2030 C.2    75  LEU75       0.2287
     82  O        -14.2900    5.1450  -18.9400 O.2    75  LEU75      -0.2864
     83  CB       -13.5610    1.8770  -18.6960 C.3    75  LEU75       0.0297
     84  CG       -14.9390    1.9200  -19.3890 C.3    75  LEU75       0.0022
     85  CD1      -14.8010    2.4700  -20.8310 C.3    75  LEU75       0.0001
     86  CD2      -15.6050    0.5600  -19.3590 C.3    75  LEU75       0.0001
     87  N        -13.0030    6.8070  -16.3810 N.3    77  ALA77      -0.1231
     88  CA       -12.3910    8.1370  -16.5940 C.3    77  ALA77       0.1694
     89  C        -12.7350    8.6410  -18.0420 C.2    77  ALA77       0.2593
     90  O        -13.2140    9.7600  -18.2380 O.2    77  ALA77      -0.2718
     91  CB       -10.8940    8.0600  -16.4350 C.3    77  ALA77       0.0304
     92  N        -12.4490    7.8160  -19.0310 N.am   78  GLY78      -0.1942
     93  CA       -12.7110    8.1670  -20.4180 C.3    78  GLY78       0.2014
     94  C        -14.1400    8.5880  -20.6600 C.2    78  GLY78       0.2638
     95  O        -14.3890    9.6120  -21.3040 O.2    78  GLY78      -0.2714
     96  N        -15.0830    7.8070  -20.1360 N.am   79  LEU79      -0.1977
     97  CA       -16.5070    8.0870  -20.3310 C.3    79  LEU79       0.1596
     98  C        -16.8990    9.3920  -19.6160 C.2    79  LEU79       0.2287
     99  O        -17.5480   10.2730  -20.1980 O.2    79  LEU79      -0.2864
    100  CB       -17.3580    6.9180  -19.8100 C.3    79  LEU79       0.0297
    101  CG       -17.2420    5.5990  -20.6030 C.3    79  LEU79       0.0022
    102  CD1      -17.9430    4.5000  -19.8590 C.3    79  LEU79       0.0001
    103  CD2      -17.8560    5.7860  -22.0080 C.3    79  LEU79       0.0001
    104  N        -15.0530   11.8820  -18.4750 N.3    81  ILE81      -0.1231
    105  CA       -14.3560   13.0750  -18.9420 C.3    81  ILE81       0.1692
    106  C        -15.0120   13.5110  -20.2420 C.2    81  ILE81       0.2591
    107  O        -15.2520   14.6810  -20.4600 O.2    81  ILE81      -0.2718
    108  CB       -12.8830   12.7870  -19.1590 C.3    81  ILE81       0.0266
    109  CG1      -12.1650   12.7640  -17.7940 C.3    81  ILE81       0.0019
    110  CG2      -12.2140   13.9060  -20.0250 C.3    81  ILE81       0.0020
    111  CD1      -10.7370   12.1950  -17.8980 C.3    81  ILE81       0.0001
    112  N        -15.3710   12.5560  -21.0820 N.am   82  ALA82      -0.1980
    113  CA       -16.0620   12.9060  -22.3490 C.3    82  ALA82       0.1597
    114  C        -17.4590   13.4560  -22.0780 C.2    82  ALA82       0.2287
    115  O        -17.8750   14.4080  -22.7270 O.2    82  ALA82      -0.2864
    116  CB       -16.1490   11.6760  -23.2840 C.3    82  ALA82       0.0319
    117  N        -17.0720   17.0660  -20.9950 N.3    85  ASP85      -0.1225
    118  CA       -16.7680   17.9910  -22.0750 C.3    85  ASP85       0.1805
    119  C        -18.0450   18.3060  -22.8770 C.2    85  ASP85       0.2597
    120  O        -18.2460   19.4310  -23.3110 O.2    85  ASP85      -0.2718
    121  CB       -15.7280   17.3630  -23.0130 C.3    85  ASP85       0.1424
    122  CG       -14.3070   17.4560  -22.4760 C.2    85  ASP85       0.3668
    123  OD1      -14.0240   18.2390  -21.5210 O.co2  85  ASP85      -0.2456
    124  OD2      -13.4470   16.7610  -23.0540 O.co2  85  ASP85      -0.2456
    125  N        -18.8880   17.3010  -23.1050 N.am   86  TYR86      -0.1976
    126  CA       -20.1660   17.5260  -23.7770 C.3    86  TYR86       0.1639
    127  C        -21.0420   18.4830  -22.9710 C.2    86  TYR86       0.2290
    128  O        -21.6620   19.4090  -23.5140 O.2    86  TYR86      -0.2864
    129  CB       -20.9020   16.1920  -23.9620 C.3    86  TYR86       0.0560
    130  CG       -22.2010   16.3320  -24.7080 C.ar   86  TYR86      -0.0198
    131  CD1      -23.3580   16.7270  -24.0580 C.ar   86  TYR86      -0.0009
    132  CD2      -22.2640   16.0950  -26.0870 C.ar   86  TYR86      -0.0009
    133  CE1      -24.5740   16.9010  -24.7650 C.ar   86  TYR86       0.0417
    134  CE2      -23.4650   16.2410  -26.7960 C.ar   86  TYR86       0.0417
    135  CZ       -24.6140   16.6510  -26.1220 C.ar   86  TYR86       0.1957
    136  OH       -25.8020   16.7950  -26.8080 O.3    86  TYR86      -0.2866
    137  N        -19.7600   22.0230  -23.1810 N.3    89  VAL89      -0.1231
    138  CA       -20.0120   22.6540  -24.4820 C.3    89  VAL89       0.1692
    139  C        -21.4990   22.9240  -24.7510 C.2    89  VAL89       0.2592
    140  O        -21.8900   23.9790  -25.3000 O.2    89  VAL89      -0.2718
    141  CB       -19.4370   21.7810  -25.6460 C.3    89  VAL89       0.0266
    142  CG1      -19.8310   22.3680  -27.0050 C.3    89  VAL89       0.0020
    143  CG2      -17.9150   21.6520  -25.5450 C.3    89  VAL89       0.0020
    144  N        -22.3370   21.9640  -24.3930 N.am   90  HIS90      -0.1976
    145  CA       -23.7200   21.9330  -24.8900 C.3    90  HIS90       0.1656
    146  C        -24.8390   22.1560  -23.8720 C.2    90  HIS90       0.2291
    147  O        -25.9740   22.4460  -24.2740 O.2    90  HIS90      -0.2864
    148  CB       -23.9830   20.5860  -25.5620 C.3    90  HIS90       0.0771
    149  CG       -23.3070   20.4350  -26.8970 C.ar   90  HIS90       0.0820
    150  ND1      -22.2700   19.5470  -27.1090 N.ar   90  HIS90      -0.2267
    151  CD2      -23.4960   21.0800  -28.0670 C.ar   90  HIS90       0.1154
    152  CE1      -21.8650   19.6420  -28.3640 C.ar   90  HIS90       0.1986
    153  NE2      -22.5970   20.5640  -28.9720 N.ar   90  HIS90      -0.2212
    154  N        -24.7720   10.2580  -26.7610 N.3   110  LYS110     -0.1231
    155  CA       -24.2020   11.1740  -27.7500 C.3   110  LYS110      0.1693
    156  C        -22.7600   10.8290  -28.0970 C.2   110  LYS110      0.2592
    157  O        -22.1630   11.4730  -28.9690 O.2   110  LYS110     -0.2718
    158  CB       -24.2440   12.6150  -27.2190 C.3   110  LYS110      0.0285
    159  CG       -25.6150   13.0630  -26.7360 C.3   110  LYS110      0.0035
    160  CD       -26.6350   13.1150  -27.8530 C.3   110  LYS110      0.0206
    161  CE       -27.9130   13.7620  -27.3280 C.3   110  LYS110      0.1093
    162  NZ       -29.0230   13.7360  -28.3080 N.3   110  LYS110     -0.1314
    163  N        -22.2070    9.8310  -27.4010 N.am  111  LEU111     -0.1966
    164  CA       -20.7930    9.5220  -27.4940 C.3   111  LEU111      0.1728
    165  C        -20.5840    8.3410  -28.3840 C.2   111  LEU111      0.2617
    166  O        -21.4110    7.4420  -28.4060 O.2   111  LEU111     -0.2715
    167  CB       -20.2260    9.1340  -26.1150 C.3   111  LEU111      0.0311
    168  CG       -20.3140   10.1800  -25.0000 C.3   111  LEU111      0.0022
    169  CD1      -19.3860    9.7840  -23.8520 C.3   111  LEU111      0.0001
    170  CD2      -19.9580   11.5250  -25.5430 C.3   111  LEU111      0.0001
    171  N        -19.4590    8.3380  -29.0910 N.am  112  SER112     -0.1936
    172  CA       -18.9790    7.1340  -29.7410 C.3   112  SER112      0.2055
    173  C        -17.4810    6.9870  -29.4620 C.2   112  SER112      0.2643
    174  O        -16.7860    7.9790  -29.2410 O.2   112  SER112     -0.2714
    175  CB       -19.2890    7.1530  -31.2490 C.3   112  SER112      0.2130
    176  OG       -18.7850    8.3110  -31.8690 O.3   112  SER112     -0.2179
    177  N        -16.9910    5.7520  -29.4430 N.am  113  LEU113     -0.1963
    178  CA       -15.5660    5.5150  -29.2790 C.3   113  LEU113      0.1728
    179  C        -14.8410    6.1410  -30.4600 C.2   113  LEU113      0.2616
    180  O        -15.3570    6.1520  -31.5880 O.2   113  LEU113     -0.2715
    181  CB       -15.2690    4.0090  -29.2280 C.3   113  LEU113      0.0311
    182  CG       -14.1320    3.4710  -28.3410 C.3   113  LEU113      0.0022
    183  CD1      -13.5490    2.1740  -28.9290 C.3   113  LEU113      0.0001
    184  CD2      -13.0280    4.4880  -28.1070 C.3   113  LEU113      0.0001
    185  N        -13.6490    6.6730  -30.2080 N.am  114  GLU114     -0.1977
    186  CA       -12.8250    7.2210  -31.2790 C.3   114  GLU114      0.1602
    187  C        -12.6540    6.1920  -32.3980 C.2   114  GLU114      0.2287
    188  O        -12.6840    6.5340  -33.5870 O.2   114  GLU114     -0.2864
    189  CB       -11.4590    7.6230  -30.7230 C.3   114  GLU114      0.0415
    190  CG       -10.8860    8.8910  -31.3290 C.3   114  GLU114      0.1163
    191  CD        -9.4030    9.0300  -31.0660 C.2   114  GLU114      0.3649
    192  OE1       -8.6900    8.0020  -31.1230 O.co2 114  GLU114     -0.2457
    193  OE2       -8.9510   10.1630  -30.7990 O.co2 114  GLU114     -0.2457
@<TRIPOS>BOND
     1   188   187    2
     2   187   186    1
     3   176   175    1
     4   180   179    2
     5   190   191    1
     6   190   189    1
     7   186   189    1
     8   186   185    1
     9   175   172    1
    10   192   191   ar
    11   191   193   ar
    12    27    28    1
    13    27    26    1
    14   179   185   am
    15   179   178    1
    16    26    25    1
    17   172   173    1
    18   172   171    1
    19   173   177   am
    20   173   174    2
    21   177   178    1
    22   178   181    1
    23   181   182    1
    24   171   165   am
    25   153   152   ar
    26   153   151   ar
    27   157   156    2
    28   183   182    1
    29    25    24    1
    30   166   165    2
    31   165   164    1
    32   152   150   ar
    33   182   184    1
    34    36    34   ar
    35   162   161    1
    36   156   155    1
    37   156   163   am
    38   151   149   ar
    39    35    34   ar
    40    24    21    1
    41   160   161    1
    42   160   159    1
    43   155   158    1
    44   155   154    1
    45    34    33    1
    46   164   163    1
    47   164   167    1
    48   158   159    1
    49   150   149   ar
    50    12    13    1
    51   142   141    1
    52     4     3    2
    53   149   148    1
    54   136   135    1
    55   134   135   ar
    56   134   132   ar
    57    21    22    1
    58    21    20    1
    59    33    30    1
    60   135   133   ar
    61   167   168    1
    62   132   130   ar
    63    22    23    2
    64    22    29   am
    65     3     2    1
    66    13    16    1
    67    13    14    1
    68    17    19    1
    69    17    16    1
    70    29    30    1
    71   141   143    1
    72   141   138    1
    73   148   145    1
    74   170   168    1
    75    30    31    1
    76   140   139    2
    77    11     9   ar
    78    11    10   ar
    79   168   169    1
    80    16    18    1
    81    14    15    2
    82     9     7   ar
    83   145   144    1
    84   145   146    1
    85   133   131   ar
    86   139   138    1
    87   139   144   am
    88   130   131   ar
    89   130   129    1
    90    10     8   ar
    91     2     1    1
    92     2     5    1
    93   138   137    1
    94     7     6   ar
    95   147   146    2
    96     8     6   ar
    97     6     5    1
    98   129   126    1
    99    31    32    2
   100    31    37   am
   101   126   125    1
   102   126   127    1
   103   128   127    2
   104   120   119    2
   105   116   113    1
   106   125   119   am
   107   124   122   ar
   108    37    38    1
   109   121   122    1
   110   121   118    1
   111   119   118    1
   112   115   114    2
   113   122   123   ar
   114   113   114    1
   115   113   112    1
   116   118   117    1
   117   103   101    1
   118    38    39    1
   119    38    41    1
   120    95    94    2
   121    42    41    1
   122    42    44    1
   123    42    43    1
   124   112   106   am
   125    40    39    2
   126    39    45   am
   127    85    84    1
   128    94    93    1
   129    94    96   am
   130   101   102    1
   131   101   100    1
   132   107   106    2
   133    93    92    1
   134    45    46    1
   135    97    96    1
   136    97   100    1
   137    97    98    1
   138   106   105    1
   139    99    98    2
   140   110   108    1
   141    46    47    1
   142    46    49    1
   143    84    86    1
   144    84    83    1
   145   108   105    1
   146   108   109    1
   147    92    89   am
   148   105   104    1
   149    82    81    2
   150    47    48    2
   151    49    50    1
   152    80    83    1
   153    80    81    1
   154    80    79    1
   155    76    75    2
   156    78    77    1
   157    90    89    2
   158    52    50   ar
   159    89    88    1
   160    79    75   am
   161    50    51   ar
   162   111   109    1
   163    75    74    1
   164    77    74    1
   165    74    73    1
   166    88    91    1
   167    88    87    1
   168    73    64   am
   169    65    64    2
   170    64    63    1
   171    56    55    2
   172    62    63    1
   173    55    54    1
   174    63    66    1
   175    58    57    1
   176    58    59    1
   177    61    59   am
   178    66    67    1
   179    54    57    1
   180    54    53    1
   181    59    60    2
   182    69    67   ar
   183    69    71   ar
   184    67    68   ar
   185    71    72   ar
   186    68    70   ar
   187    72    70   ar
