@<TRIPOS>MOLECULE
tmp/4hrqA00.pdb
 105 100 0 0 0
SMALL
GASTEIGER

@<TRIPOS>ATOM
      1  N         21.9550   37.3910   51.8890 N.3    48  PHE48      -0.1241
      2  CA        23.3200   37.6100   51.4390 C.3    48  PHE48       0.1605
      3  C         23.6430   39.0870   51.3000 C.2    48  PHE48       0.2264
      4  O         22.7810   39.8980   50.9550 O.2    48  PHE48      -0.2867
      5  CB        23.5340   36.9490   50.0820 C.3    48  PHE48       0.0534
      6  CG        23.2950   35.4790   50.0790 C.ar   48  PHE48      -0.0203
      7  CD1       24.3170   34.5980   50.4130 C.ar   48  PHE48      -0.0042
      8  CD2       22.0550   34.9690   49.7180 C.ar   48  PHE48      -0.0042
      9  CE1       24.1120   33.2270   50.3810 C.ar   48  PHE48      -0.0003
     10  CE2       21.8360   33.5990   49.6820 C.ar   48  PHE48      -0.0003
     11  CZ        22.8640   32.7260   50.0110 C.ar   48  PHE48      -0.0000
     12  N         21.4440   40.7290   48.0270 N.3    66  ASN66      -0.1240
     13  CA        20.6720   39.9170   47.1040 C.3    66  ASN66       0.1653
     14  C         19.3310   40.5920   46.8790 C.2    66  ASN66       0.2266
     15  O         18.5600   40.7800   47.8170 O.2    66  ASN66      -0.2867
     16  CB        20.4790   38.5130   47.6870 C.3    66  ASN66       0.1155
     17  CG        19.6580   37.6090   46.7880 C.2    66  ASN66       0.2627
     18  OD1       20.0470   36.4750   46.5110 O.2    66  ASN66      -0.2716
     19  ND2       18.5130   38.1010   46.3400 N.am   66  ASN66      -0.0877
     20  N         17.4560   39.5700   44.0390 N.3    68  VAL68      -0.1245
     21  CA        16.9440   38.7200   42.9610 C.3    68  VAL68       0.1561
     22  C         15.4250   38.7630   42.7830 C.2    68  VAL68       0.2260
     23  O         14.9310   39.0950   41.7040 O.2    68  VAL68      -0.2867
     24  CB        17.3980   37.2470   43.1650 C.3    68  VAL68       0.0252
     25  CG1       16.6110   36.3080   42.2520 C.3    68  VAL68       0.0019
     26  CG2       18.8980   37.1230   42.8740 C.3    68  VAL68       0.0019
     27  N         22.9840   39.1480   42.5830 N.3    77  HIS77      -0.1226
     28  CA        23.5300   38.5710   43.8070 C.3    77  HIS77       0.1752
     29  C         24.3030   39.6750   44.5300 C.2    77  HIS77       0.2596
     30  O         24.6700   40.6740   43.9170 O.2    77  HIS77      -0.2718
     31  CB        24.4630   37.3990   43.4870 C.3    77  HIS77       0.0759
     32  CG        23.7450   36.1450   43.0900 C.ar   77  HIS77       0.0818
     33  ND1       24.3410   34.9040   43.1340 N.ar   77  HIS77      -0.2268
     34  CD2       22.4750   35.9360   42.6690 C.ar   77  HIS77       0.1154
     35  CE1       23.4700   33.9830   42.7640 C.ar   77  HIS77       0.1986
     36  NE2       22.3280   34.5830   42.4770 N.ar   77  HIS77      -0.2212
     37  N         24.5230   39.4980   45.8300 N.am   78  ALA78      -0.1966
     38  CA        25.2470   40.4730   46.6480 C.3    78  ALA78       0.1728
     39  C         26.5040   40.9680   45.9700 C.2    78  ALA78       0.2616
     40  O         26.7000   42.1720   45.7720 O.2    78  ALA78      -0.2715
     41  CB        25.6380   39.8520   47.9810 C.3    78  ALA78       0.0334
     42  N         27.3620   40.0090   45.6440 N.am   79  GLU79      -0.1977
     43  CA        28.6440   40.2730   45.0200 C.3    79  GLU79       0.1602
     44  C         28.5410   41.1040   43.7520 C.2    79  GLU79       0.2287
     45  O         29.3220   42.0330   43.5530 O.2    79  GLU79      -0.2864
     46  CB        29.3510   38.9470   44.7200 C.3    79  GLU79       0.0415
     47  CG        29.5100   38.0370   45.9340 C.3    79  GLU79       0.1163
     48  CD        28.4140   36.9780   46.0350 C.2    79  GLU79       0.3649
     49  OE1       27.2160   37.3330   46.0650 O.co2  79  GLU79      -0.2457
     50  OE2       28.7610   35.7800   46.0860 O.co2  79  GLU79      -0.2457
     51  N         29.0510   35.0460   52.3300 N.3   109  ALA109     -0.1231
     52  CA        29.1590   33.6280   51.9860 C.3   109  ALA109      0.1694
     53  C         30.0550   33.4340   50.7670 C.2   109  ALA109      0.2591
     54  O         30.1940   34.3420   49.9440 O.2   109  ALA109     -0.2718
     55  CB        27.7700   33.0550   51.7020 C.3   109  ALA109      0.0304
     56  N         30.6600   32.2530   50.6550 N.am  110  GLU110     -0.1979
     57  CA        31.5270   31.9560   49.5190 C.3   110  GLU110      0.1602
     58  C         30.7070   32.1250   48.2430 C.2   110  GLU110      0.2287
     59  O         29.5410   31.7430   48.1840 O.2   110  GLU110     -0.2864
     60  CB        32.0910   30.5370   49.6390 C.3   110  GLU110      0.0415
     61  CG        32.9990   30.3750   50.8560 C.3   110  GLU110      0.1163
     62  CD        33.5950   28.9850   50.9860 C.2   110  GLU110      0.3649
     63  OE1       33.0810   28.0480   50.3380 O.co2 110  GLU110     -0.2457
     64  OE2       34.5710   28.8330   51.7560 O.co2 110  GLU110     -0.2457
     65  N         29.0360   31.9520   44.4200 N.3   112  CYS112     -0.1235
     66  CA        28.4890   30.9150   43.5560 C.3   112  CYS112      0.1677
     67  C         29.3640   30.9990   42.3060 C.2   112  CYS112      0.2270
     68  O         30.1850   31.9100   42.1860 O.2   112  CYS112     -0.2867
     69  CB        27.0320   31.2170   43.1890 C.3   112  CYS112      0.0956
     70  SG        26.8120   32.5420   41.9620 S.3   112  CYS112     -0.0801
     71  N         25.7520   27.3350   53.0090 N.3   136  VAL136     -0.1245
     72  CA        24.7840   27.9200   52.0900 C.3   136  VAL136      0.1561
     73  C         23.9110   26.8560   51.4320 C.2   136  VAL136      0.2260
     74  O         22.6860   26.9990   51.3510 O.2   136  VAL136     -0.2867
     75  CB        25.5080   28.7250   50.9830 C.3   136  VAL136      0.0252
     76  CG1       24.4980   29.4210   50.0900 C.3   136  VAL136      0.0019
     77  CG2       26.4510   29.7380   51.6130 C.3   136  VAL136      0.0019
     78  N         20.5560   26.6360   49.1470 N.3   141  PHE141     -0.1227
     79  CA        21.0530   27.5990   48.1740 C.3   141  PHE141      0.1736
     80  C         22.2060   27.0160   47.3760 C.2   141  PHE141      0.2595
     81  O         23.2810   26.7540   47.9070 O.2   141  PHE141     -0.2718
     82  CB        21.4820   28.8890   48.8710 C.3   141  PHE141      0.0547
     83  CG        20.3500   29.6170   49.5440 C.ar  141  PHE141     -0.0202
     84  CD1       19.0470   29.4910   49.0730 C.ar  141  PHE141     -0.0042
     85  CD2       20.5910   30.4700   50.6090 C.ar  141  PHE141     -0.0042
     86  CE1       18.0080   30.2070   49.6510 C.ar  141  PHE141     -0.0003
     87  CE2       19.5560   31.1900   51.1900 C.ar  141  PHE141     -0.0003
     88  CZ        18.2650   31.0590   50.7110 C.ar  141  PHE141     -0.0000
     89  N         21.9640   26.8210   46.0850 N.am  142  ASP142     -0.1960
     90  CA        22.9470   26.2430   45.1770 C.3   142  ASP142      0.1840
     91  C         24.1010   27.2070   44.9090 C.2   142  ASP142      0.2621
     92  O         23.8760   28.4020   44.7040 O.2   142  ASP142     -0.2715
     93  CB        22.2590   25.9060   43.8510 C.3   142  ASP142      0.1450
     94  CG        22.9030   24.7420   43.1300 C.2   142  ASP142      0.3671
     95  OD1       24.1110   24.4970   43.3150 O.co2 142  ASP142     -0.2456
     96  OD2       22.1890   24.0730   42.3570 O.co2 142  ASP142     -0.2456
     97  N         25.3300   26.6940   44.9130 N.am  143  GLU143     -0.1977
     98  CA        26.4980   27.5210   44.6230 C.3   143  GLU143      0.1602
     99  C         26.8540   27.3320   43.1460 C.2   143  GLU143      0.2287
    100  O         27.5860   28.1260   42.5570 O.2   143  GLU143     -0.2864
    101  CB        27.6850   27.1200   45.5040 C.3   143  GLU143      0.0415
    102  CG        27.5390   27.5260   46.9700 C.3   143  GLU143      0.1163
    103  CD        27.8340   29.0030   47.2180 C.2   143  GLU143      0.3649
    104  OE1       27.3270   29.8620   46.4630 O.co2 143  GLU143     -0.2457
    105  OE2       28.5730   29.3050   48.1790 O.co2 143  GLU143     -0.2457
@<TRIPOS>BOND
     1    23    22    2
     2    70    69    1
     3    68    67    2
     4    25    24    1
     5    67    66    1
     6    96    94   ar
     7    36    34   ar
     8    36    35   ar
     9   100    99    2
    10    27    28    1
    11    34    32   ar
    12    35    33   ar
    13    22    21    1
    14    26    24    1
    15    21    24    1
    16    21    20    1
    17    32    33   ar
    18    32    31    1
    19    94    95   ar
    20    94    93    1
    21    99    98    1
    22    69    66    1
    23    31    28    1
    24    45    44    2
    25    66    65    1
    26    44    43    1
    27    28    29    1
    28    93    90    1
    29    30    29    2
    30    29    37   am
    31    98    97    1
    32    98   101    1
    33    92    91    2
    34    46    43    1
    35    46    47    1
    36    91    97   am
    37    91    90    1
    38    43    42    1
    39    90    89    1
    40   101   102    1
    41    42    39   am
    42    40    39    2
    43    37    38    1
    44    47    48    1
    45    39    38    1
    46    48    49   ar
    47    48    50   ar
    48    89    80   am
    49    19    17   am
    50   104   103   ar
    51    18    17    2
    52    38    41    1
    53    17    16    1
    54    14    13    1
    55    14    15    2
    56   102   103    1
    57    13    16    1
    58    13    12    1
    59   103   105   ar
    60    80    81    2
    61    80    79    1
    62    79    82    1
    63    79    78    1
    64    59    58    2
    65    58    57    1
    66    82    83    1
    67    84    83   ar
    68    84    86   ar
    69    57    60    1
    70    57    56    1
    71    83    85   ar
    72    60    61    1
    73    86    88   ar
    74    10     8   ar
    75    10    11   ar
    76     8     6   ar
    77    54    53    2
    78    11     9   ar
    79     6     5    1
    80     6     7   ar
    81     5     2    1
    82    76    75    1
    83    63    62   ar
    84     9     7   ar
    85    85    87   ar
    86    56    53   am
    87    88    87   ar
    88    53    52    1
    89    61    62    1
    90     4     3    2
    91    75    77    1
    92    75    72    1
    93    62    64   ar
    94     3     2    1
    95    74    73    2
    96    73    72    1
    97     2     1    1
    98    55    52    1
    99    52    51    1
   100    72    71    1
