@<TRIPOS>MOLECULE
tmp/4hrtF00.pdb
 217 206 0 0 0
SMALL
GASTEIGER

@<TRIPOS>ATOM
      1  N         72.9310   62.1390   94.7970 N.3    38  LEU38      -0.1231
      2  CA        74.2750   62.4710   94.3180 C.3    38  LEU38       0.1693
      3  C         75.2560   62.6340   95.4890 C.2    38  LEU38       0.2591
      4  O         76.3690   62.0890   95.4560 O.2    38  LEU38      -0.2718
      5  CB        74.2580   63.7430   93.4650 C.3    38  LEU38       0.0284
      6  CG        75.5920   64.1480   92.8240 C.3    38  LEU38       0.0019
      7  CD1       76.1170   63.0340   91.9290 C.3    38  LEU38       0.0001
      8  CD2       75.4380   65.4430   92.0380 C.3    38  LEU38       0.0001
      9  N         74.8350   63.3780   96.5140 N.am   39  MET39      -0.1979
     10  CA        75.6460   63.5760   97.7210 C.3    39  MET39       0.1605
     11  C         75.8830   62.2680   98.4890 C.2    39  MET39       0.2287
     12  O         77.0110   62.0000   98.9220 O.2    39  MET39      -0.2864
     13  CB        75.0050   64.6300   98.6300 C.3    39  MET39       0.0413
     14  CG        75.0800   66.0640   98.1210 C.3    39  MET39       0.0598
     15  SD        76.7390   66.6730   97.7420 S.3    39  MET39      -0.1393
     16  CE        77.5660   66.5060   99.3220 C.3    39  MET39       0.0692
     17  N         78.5410   60.4160   96.6610 N.3    42  LEU42      -0.1245
     18  CA        79.8450   61.0610   96.8910 C.3    42  LEU42       0.1561
     19  C         80.4690   60.5960   98.2080 C.2    42  LEU42       0.2260
     20  O         81.6500   60.2420   98.2510 O.2    42  LEU42      -0.2867
     21  CB        79.7360   62.5950   96.8580 C.3    42  LEU42       0.0270
     22  CG        81.0270   63.3830   97.1290 C.3    42  LEU42       0.0019
     23  CD1       82.0350   63.1730   96.0050 C.3    42  LEU42       0.0001
     24  CD2       80.7190   64.8600   97.3030 C.3    42  LEU42       0.0001
     25  N         85.4130   63.2940  101.4070 N.3    49  ALA49      -0.1245
     26  CA        84.4290   64.3620  101.2120 C.3    49  ALA49       0.1562
     27  C         83.6870   64.7160  102.5000 C.2    49  ALA49       0.2260
     28  O         83.2780   65.8620  102.6840 O.2    49  ALA49      -0.2867
     29  CB        83.4390   63.9920  100.1120 C.3    49  ALA49       0.0290
     30  N         85.4840   67.6290  104.1690 N.3    52  LYS52      -0.1231
     31  CA        85.1960   68.8880  103.4730 C.3    52  LYS52       0.1693
     32  C         83.8050   69.4230  103.8240 C.2    52  LYS52       0.2592
     33  O         83.6040   70.6380  103.9210 O.2    52  LYS52      -0.2718
     34  CB        85.3340   68.7200  101.9530 C.3    52  LYS52       0.0285
     35  CG        86.7580   68.4890  101.4610 C.3    52  LYS52       0.0035
     36  CD        87.6240   69.7370  101.6130 C.3    52  LYS52       0.0206
     37  CE        89.0350   69.5210  101.0860 C.3    52  LYS52       0.1093
     38  NZ        89.8180   70.7870  101.0640 N.3    52  LYS52      -0.1314
     39  N         82.8580   68.5080  104.0120 N.am   53  PHE53      -0.1976
     40  CA        81.4750   68.8540  104.3490 C.3    53  PHE53       0.1639
     41  C         81.1550   68.7680  105.8520 C.2    53  PHE53       0.2290
     42  O         80.0050   68.5570  106.2370 O.2    53  PHE53      -0.2864
     43  CB        80.5170   67.9650  103.5390 C.3    53  PHE53       0.0560
     44  CG        80.3690   68.3760  102.0960 C.ar   53  PHE53      -0.0200
     45  CD1       79.4750   69.3830  101.7440 C.ar   53  PHE53      -0.0042
     46  CD2       81.1050   67.7550  101.0950 C.ar   53  PHE53      -0.0042
     47  CE1       79.3190   69.7710  100.4220 C.ar   53  PHE53      -0.0003
     48  CE2       80.9530   68.1350   99.7670 C.ar   53  PHE53      -0.0003
     49  CZ        80.0560   69.1420   99.4300 C.ar   53  PHE53      -0.0000
     50  N         80.7020   70.9100  108.1580 N.3    55  ARG55      -0.1231
     51  CA        79.6380   71.8060  108.6280 C.3    55  ARG55       0.1694
     52  C         78.2580   71.1420  108.6070 C.2    55  ARG55       0.2591
     53  O         77.3990   71.4710  109.4270 O.2    55  ARG55      -0.2718
     54  CB        79.5870   73.1130  107.8200 C.3    55  ARG55       0.0321
     55  CG        78.6740   74.1710  108.4410 C.3    55  ARG55       0.0489
     56  CD        78.4000   75.3440  107.5150 C.3    55  ARG55       0.2205
     57  NE        77.5270   74.9800  106.3950 N.pl3  55  ARG55      -0.0865
     58  CZ        76.1900   74.9610  106.4290 C.cat  55  ARG55       0.5346
     59  NH1       75.5130   75.2820  107.5330 N.pl3  55  ARG55       0.1354
     60  NH2       75.5160   74.6140  105.3360 N.pl3  55  ARG55       0.1354
     61  N         78.0540   70.2020  107.6830 N.am   56  LEU56      -0.1980
     62  CA        76.7370   69.5680  107.5120 C.3    56  LEU56       0.1596
     63  C         76.3500   68.5730  108.6150 C.2    56  LEU56       0.2287
     64  O         75.1740   68.2390  108.7650 O.2    56  LEU56      -0.2864
     65  CB        76.6280   68.8960  106.1390 C.3    56  LEU56       0.0297
     66  CG        76.8730   69.7510  104.8880 C.3    56  LEU56       0.0022
     67  CD1       76.5150   68.9400  103.6490 C.3    56  LEU56       0.0001
     68  CD2       76.0850   71.0550  104.9030 C.3    56  LEU56       0.0001
     69  N         71.8660   71.9850  101.3700 N.3    71  HIS71      -0.1241
     70  CA        72.9860   71.9480  100.4270 C.3    71  HIS71       0.1621
     71  C         72.6640   71.1430   99.1600 C.2    71  HIS71       0.2264
     72  O         72.9800   71.5820   98.0370 O.2    71  HIS71      -0.2867
     73  CB        74.2770   71.4050  101.0500 C.3    71  HIS71       0.0745
     74  CG        75.3070   71.0830  100.0120 C.ar   71  HIS71       0.0817
     75  ND1       76.1030   72.0490   99.4330 N.ar   71  HIS71      -0.2268
     76  CD2       75.5900   69.9230   99.3710 C.ar   71  HIS71       0.1154
     77  CE1       76.8540   71.4890   98.4970 C.ar   71  HIS71       0.1986
     78  NE2       76.5660   70.2000   98.4430 N.ar   71  HIS71      -0.2212
     79  N         70.3580   72.8700   96.7820 N.3    74  THR74      -0.1203
     80  CA        71.0690   74.0320   96.2190 C.3    74  THR74       0.1994
     81  C         72.0940   73.6440   95.1370 C.2    74  THR74       0.2617
     82  O         72.2260   74.3410   94.1040 O.2    74  THR74      -0.2717
     83  CB        71.6740   74.8670   97.3650 C.3    74  THR74       0.1784
     84  OG1       70.5990   75.2800   98.2310 O.3    74  THR74      -0.2211
     85  CG2       72.4390   76.0800   96.8610 C.3    74  THR74       0.0376
     86  N         72.7710   72.5160   95.3380 N.am   75  LEU75      -0.1979
     87  CA        73.7290   72.0000   94.3470 C.3    75  LEU75       0.1596
     88  C         73.0650   71.8340   92.9780 C.2    75  LEU75       0.2287
     89  O         73.6790   72.1460   91.9420 O.2    75  LEU75      -0.2864
     90  CB        74.3400   70.6740   94.8290 C.3    75  LEU75       0.0297
     91  CG        75.2470   69.8760   93.8980 C.3    75  LEU75       0.0022
     92  CD1       76.2730   69.1050   94.7210 C.3    75  LEU75       0.0001
     93  CD2       74.4270   68.9630   92.9830 C.3    75  LEU75       0.0001
     94  N         72.8600   74.8780   90.6910 N.3    78  ALA78      -0.1231
     95  CA        74.1010   75.1610   89.9550 C.3    78  ALA78       0.1694
     96  C         74.1480   74.3470   88.6580 C.2    78  ALA78       0.2591
     97  O         74.5240   74.8860   87.6020 O.2    78  ALA78      -0.2718
     98  CB        75.3360   74.9000   90.8160 C.3    78  ALA78       0.0304
     99  N         73.7460   73.0730   88.7160 N.am   79  LEU79      -0.1980
    100  CA        73.6600   72.2570   87.4940 C.3    79  LEU79       0.1596
    101  C         72.6440   72.8520   86.5190 C.2    79  LEU79       0.2287
    102  O         72.9100   72.8950   85.3060 O.2    79  LEU79      -0.2864
    103  CB        73.3510   70.7860   87.8050 C.3    79  LEU79       0.0297
    104  CG        74.4530   70.0430   88.5970 C.3    79  LEU79       0.0022
    105  CD1       74.0550   68.6030   88.8900 C.3    79  LEU79       0.0001
    106  CD2       75.8030   70.1060   87.8730 C.3    79  LEU79       0.0001
    107  N         74.3470   75.7120   84.7450 N.3    82  PHE82      -0.1241
    108  CA        75.2560   75.2050   83.6950 C.3    82  PHE82       0.1605
    109  C         74.4710   74.7710   82.4580 C.2    82  PHE82       0.2264
    110  O         74.8300   75.1420   81.3360 O.2    82  PHE82      -0.2867
    111  CB        76.1070   74.0140   84.1780 C.3    82  PHE82       0.0534
    112  CG        77.0360   74.3130   85.3420 C.ar   82  PHE82      -0.0203
    113  CD1       77.4140   75.6160   85.6850 C.ar   82  PHE82      -0.0042
    114  CD2       77.5670   73.2560   86.0710 C.ar   82  PHE82      -0.0042
    115  CE1       78.2800   75.8510   86.7530 C.ar   82  PHE82      -0.0003
    116  CE2       78.4280   73.4800   87.1440 C.ar   82  PHE82      -0.0003
    117  CZ        78.7850   74.7800   87.4830 C.ar   82  PHE82      -0.0000
    118  N         81.0890   80.2070   89.6880 N.3    99  PHE99      -0.1241
    119  CA        80.9000   79.0050   90.5170 C.3    99  PHE99       0.1605
    120  C         82.2100   78.5870   91.1990 C.2    99  PHE99       0.2264
    121  O         82.2080   78.1470   92.3570 O.2    99  PHE99      -0.2867
    122  CB        80.3800   77.8590   89.6300 C.3    99  PHE99       0.0534
    123  CG        80.3470   76.5040   90.2960 C.ar   99  PHE99      -0.0203
    124  CD1       81.4630   75.6590   90.2530 C.ar   99  PHE99      -0.0042
    125  CD2       79.1940   76.0520   90.9380 C.ar   99  PHE99      -0.0042
    126  CE1       81.4380   74.4010   90.8500 C.ar   99  PHE99      -0.0003
    127  CE2       79.1610   74.7970   91.5250 C.ar   99  PHE99      -0.0003
    128  CZ        80.2820   73.9690   91.4900 C.ar   99  PHE99      -0.0000
    129  N         84.0750   80.2070   95.1260 N.3   102  ASN102     -0.1225
    130  CA        83.9350   79.6370   96.4820 C.3   102  ASN102      0.1785
    131  C         84.6540   78.2910   96.6210 C.2   102  ASN102      0.2597
    132  O         85.1720   77.9610   97.6890 O.2   102  ASN102     -0.2718
    133  CB        82.4670   79.4550   96.9000 C.3   102  ASN102      0.1169
    134  CG        81.7110   80.7680   97.0800 C.2   102  ASN102      0.2627
    135  OD1       80.4850   80.7750   97.0420 O.2   102  ASN102     -0.2716
    136  ND2       82.4210   81.8710   97.2560 N.am  102  ASN102     -0.0877
    137  N         84.6800   77.5100   95.5410 N.am  103  HIS103     -0.1975
    138  CA        85.3420   76.2000   95.5680 C.3   103  HIS103      0.1656
    139  C         86.8680   76.3280   95.6830 C.2   103  HIS103      0.2291
    140  O         87.5090   75.5680   96.4150 O.2   103  HIS103     -0.2864
    141  CB        84.8920   75.3420   94.3700 C.3   103  HIS103      0.0771
    142  CG        83.4860   74.8400   94.5090 C.ar  103  HIS103      0.0820
    143  ND1       82.3810   75.5830   94.1370 N.ar  103  HIS103     -0.2267
    144  CD2       83.0040   73.6950   95.0470 C.ar  103  HIS103      0.1154
    145  CE1       81.2830   74.9080   94.4280 C.ar  103  HIS103      0.1986
    146  NE2       81.6330   73.7550   94.9690 N.ar  103  HIS103     -0.2212
    147  N         87.7270   77.2950   99.2950 N.3   106  ARG106     -0.1245
    148  CA        87.6610   76.1940  100.2700 C.3   106  ARG106      0.1563
    149  C         88.6220   75.0470   99.9050 C.2   106  ARG106      0.2260
    150  O         88.5360   73.9460  100.4540 O.2   106  ARG106     -0.2867
    151  CB        86.2180   75.7110  100.4830 C.3   106  ARG106      0.0307
    152  CG        85.5780   75.0600   99.2790 C.3   106  ARG106      0.0489
    153  CD        84.1720   74.5690   99.5830 C.3   106  ARG106      0.2205
    154  NE        83.2690   75.6270  100.0380 N.pl3 106  ARG106     -0.0865
    155  CZ        82.3460   76.2280   99.2800 C.cat 106  ARG106      0.5346
    156  NH1       82.1600   75.8870   97.9840 N.pl3 106  ARG106      0.1354
    157  NH2       81.5900   77.1780   99.8270 N.pl3 106  ARG106      0.1354
    158  N         89.1220   73.1060   97.1920 N.3   108  ILE108     -0.1245
    159  CA        88.7300   71.9350   96.4030 C.3   108  ILE108      0.1561
    160  C         89.5630   71.9510   95.1230 C.2   108  ILE108      0.2260
    161  O         89.3560   72.8030   94.2530 O.2   108  ILE108     -0.2867
    162  CB        87.2230   71.9350   96.0260 C.3   108  ILE108      0.0252
    163  CG1       86.3170   72.2420   97.2380 C.3   108  ILE108      0.0019
    164  CG2       86.8400   70.6260   95.3270 C.3   108  ILE108      0.0019
    165  CD1       86.4240   71.2850   98.4090 C.3   108  ILE108      0.0001
    166  N         90.1530   66.7060   93.2350 N.3   112  GLU112     -0.1231
    167  CA        89.1030   66.4790   94.2140 C.3   112  GLU112      0.1699
    168  C         87.7080   66.6810   93.6160 C.2   112  GLU112      0.2592
    169  O         86.8060   65.8750   93.8470 O.2   112  GLU112     -0.2718
    170  CB        89.3070   67.3640   95.4380 C.3   112  GLU112      0.0402
    171  CG        88.4440   66.9580   96.6120 C.3   112  GLU112      0.1161
    172  CD        88.7860   67.7060   97.8820 C.2   112  GLU112      0.3649
    173  OE1       88.1650   67.3870   98.9170 O.co2 112  GLU112     -0.2457
    174  OE2       89.6670   68.6030   97.8540 O.co2 112  GLU112     -0.2457
    175  N         87.5380   67.7320   92.8180 N.am  113  PHE113     -0.1976
    176  CA        86.2460   67.9870   92.1930 C.3   113  PHE113      0.1639
    177  C         85.8210   66.8260   91.2920 C.2   113  PHE113      0.2290
    178  O         84.6360   66.4890   91.2310 O.2   113  PHE113     -0.2864
    179  CB        86.2690   69.2990   91.4120 C.3   113  PHE113      0.0560
    180  CG        84.9050   69.8270   91.0860 C.ar  113  PHE113     -0.0200
    181  CD1       84.2130   70.6020   92.0140 C.ar  113  PHE113     -0.0042
    182  CD2       84.3050   69.5450   89.8620 C.ar  113  PHE113     -0.0042
    183  CE1       82.9460   71.0890   91.7330 C.ar  113  PHE113     -0.0003
    184  CE2       83.0310   70.0220   89.5750 C.ar  113  PHE113     -0.0003
    185  CZ        82.3550   70.8050   90.5050 C.ar  113  PHE113     -0.0000
    186  N         86.0640   63.7780   91.7360 N.3   115  GLU115     -0.1231
    187  CA        85.4290   62.7060   92.5160 C.3   115  GLU115      0.1699
    188  C         83.9040   62.6370   92.3420 C.2   115  GLU115      0.2592
    189  O         83.2840   61.6640   92.7530 O.2   115  GLU115     -0.2718
    190  CB        85.7420   62.8540   94.0080 C.3   115  GLU115      0.0402
    191  CG        87.1870   62.6190   94.4130 C.3   115  GLU115      0.1161
    192  CD        87.4580   63.1130   95.8210 C.2   115  GLU115      0.3649
    193  OE1       86.5100   63.6120   96.4760 O.co2 115  GLU115     -0.2457
    194  OE2       88.6180   63.0140   96.2710 O.co2 115  GLU115     -0.2457
    195  N         83.3040   63.6670   91.7460 N.am  116  ILE116     -0.1980
    196  CA        81.8510   63.6920   91.5320 C.3   116  ILE116      0.1595
    197  C         81.3990   62.8300   90.3430 C.2   116  ILE116      0.2287
    198  O         80.2210   62.5110   90.2310 O.2   116  ILE116     -0.2864
    199  CB        81.3220   65.1460   91.3910 C.3   116  ILE116      0.0276
    200  CG1       79.8250   65.2420   91.7370 C.3   116  ILE116      0.0022
    201  CG2       81.5980   65.7010   89.9960 C.3   116  ILE116      0.0022
    202  CD1       79.4960   65.0880   93.2130 C.3   116  ILE116      0.0001
    203  N         77.8990   60.7900   89.8610 N.3   120  LEU120     -0.1245
    204  CA        77.0160   61.1340   88.7470 C.3   120  LEU120      0.1561
    205  C         76.6030   59.8940   87.9490 C.2   120  LEU120      0.2260
    206  O         75.4210   59.7400   87.6170 O.2   120  LEU120     -0.2867
    207  CB        77.6660   62.1700   87.8230 C.3   120  LEU120      0.0270
    208  CG        77.5510   63.6580   88.1620 C.3   120  LEU120      0.0019
    209  CD1       78.4750   64.4870   87.2760 C.3   120  LEU120      0.0001
    210  CD2       76.1100   64.1660   88.0710 C.3   120  LEU120      0.0001
    211  N         81.9940   68.6940   83.5670 N.3   144  VAL144     -0.1245
    212  CA        82.7660   68.7550   84.8170 C.3   144  VAL144      0.1561
    213  C         84.2260   69.1820   84.5580 C.2   144  VAL144      0.2260
    214  O         84.8140   69.9280   85.3530 O.2   144  VAL144     -0.2867
    215  CB        82.6880   67.4090   85.5850 C.3   144  VAL144      0.0252
    216  CG1       83.7440   67.3100   86.6900 C.3   144  VAL144      0.0019
    217  CG2       81.2770   67.1990   86.1380 C.3   144  VAL144      0.0019
@<TRIPOS>BOND
     1   110   109    2
     2   109   108    1
     3   211   212    1
     4   108   111    1
     5   108   107    1
     6   111   112    1
     7   213   212    1
     8   213   214    2
     9   212   215    1
    10   102   101    2
    11   112   113   ar
    12   112   114   ar
    13   215   217    1
    14   215   216    1
    15   113   115   ar
    16   114   116   ar
    17   101   100    1
    18   115   117   ar
    19   116   117   ar
    20   209   208    1
    21   100   103    1
    22   100    99    1
    23    97    96    2
    24   206   205    2
    25   103   104    1
    26   207   208    1
    27   207   204    1
    28   106   104    1
    29   205   204    1
    30   210   208    1
    31   104   105    1
    32    96    99   am
    33    96    95    1
    34   204   203    1
    35   184   182   ar
    36   184   185   ar
    37   122   123    1
    38   122   119    1
    39   118   119    1
    40   182   180   ar
    41    95    94    1
    42    95    98    1
    43   201   199    1
    44   198   197    2
    45   124   123   ar
    46   124   126   ar
    47   123   125   ar
    48   197   196    1
    49   185   183   ar
    50   119   120    1
    51   126   128   ar
    52   125   127   ar
    53   180   179    1
    54   180   181   ar
    55   120   121    2
    56   178   177    2
    57   177   176    1
    58   199   196    1
    59   199   200    1
    60   179   176    1
    61   128   127   ar
    62   196   195    1
    63   183   181   ar
    64   186   187    1
    65   200   202    1
    66   195   188   am
    67     7     6    1
    68    89    88    2
    69     8     6    1
    70   176   175    1
    71   188   187    1
    72   188   189    2
    73   187   190    1
    74   175   168   am
    75     6     5    1
    76    88    87    1
    77    93    91    1
    78   166   167    1
    79     5     2    1
    80   168   169    2
    81   168   167    1
    82    91    92    1
    83    91    90    1
    84   190   191    1
    85    82    81    2
    86   143   145   ar
    87   143   142   ar
    88   167   170    1
    89   161   160    2
    90     2     1    1
    91     2     3    1
    92    87    90    1
    93    87    86    1
    94   141   142    1
    95   141   138    1
    96   191   192    1
    97   145   146   ar
    98   142   144   ar
    99   146   144   ar
   100   160   159    1
   101   129   130    1
   102    81    86   am
   103    81    80    1
   104   164   162    1
   105   170   171    1
   106     4     3    2
   107     3     9   am
   108   137   138    1
   109   137   131   am
   110   138   139    1
   111   139   140    2
   112   192   194   ar
   113   192   193   ar
   114    23    22    1
   115   162   159    1
   116   162   163    1
   117    80    79    1
   118    80    83    1
   119   159   158    1
   120   130   131    1
   121   130   133    1
   122     9    10    1
   123   171   172    1
   124   131   132    2
   125    17    18    1
   126    21    18    1
   127    21    22    1
   128    85    83    1
   129    18    19    1
   130   133   134    1
   131   135   134    2
   132   134   136   am
   133    22    24    1
   134   163   165    1
   135    83    84    1
   136    10    11    1
   137    10    13    1
   138    15    14    1
   139    15    16    1
   140   174   172   ar
   141   172   173   ar
   142   156   155    1
   143    72    71    2
   144    14    13    1
   145    19    20    2
   146    78    77   ar
   147    78    76   ar
   148    11    12    2
   149    77    75   ar
   150    71    70    1
   151   152   153    1
   152   152   151    1
   153   155   157    1
   154   155   154    2
   155   147   148    1
   156    76    74   ar
   157    49    48   ar
   158    49    47   ar
   159    75    74   ar
   160   153   154    1
   161    48    46   ar
   162   149   148    1
   163   149   150    2
   164    74    73    1
   165    29    26    1
   166   148   151    1
   167    47    45   ar
   168    70    73    1
   169    70    69    1
   170    38    37    1
   171    37    36    1
   172    46    44   ar
   173    26    25    1
   174    26    27    1
   175    35    36    1
   176    35    34    1
   177    45    44   ar
   178    34    31    1
   179    44    43    1
   180    27    28    2
   181    31    32    1
   182    31    30    1
   183    43    40    1
   184    67    66    1
   185    32    33    2
   186    32    39   am
   187    39    40    1
   188    40    41    1
   189    66    68    1
   190    66    65    1
   191    60    58    1
   192    41    42    2
   193    65    62    1
   194    57    58    2
   195    57    56    1
   196    58    59    1
   197    62    61    1
   198    62    63    1
   199    56    55    1
   200    61    52   am
   201    54    55    1
   202    54    51    1
   203    50    51    1
   204    52    51    1
   205    52    53    2
   206    63    64    2
