@<TRIPOS>MOLECULE
tmp/4hrtG00.pdb
 220 211 0 0 0
SMALL
GASTEIGER

@<TRIPOS>ATOM
      1  N         60.2140   62.4590   68.1810 N.3    36  LEU36      -0.1245
      2  CA        58.8550   62.0100   67.8780 C.3    36  LEU36       0.1561
      3  C         58.6770   61.7610   66.3720 C.2    36  LEU36       0.2260
      4  O         58.1340   60.7260   65.9750 O.2    36  LEU36      -0.2867
      5  CB        57.8080   63.0120   68.3820 C.3    36  LEU36       0.0270
      6  CG        56.3370   62.6140   68.1840 C.3    36  LEU36       0.0019
      7  CD1       55.9750   61.2850   68.8490 C.3    36  LEU36       0.0001
      8  CD2       55.4210   63.7350   68.6680 C.3    36  LEU36       0.0001
      9  N         57.8760   58.3200   64.4370 N.3    40  LEU40      -0.1245
     10  CA        56.7470   58.2240   63.5160 C.3    40  LEU40       0.1561
     11  C         57.1740   57.6130   62.1740 C.2    40  LEU40       0.2260
     12  O         56.5500   56.6680   61.7000 O.2    40  LEU40      -0.2867
     13  CB        56.0640   59.5870   63.3130 C.3    40  LEU40       0.0270
     14  CG        54.8580   59.5830   62.3540 C.3    40  LEU40       0.0019
     15  CD1       53.7120   58.7370   62.9020 C.3    40  LEU40       0.0001
     16  CD2       54.3900   61.0030   62.0610 C.3    40  LEU40       0.0001
     17  N         53.1410   56.6450   56.8970 N.3    47  THR47      -0.1218
     18  CA        52.7150   58.0270   57.1500 C.3    47  THR47       0.1862
     19  C         53.5220   59.0710   56.3640 C.2    47  THR47       0.2287
     20  O         53.0980   60.2250   56.2550 O.2    47  THR47      -0.2866
     21  CB        52.7380   58.4020   58.6520 C.3    47  THR47       0.1770
     22  OG1       54.0780   58.3400   59.1440 O.3    47  THR47      -0.2211
     23  CG2       51.8430   57.4690   59.4610 C.3    47  THR47       0.0375
     24  N         51.9400   61.6290   53.7500 N.3    50  TYR50      -0.1227
     25  CA        51.2820   62.8880   54.1290 C.3    50  TYR50       0.1736
     26  C         52.2340   64.0860   54.1310 C.2    50  TYR50       0.2595
     27  O         51.7960   65.2400   54.1750 O.2    50  TYR50      -0.2718
     28  CB        50.6480   62.7670   55.5270 C.3    50  TYR50       0.0548
     29  CG        49.4920   61.7910   55.6000 C.ar   50  TYR50      -0.0200
     30  CD1       48.2070   62.1750   55.2090 C.ar   50  TYR50      -0.0009
     31  CD2       49.6830   60.4810   56.0500 C.ar   50  TYR50      -0.0009
     32  CE1       47.1420   61.2810   55.2550 C.ar   50  TYR50       0.0417
     33  CE2       48.6270   59.5790   56.1080 C.ar   50  TYR50       0.0417
     34  CZ        47.3570   59.9830   55.7100 C.ar   50  TYR50       0.1957
     35  OH        46.3020   59.0960   55.7630 O.3    50  TYR50      -0.2866
     36  N         53.5340   63.8150   54.0890 N.am   51  PHE51      -0.1976
     37  CA        54.5350   64.8450   54.3770 C.3    51  PHE51       0.1639
     38  C         55.4280   65.1790   53.1930 C.2    51  PHE51       0.2290
     39  O         56.6100   65.5160   53.3610 O.2    51  PHE51      -0.2864
     40  CB        55.3990   64.4310   55.5800 C.3    51  PHE51       0.0560
     41  CG        54.6470   64.3720   56.8770 C.ar   51  PHE51      -0.0200
     42  CD1       54.5340   65.5110   57.6740 C.ar   51  PHE51      -0.0042
     43  CD2       54.0640   63.1800   57.3150 C.ar   51  PHE51      -0.0042
     44  CE1       53.8470   65.4630   58.8820 C.ar   51  PHE51      -0.0003
     45  CE2       53.3800   63.1280   58.5300 C.ar   51  PHE51      -0.0003
     46  CZ        53.2700   64.2690   59.3070 C.ar   51  PHE51      -0.0000
     47  N         55.7660   67.7270   51.3240 N.3    53  ARG53      -0.1231
     48  CA        56.3760   69.0610   51.2880 C.3    53  ARG53       0.1694
     49  C         57.6950   69.1320   52.0560 C.2    53  ARG53       0.2591
     50  O         58.5660   69.9390   51.7200 O.2    53  ARG53      -0.2718
     51  CB        55.4050   70.1310   51.8130 C.3    53  ARG53       0.0321
     52  CG        55.8650   71.5640   51.5700 C.3    53  ARG53       0.0489
     53  CD        55.0880   72.5810   52.4030 C.3    53  ARG53       0.2205
     54  NE        55.4200   72.5390   53.8370 N.pl3  53  ARG53      -0.0865
     55  CZ        56.4620   73.1530   54.4110 C.cat  53  ARG53       0.5346
     56  NH1       57.3200   73.8640   53.6870 N.pl3  53  ARG53       0.1354
     57  NH2       56.6550   73.0440   55.7250 N.pl3  53  ARG53       0.1354
     58  N         57.8280   68.2890   53.0850 N.am   54  LEU54      -0.1980
     59  CA        59.0190   68.2840   53.9330 C.3    54  LEU54       0.1596
     60  C         60.2750   67.6980   53.2770 C.2    54  LEU54       0.2287
     61  O         61.3860   67.9270   53.7590 O.2    54  LEU54      -0.2864
     62  CB        58.7350   67.5640   55.2590 C.3    54  LEU54       0.0297
     63  CG        57.5890   68.1160   56.1170 C.3    54  LEU54       0.0022
     64  CD1       57.5700   67.4630   57.4960 C.3    54  LEU54       0.0001
     65  CD2       57.6930   69.6310   56.2700 C.3    54  LEU54       0.0001
     66  N         58.8590   71.8950   61.2280 N.3    69  HIS69      -0.1241
     67  CA        57.6630   71.1580   61.5950 C.3    69  HIS69       0.1621
     68  C         57.7980   70.5310   62.9960 C.2    69  HIS69       0.2264
     69  O         56.8770   70.6320   63.8320 O.2    69  HIS69      -0.2867
     70  CB        57.3350   70.0670   60.5780 C.3    69  HIS69       0.0745
     71  CG        56.1820   69.2170   61.0010 C.ar   69  HIS69       0.0817
     72  ND1       54.8820   69.6740   60.9910 N.ar   69  HIS69      -0.2268
     73  CD2       56.1400   67.9670   61.5190 C.ar   69  HIS69       0.1154
     74  CE1       54.0840   68.7280   61.4520 C.ar   69  HIS69       0.1986
     75  NE2       54.8230   67.6840   61.7860 N.ar   69  HIS69      -0.2212
     76  N         57.5620   73.1390   65.7090 N.3    72  THR72      -0.1203
     77  CA        56.2150   73.7170   65.7490 C.3    72  THR72       0.1994
     78  C         55.1720   72.7720   66.3420 C.2    72  THR72       0.2617
     79  O         54.2960   73.2110   67.1110 O.2    72  THR72      -0.2717
     80  CB        55.8190   74.2320   64.3440 C.3    72  THR72       0.1784
     81  OG1       56.7650   75.2440   63.9760 O.3    72  THR72      -0.2211
     82  CG2       54.4130   74.8210   64.3280 C.3    72  THR72       0.0376
     83  N         55.2850   71.4820   66.0290 N.am   73  LEU73      -0.1979
     84  CA        54.3890   70.4580   66.5620 C.3    73  LEU73       0.1596
     85  C         54.3180   70.5380   68.0970 C.2    73  LEU73       0.2287
     86  O         53.2490   70.3920   68.7030 O.2    73  LEU73      -0.2864
     87  CB        54.8520   69.0610   66.1130 C.3    73  LEU73       0.0297
     88  CG        54.1530   67.8030   66.6590 C.3    73  LEU73       0.0022
     89  CD1       54.2200   66.6530   65.6580 C.3    73  LEU73       0.0001
     90  CD2       54.7100   67.3770   68.0160 C.3    73  LEU73       0.0001
     91  N         51.6960   72.8910   69.8590 N.3    76  ALA76      -0.1231
     92  CA        50.3380   72.3480   70.0110 C.3    76  ALA76       0.1694
     93  C         50.2540   71.4810   71.2770 C.2    76  ALA76       0.2591
     94  O         49.3030   71.6070   72.0410 O.2    76  ALA76      -0.2718
     95  CB        49.9360   71.5470   68.7770 C.3    76  ALA76       0.0304
     96  N         51.2350   70.5980   71.4910 N.am   77  LEU77      -0.1980
     97  CA        51.2600   69.7850   72.7170 C.3    77  LEU77       0.1596
     98  C         51.2710   70.6890   73.9480 C.2    77  LEU77       0.2287
     99  O         50.5500   70.4250   74.9110 O.2    77  LEU77      -0.2864
    100  CB        52.4490   68.8160   72.7410 C.3    77  LEU77       0.0297
    101  CG        52.5420   67.7730   71.6150 C.3    77  LEU77       0.0022
    102  CD1       53.8150   66.9440   71.7690 C.3    77  LEU77       0.0001
    103  CD2       51.3050   66.8870   71.5390 C.3    77  LEU77       0.0001
    104  N         47.7800   72.0380   74.4440 N.3    80  PHE80      -0.1241
    105  CA        46.9220   70.9610   74.9900 C.3    80  PHE80       0.1605
    106  C         47.1540   70.7800   76.4960 C.2    80  PHE80       0.2264
    107  O         46.2070   70.7080   77.2700 O.2    80  PHE80      -0.2867
    108  CB        47.1530   69.5910   74.3070 C.3    80  PHE80       0.0534
    109  CG        46.8380   69.5350   72.8200 C.ar   80  PHE80      -0.0203
    110  CD1       46.0780   70.5120   72.1660 C.ar   80  PHE80      -0.0042
    111  CD2       47.2870   68.4470   72.0950 C.ar   80  PHE80      -0.0042
    112  CE1       45.8110   70.4150   70.8000 C.ar   80  PHE80      -0.0003
    113  CE2       47.0260   68.3410   70.7330 C.ar   80  PHE80      -0.0003
    114  CZ        46.2830   69.3230   70.0880 C.ar   80  PHE80      -0.0000
    115  N         42.6790   72.9770   66.2320 N.3    97  PHE97      -0.1241
    116  CA        43.8110   72.1700   65.7640 C.3    97  PHE97       0.1605
    117  C         43.4110   71.2100   64.6440 C.2    97  PHE97       0.2264
    118  O         44.1720   71.0040   63.6810 O.2    97  PHE97      -0.2867
    119  CB        44.3780   71.3910   66.9660 C.3    97  PHE97       0.0534
    120  CG        45.3930   70.3350   66.6120 C.ar   97  PHE97      -0.0203
    121  CD1       44.9930   69.0250   66.3090 C.ar   97  PHE97      -0.0042
    122  CD2       46.7590   70.6320   66.6190 C.ar   97  PHE97      -0.0042
    123  CE1       45.9340   68.0450   66.0120 C.ar   97  PHE97      -0.0003
    124  CE2       47.6970   69.6550   66.3190 C.ar   97  PHE97      -0.0003
    125  CZ        47.2890   68.3610   66.0110 C.ar   97  PHE97      -0.0000
    126  N         42.9090   72.0730   60.0970 N.3   100  ASN100     -0.1225
    127  CA        43.9150   71.8280   59.0440 C.3   100  ASN100      0.1785
    128  C         44.1600   70.3410   58.7880 C.2   100  ASN100      0.2597
    129  O         44.4450   69.9340   57.6530 O.2   100  ASN100     -0.2718
    130  CB        45.2490   72.4990   59.3650 C.3   100  ASN100      0.1169
    131  CG        45.2030   74.0170   59.2620 C.2   100  ASN100      0.2627
    132  OD1       44.2920   74.5980   58.6710 O.2   100  ASN100     -0.2716
    133  ND2       46.2040   74.6680   59.8430 N.am  100  ASN100     -0.0877
    134  N         44.0440   69.5320   59.8410 N.am  101  HIS101     -0.1975
    135  CA        44.2170   68.0810   59.7240 C.3   101  HIS101      0.1656
    136  C         43.0670   67.4160   58.9500 C.2   101  HIS101      0.2291
    137  O         43.3080   66.5390   58.1060 O.2   101  HIS101     -0.2864
    138  CB        44.4830   67.4410   61.1040 C.3   101  HIS101      0.0771
    139  CG        45.8410   67.7660   61.6630 C.ar  101  HIS101      0.0820
    140  ND1       46.0800   68.8900   62.4250 N.ar  101  HIS101     -0.2267
    141  CD2       47.0320   67.1280   61.5520 C.ar  101  HIS101      0.1154
    142  CE1       47.3560   68.9320   62.7620 C.ar  101  HIS101      0.1986
    143  NE2       47.9560   67.8680   62.2540 N.ar  101  HIS101     -0.2212
    144  N         43.5310   68.1560   55.2740 N.3   104  ARG104     -0.1245
    145  CA        44.5420   67.2170   54.7380 C.3   104  ARG104      0.1563
    146  C         44.0560   65.7860   54.5870 C.2   104  ARG104      0.2260
    147  O         44.8370   64.9130   54.2010 O.2   104  ARG104     -0.2867
    148  CB        45.7290   67.1340   55.6950 C.3   104  ARG104      0.0307
    149  CG        46.6220   68.3240   55.6600 C.3   104  ARG104      0.0489
    150  CD        47.6430   68.2720   56.7790 C.3   104  ARG104      0.2205
    151  NE        48.1490   69.6190   56.8580 N.pl3 104  ARG104     -0.0865
    152  CZ        48.1570   70.3990   57.9280 C.cat 104  ARG104      0.5346
    153  NH1       47.7850   69.9510   59.1450 N.pl3 104  ARG104      0.1354
    154  NH2       48.6040   71.6360   57.7650 N.pl3 104  ARG104      0.1354
    155  N         43.2430   63.6330   56.9410 N.3   106  ILE106     -0.1245
    156  CA        43.7960   62.7420   57.9560 C.3   106  ILE106      0.1561
    157  C         42.6630   62.2940   58.8690 C.2   106  ILE106      0.2260
    158  O         42.1210   63.0970   59.6300 O.2   106  ILE106     -0.2867
    159  CB        44.9140   63.4240   58.7790 C.3   106  ILE106      0.0252
    160  CG1       46.0440   63.8840   57.8480 C.3   106  ILE106      0.0019
    161  CG2       45.4460   62.4920   59.8680 C.3   106  ILE106      0.0019
    162  CD1       46.9750   64.9010   58.4730 C.3   106  ILE106      0.0001
    163  N         44.1110   57.3510   60.9750 N.3   110  ALA110     -0.1231
    164  CA        45.4310   57.7660   60.5000 C.3   110  ALA110      0.1694
    165  C         46.2040   58.5370   61.5720 C.2   110  ALA110      0.2592
    166  O         47.3940   58.3000   61.7770 O.2   110  ALA110     -0.2718
    167  CB        45.3160   58.5920   59.2230 C.3   110  ALA110      0.0304
    168  N         45.5200   59.4510   62.2570 N.am  111  PHE111     -0.1976
    169  CA        46.1600   60.2620   63.2950 C.3   111  PHE111      0.1639
    170  C         46.6810   59.3900   64.4390 C.2   111  PHE111      0.2290
    171  O         47.7410   59.6740   65.0170 O.2   111  PHE111     -0.2864
    172  CB        45.1920   61.3250   63.8140 C.3   111  PHE111      0.0560
    173  CG        45.8570   62.4270   64.5990 C.ar  111  PHE111     -0.0200
    174  CD1       46.3400   63.5770   63.9660 C.ar  111  PHE111     -0.0042
    175  CD2       45.9980   62.3170   65.9830 C.ar  111  PHE111     -0.0042
    176  CE1       46.9530   64.5880   64.6910 C.ar  111  PHE111     -0.0003
    177  CE2       46.6060   63.3280   66.7140 C.ar  111  PHE111     -0.0003
    178  CZ        47.0840   64.4620   66.0790 C.ar  111  PHE111     -0.0000
    179  N         48.2530   56.7920   64.3220 N.3   113  ALA113     -0.1231
    180  CA        49.6220   56.3520   64.0470 C.3   113  ALA113      0.1694
    181  C         50.6570   56.9700   64.9850 C.2   113  ALA113      0.2591
    182  O         51.7430   56.4040   65.1540 O.2   113  ALA113     -0.2718
    183  CB        49.9960   56.6370   62.6060 C.3   113  ALA113      0.0304
    184  N         50.3260   58.1150   65.5980 N.am  114  ILE114     -0.1980
    185  CA        51.2720   58.8120   66.4750 C.3   114  ILE114      0.1595
    186  C         51.4330   58.1520   67.8500 C.2   114  ILE114      0.2287
    187  O         52.4160   58.4060   68.5350 O.2   114  ILE114     -0.2864
    188  CB        50.9030   60.3100   66.6390 C.3   114  ILE114      0.0276
    189  CG1       52.1090   61.1470   67.0910 C.3   114  ILE114      0.0022
    190  CG2       49.6970   60.4910   67.5670 C.3   114  ILE114      0.0022
    191  CD1       53.2160   61.2940   66.0710 C.3   114  ILE114      0.0001
    192  N         54.8070   58.0190   70.0700 N.3   118  MET118     -0.1245
    193  CA        54.8540   58.8060   71.3120 C.3   118  MET118      0.1570
    194  C         55.3120   57.9610   72.5080 C.2   118  MET118      0.2261
    195  O         56.1820   58.3930   73.2810 O.2   118  MET118     -0.2867
    196  CB        53.5180   59.5160   71.5980 C.3   118  MET118      0.0387
    197  CG        53.5230   60.2950   72.9170 C.3   118  MET118      0.0595
    198  SD        54.7430   61.6250   73.0390 S.3   118  MET118     -0.1393
    199  CE        53.8420   62.9110   72.2010 C.3   118  MET118      0.0692
    200  N         48.7610   59.8150   77.2490 N.3   138  TRP138     -0.1241
    201  CA        48.9360   60.3880   75.9090 C.3   138  TRP138      0.1605
    202  C         47.9630   59.7830   74.8830 C.2   138  TRP138      0.2264
    203  O         47.4320   60.5020   74.0340 O.2   138  TRP138     -0.2867
    204  CB        50.4130   60.3240   75.4590 C.3   138  TRP138      0.0550
    205  CG        51.2280   61.3630   76.1830 C.ar  138  TRP138      0.0003
    206  CD1       51.9770   61.1790   77.3220 C.ar  138  TRP138      0.0946
    207  CD2       51.3300   62.7540   75.8550 C.ar  138  TRP138      0.0152
    208  NE1       52.5510   62.3700   77.7010 N.ar  138  TRP138     -0.2442
    209  CE2       52.1790   63.3490   76.8140 C.ar  138  TRP138      0.0810
    210  CE3       50.7950   63.5560   74.8310 C.ar  138  TRP138      0.0012
    211  CZ2       52.4890   64.7180   76.8000 C.ar  138  TRP138      0.0191
    212  CZ3       51.1100   64.9150   74.8080 C.ar  138  TRP138      0.0001
    213  CH2       51.9540   65.4820   75.7900 C.ar  138  TRP138      0.0015
    214  N         45.3880   62.0080   72.6930 N.3   142  VAL142     -0.1245
    215  CA        45.2890   61.8030   71.2440 C.3   142  VAL142      0.1561
    216  C         43.8560   61.4050   70.8570 C.2   142  VAL142      0.2260
    217  O         43.3520   61.8180   69.8080 O.2   142  VAL142     -0.2867
    218  CB        46.3310   60.7750   70.7420 C.3   142  VAL142      0.0252
    219  CG1       46.0330   60.3420   69.3080 C.3   142  VAL142      0.0019
    220  CG2       47.7330   61.3760   70.8050 C.3   142  VAL142      0.0019
@<TRIPOS>BOND
     1    48    47    1
     2    48    51    1
     3    48    49    1
     4    52    51    1
     5    52    53    1
     6    50    49    2
     7    49    58   am
     8    53    54    1
     9    58    59    1
    10    38    39    2
    11    38    37    1
    12    60    61    2
    13    60    59    1
    14    56    55    1
    15    24    25    1
    16    54    55    2
    17    59    62    1
    18    36    26   am
    19    36    37    1
    20    25    26    1
    21    25    28    1
    22    26    27    2
    23   147   146    2
    24    37    40    1
    25    55    57    1
    26   146   145    1
    27   145   144    1
    28   145   148    1
    29    30    32   ar
    30    30    29   ar
    31    32    34   ar
    32    62    63    1
    33    28    29    1
    34    40    41    1
    35    29    31   ar
    36   149   148    1
    37   149   150    1
    38    34    35    1
    39    34    33   ar
    40    31    33   ar
    41    63    65    1
    42    63    64    1
    43    20    19    2
    44    19    18    1
    45   150   151    1
    46   151   152    2
    47    41    43   ar
    48    41    42   ar
    49    17    18    1
    50   155   156    1
    51    18    21    1
    52    43    45   ar
    53   129   128    2
    54    42    44   ar
    55   154   152    1
    56   160   162    1
    57   160   159    1
    58   152   153    1
    59   156   159    1
    60   156   157    1
    61   137   136    2
    62    45    46   ar
    63    21    22    1
    64    21    23    1
    65   132   131    2
    66   159   161    1
    67   128   127    1
    68   128   134   am
    69   157   158    2
    70    44    46   ar
    71   136   135    1
    72   127   130    1
    73   127   126    1
    74   167   164    1
    75   131   130    1
    76   131   133   am
    77   135   134    1
    78   135   138    1
    79   164   163    1
    80   164   165    1
    81    70    71    1
    82    70    67    1
    83    72    71   ar
    84    72    74   ar
    85    71    73   ar
    86   138   139    1
    87    66    67    1
    88    74    75   ar
    89    73    75   ar
    90   141   139   ar
    91   141   143   ar
    92   165   166    2
    93   165   168   am
    94    67    68    1
    95   139   140   ar
    96    12    11    2
    97    16    14    1
    98    11    10    1
    99   143   142   ar
   100   168   169    1
   101    14    15    1
   102    14    13    1
   103   140   142   ar
   104   183   180    1
   105    68    69    2
   106   169   172    1
   107   169   170    1
   108    13    10    1
   109    10     9    1
   110   118   117    2
   111   172   173    1
   112   174   173   ar
   113   174   176   ar
   114    81    80    1
   115   180   179    1
   116   180   181    1
   117    82    80    1
   118    80    77    1
   119   170   171    2
   120   173   175   ar
   121   117   116    1
   122   176   178   ar
   123   181   182    2
   124   181   184   am
   125   184   185    1
   126    89    88    1
   127    76    77    1
   128    77    78    1
   129   116   115    1
   130   116   119    1
   131     4     3    2
   132   175   177   ar
   133   125   123   ar
   134   125   124   ar
   135   123   121   ar
   136    83    78   am
   137    83    84    1
   138   191   189    1
   139   178   177   ar
   140    87    84    1
   141    87    88    1
   142   121   120   ar
   143   124   122   ar
   144    78    79    2
   145     3     2    1
   146   185   188    1
   147   185   186    1
   148    84    85    1
   149   120   122   ar
   150   120   119    1
   151   188   189    1
   152   188   190    1
   153    88    90    1
   154   186   187    2
   155     2     1    1
   156     2     5    1
   157    85    86    2
   158     6     5    1
   159     6     8    1
   160     6     7    1
   161    95    92    1
   162   219   218    1
   163   217   216    2
   164    91    92    1
   165    92    93    1
   166   192   193    1
   167   114   113   ar
   168   114   112   ar
   169   113   111   ar
   170   218   220    1
   171   218   215    1
   172   112   110   ar
   173   216   215    1
   174   215   214    1
   175    93    96   am
   176    93    94    2
   177   193   196    1
   178   193   194    1
   179    96    97    1
   180   103   101    1
   181   196   197    1
   182   101   102    1
   183   101   100    1
   184   111   109   ar
   185   110   109   ar
   186   199   198    1
   187   194   195    2
   188    97   100    1
   189    97    98    1
   190   109   108    1
   191   197   198    1
   192    98    99    2
   193   203   202    2
   194   108   105    1
   195   104   105    1
   196   212   210   ar
   197   212   213   ar
   198   210   207   ar
   199   202   201    1
   200   105   106    1
   201   204   201    1
   202   204   205    1
   203   213   211   ar
   204   207   205   ar
   205   207   209   ar
   206   201   200    1
   207   205   206   ar
   208   106   107    2
   209   211   209   ar
   210   209   208   ar
   211   206   208   ar
