@<TRIPOS>MOLECULE
tmp/4hryA00.pdb
 160 156 0 0 0
SMALL
GASTEIGER

@<TRIPOS>ATOM
      1  N        -11.4690  -15.9400   15.6320 N.3    25  PHE25      -0.1241
      2  CA       -11.4160  -14.9820   16.7500 C.3    25  PHE25       0.1605
      3  C        -12.5610  -15.2490   17.7340 C.2    25  PHE25       0.2264
      4  O        -13.6910  -15.5280   17.3150 O.2    25  PHE25      -0.2867
      5  CB       -11.5980  -13.5590   16.1860 C.3    25  PHE25       0.0534
      6  CG       -11.6750  -12.4670   17.2210 C.ar   25  PHE25      -0.0203
      7  CD1      -12.9080  -11.9660   17.6380 C.ar   25  PHE25      -0.0042
      8  CD2      -10.5220  -11.9630   17.8080 C.ar   25  PHE25      -0.0042
      9  CE1      -12.9810  -10.9220   18.5760 C.ar   25  PHE25      -0.0003
     10  CE2      -10.6000  -10.9430   18.7690 C.ar   25  PHE25      -0.0003
     11  CZ       -11.8230  -10.4120   19.1160 C.ar   25  PHE25      -0.0000
     12  N        -11.0770  -21.8650   10.2610 N.3    93  HIS93      -0.1226
     13  CA       -12.2940  -21.1590   10.5640 C.3    93  HIS93       0.1752
     14  C        -12.0110  -19.6580   10.6950 C.2    93  HIS93       0.2597
     15  O        -11.1390  -19.2500   11.4610 O.2    93  HIS93      -0.2718
     16  CB       -12.9110  -21.6840   11.8640 C.3    93  HIS93       0.0759
     17  CG       -14.0370  -20.8430   12.3780 C.ar   93  HIS93       0.0818
     18  ND1      -13.9600  -20.1930   13.6050 N.ar   93  HIS93      -0.2268
     19  CD2      -15.2130  -20.5290   11.7850 C.ar   93  HIS93       0.1154
     20  CE1      -15.0860  -19.5010   13.7230 C.ar   93  HIS93       0.1986
     21  NE2      -15.8740  -19.6650   12.6460 N.ar   93  HIS93      -0.2212
     22  N        -12.7550  -18.8580    9.9470 N.am   94  SER94      -0.1938
     23  CA       -12.7480  -17.4070   10.0350 C.3    94  SER94       0.2055
     24  C        -11.3200  -16.8590    9.8260 C.2    94  SER94       0.2642
     25  O        -10.7310  -17.1870    8.7930 O.2    94  SER94      -0.2714
     26  CB       -13.3960  -16.9650   11.3480 C.3    94  SER94       0.2130
     27  OG       -13.7270  -15.5860   11.3850 O.3    94  SER94      -0.2179
     28  N        -10.7250  -16.0960   10.7950 N.am   95  VAL95      -0.1977
     29  CA        -9.3500  -15.5790   10.5750 C.3    95  VAL95       0.1596
     30  C         -8.3680  -16.7040   10.2220 C.2    95  VAL95       0.2287
     31  O         -7.4460  -16.4840    9.4510 O.2    95  VAL95      -0.2864
     32  CB        -8.8420  -14.7100   11.7660 C.3    95  VAL95       0.0276
     33  CG1       -8.6620  -15.5200   13.0550 C.3    95  VAL95       0.0022
     34  CG2       -7.5570  -13.9520   11.4110 C.3    95  VAL95       0.0022
     35  N        -12.8280   -7.1840    5.2320 N.3   123  TYR123     -0.1241
     36  CA       -14.1490   -6.9330    5.8020 C.3   123  TYR123      0.1605
     37  C        -14.7100   -5.5700    5.4460 C.2   123  TYR123      0.2264
     38  O        -15.9230   -5.3880    5.4870 O.2   123  TYR123     -0.2867
     39  CB       -14.0540   -7.0510    7.3240 C.3   123  TYR123      0.0534
     40  CG       -13.5920   -8.4160    7.7710 C.ar  123  TYR123     -0.0201
     41  CD1      -12.2460   -8.6630    8.0420 C.ar  123  TYR123     -0.0009
     42  CD2      -14.4990   -9.4670    7.9330 C.ar  123  TYR123     -0.0009
     43  CE1      -11.8130   -9.9200    8.4710 C.ar  123  TYR123      0.0417
     44  CE2      -14.0720  -10.7330    8.3400 C.ar  123  TYR123      0.0417
     45  CZ       -12.7280  -10.9550    8.6030 C.ar  123  TYR123      0.1957
     46  OH       -12.2850  -12.2020    8.9930 O.3   123  TYR123     -0.2866
     47  N        -18.7350   -4.3360    5.9300 N.3   133  PHE133     -0.1241
     48  CA       -18.5890   -3.3120    6.9430 C.3   133  PHE133      0.1605
     49  C        -18.0920   -2.0070    6.3740 C.2   133  PHE133      0.2264
     50  O        -17.2560   -1.9950    5.4730 O.2   133  PHE133     -0.2867
     51  CB       -17.5740   -3.7820    8.0170 C.3   133  PHE133      0.0534
     52  CG       -17.9910   -5.0240    8.7770 C.ar  133  PHE133     -0.0203
     53  CD1      -18.6900   -4.9270    9.9730 C.ar  133  PHE133     -0.0042
     54  CD2      -17.6950   -6.2920    8.2840 C.ar  133  PHE133     -0.0042
     55  CE1      -19.0720   -6.0730   10.6750 C.ar  133  PHE133     -0.0003
     56  CE2      -18.0580   -7.4360    8.9970 C.ar  133  PHE133     -0.0003
     57  CZ       -18.7600   -7.3210   10.1750 C.ar  133  PHE133     -0.0000
     58  N        -17.7800   -0.5990   16.9100 N.3   141  LEU141     -0.1245
     59  CA       -17.4850   -1.8730   17.5430 C.3   141  LEU141      0.1561
     60  C        -16.2890   -1.6960   18.5150 C.2   141  LEU141      0.2260
     61  O        -16.3720   -2.1580   19.6380 O.2   141  LEU141     -0.2867
     62  CB       -17.1960   -2.9410   16.4700 C.3   141  LEU141      0.0270
     63  CG       -16.9530   -4.3550   16.9520 C.3   141  LEU141      0.0019
     64  CD1      -17.5080   -5.3640   15.9540 C.3   141  LEU141      0.0001
     65  CD2      -15.4580   -4.6120   17.1420 C.3   141  LEU141      0.0001
     66  N        -16.0020   -2.0130   22.7360 N.3   145  ILE145     -0.1245
     67  CA       -15.0310   -2.8490   23.4470 C.3   145  ILE145      0.1561
     68  C        -14.2680   -2.0040   24.5090 C.2   145  ILE145      0.2260
     69  O        -13.9970   -2.5020   25.6070 O.2   145  ILE145     -0.2867
     70  CB       -14.0970   -3.5560   22.4270 C.3   145  ILE145      0.0252
     71  CG1      -14.8760   -4.6740   21.7020 C.3   145  ILE145      0.0019
     72  CG2      -12.8270   -4.1360   23.0950 C.3   145  ILE145      0.0019
     73  CD1      -14.1720   -5.2870   20.4690 C.3   145  ILE145      0.0001
     74  N        -20.3350   -5.6990   25.6010 N.3   152  TRP152     -0.1241
     75  CA       -20.1090   -5.9210   24.1750 C.3   152  TRP152      0.1605
     76  C        -20.1730   -7.4230   23.8730 C.2   152  TRP152      0.2264
     77  O        -20.8990   -7.8070   22.9470 O.2   152  TRP152     -0.2867
     78  CB       -18.7960   -5.2950   23.6560 C.3   152  TRP152      0.0550
     79  CG       -18.5400   -5.6670   22.2200 C.ar  152  TRP152      0.0003
     80  CD1      -19.1430   -5.1360   21.1140 C.ar  152  TRP152      0.0946
     81  CD2      -17.7390   -6.7650   21.7540 C.ar  152  TRP152      0.0152
     82  NE1      -18.7160   -5.7950   19.9790 N.ar  152  TRP152     -0.2442
     83  CE2      -17.8540   -6.7980   20.3440 C.ar  152  TRP152      0.0810
     84  CE3      -16.9390   -7.7270   22.3920 C.ar  152  TRP152      0.0012
     85  CZ2      -17.1630   -7.7320   19.5590 C.ar  152  TRP152      0.0191
     86  CZ3      -16.2370   -8.6400   21.6110 C.ar  152  TRP152      0.0001
     87  CH2      -16.3660   -8.6450   20.2130 C.ar  152  TRP152      0.0015
     88  N        -22.7520   -9.0600   21.3280 N.3   156  PHE156     -0.1241
     89  CA       -22.1550   -9.5190   20.0760 C.3   156  PHE156      0.1605
     90  C        -22.3010  -11.0080   19.8440 C.2   156  PHE156      0.2264
     91  O        -22.5660  -11.4240   18.7050 O.2   156  PHE156     -0.2867
     92  CB       -20.6740   -9.1370   20.0470 C.3   156  PHE156      0.0534
     93  CG       -20.0020   -9.4270   18.7320 C.ar  156  PHE156     -0.0203
     94  CD1      -19.0960  -10.4720   18.6160 C.ar  156  PHE156     -0.0042
     95  CD2      -20.2440   -8.6270   17.6200 C.ar  156  PHE156     -0.0042
     96  CE1      -18.4370  -10.7140   17.4080 C.ar  156  PHE156     -0.0003
     97  CE2      -19.5930   -8.8730   16.4100 C.ar  156  PHE156     -0.0003
     98  CZ       -18.6910   -9.9100   16.3150 C.ar  156  PHE156     -0.0000
     99  N        -23.1590  -12.8390   16.2910 N.3   160  ALA160     -0.1245
    100  CA       -22.1200  -13.5960   15.5830 C.3   160  ALA160      0.1562
    101  C        -22.5480  -15.0530   15.3750 C.2   160  ALA160      0.2260
    102  O        -22.3640  -15.5980   14.2850 O.2   160  ALA160     -0.2867
    103  CB       -20.8090  -13.5220   16.3580 C.3   160  ALA160      0.0290
    104  N        -19.9270  -19.3000   22.9340 N.3   173  PHE173     -0.1241
    105  CA       -19.1710  -18.2110   22.3400 C.3   173  PHE173      0.1605
    106  C        -19.1270  -16.9740   23.2340 C.2   173  PHE173      0.2264
    107  O        -18.0930  -16.3020   23.2650 O.2   173  PHE173     -0.2867
    108  CB       -19.7180  -17.8760   20.9550 C.3   173  PHE173      0.0534
    109  CG       -18.8280  -16.9640   20.1450 C.ar  173  PHE173     -0.0203
    110  CD1      -17.5380  -17.3620   19.7800 C.ar  173  PHE173     -0.0042
    111  CD2      -19.2730  -15.7120   19.7390 C.ar  173  PHE173     -0.0042
    112  CE1      -16.7180  -16.5200   19.0230 C.ar  173  PHE173     -0.0003
    113  CE2      -18.4770  -14.8970   18.9430 C.ar  173  PHE173     -0.0003
    114  CZ       -17.1970  -15.2960   18.5990 C.ar  173  PHE173     -0.0000
    115  N         -8.8580   -7.7260   17.4500 N.3   189  GLY189     -0.1225
    116  CA       -10.0470   -7.3720   16.6760 C.3   189  GLY189      0.1811
    117  C         -9.6960   -6.3180   15.6460 C.2   189  GLY189      0.2280
    118  O        -10.0990   -6.4100   14.4770 O.2   189  GLY189     -0.2866
    119  N         -7.4350   -7.9020   12.7870 N.3   192  ILE192     -0.1231
    120  CA        -8.2210   -8.7090   11.8510 C.3   192  ILE192      0.1692
    121  C         -9.1320   -7.8650   10.9880 C.2   192  ILE192      0.2592
    122  O         -9.1460   -8.0090    9.7620 O.2   192  ILE192     -0.2718
    123  CB        -9.0110   -9.7950   12.6320 C.3   192  ILE192      0.0266
    124  CG1       -8.0390  -10.7380   13.3580 C.3   192  ILE192      0.0019
    125  CG2       -9.9370  -10.5870   11.6950 C.3   192  ILE192      0.0020
    126  CD1       -8.7520  -11.7820   14.2130 C.3   192  ILE192      0.0001
    127  N         -9.9420   -7.0090   11.6350 N.am  193  PHE193     -0.1976
    128  CA       -10.9320   -6.2310   10.9130 C.3   193  PHE193      0.1639
    129  C        -10.3450   -5.3070    9.9070 C.2   193  PHE193      0.2290
    130  O        -11.0180   -5.0010    8.9130 O.2   193  PHE193     -0.2864
    131  CB       -11.8670   -5.4640   11.8500 C.3   193  PHE193      0.0560
    132  CG       -13.1480   -6.1680   12.1920 C.ar  193  PHE193     -0.0200
    133  CD1      -13.9320   -6.7480   11.1970 C.ar  193  PHE193     -0.0042
    134  CD2      -13.6210   -6.1830   13.4940 C.ar  193  PHE193     -0.0042
    135  CE1      -15.1360   -7.3750   11.5110 C.ar  193  PHE193     -0.0003
    136  CE2      -14.8400   -6.7880   13.8040 C.ar  193  PHE193     -0.0003
    137  CZ       -15.5860   -7.3870   12.8110 C.ar  193  PHE193     -0.0000
    138  N        -22.8980  -12.8440    9.7470 N.3   217  LEU217     -0.1231
    139  CA       -22.7710  -11.4430   10.1540 C.3   217  LEU217      0.1693
    140  C        -21.5410  -10.7490    9.5700 C.2   217  LEU217      0.2591
    141  O        -21.5960   -9.5560    9.2570 O.2   217  LEU217     -0.2718
    142  CB       -22.6830  -11.3820   11.6910 C.3   217  LEU217      0.0284
    143  CG       -22.6790  -10.0230   12.3940 C.3   217  LEU217      0.0019
    144  CD1      -24.1230   -9.4290   12.4610 C.3   217  LEU217      0.0001
    145  CD2      -22.0920  -10.1590   13.7890 C.3   217  LEU217      0.0001
    146  N        -20.4230  -11.4830    9.4690 N.am  218  ALA218     -0.1980
    147  CA       -19.1700  -10.8640    9.0210 C.3   218  ALA218      0.1597
    148  C        -18.7380  -11.2290    7.6330 C.2   218  ALA218      0.2287
    149  O        -17.6660  -10.7910    7.1920 O.2   218  ALA218     -0.2864
    150  CB       -18.0610  -11.2080   10.0110 C.3   218  ALA218      0.0319
    151  N        -21.7450  -17.4030   12.0350 N.3   245  HIS245     -0.1241
    152  CA       -20.3270  -17.3100   11.7080 C.3   245  HIS245      0.1621
    153  C        -19.5130  -18.5420   12.1890 C.2   245  HIS245      0.2264
    154  O        -18.4030  -18.7680   11.7010 O.2   245  HIS245     -0.2867
    155  CB       -19.7760  -16.0310   12.3130 C.3   245  HIS245      0.0745
    156  CG       -18.3970  -15.6990   11.8320 C.ar  245  HIS245      0.0817
    157  ND1      -18.1950  -15.1180   10.6020 N.ar  245  HIS245     -0.2268
    158  CD2      -17.2000  -15.8820   12.4350 C.ar  245  HIS245      0.1154
    159  CE1      -16.8860  -14.9560   10.4800 C.ar  245  HIS245      0.1986
    160  NE2      -16.2460  -15.3960   11.5660 N.ar  245  HIS245     -0.2212
@<TRIPOS>BOND
     1    35    36    1
     2    37    38    2
     3    37    36    1
     4    50    49    2
     5    36    39    1
     6    47    48    1
     7    49    48    1
     8    48    51    1
     9   149   148    2
    10    39    40    1
    11   148   147    1
    12    40    42   ar
    13    40    41   ar
    14    42    44   ar
    15    51    52    1
    16    41    43   ar
    17    54    52   ar
    18    54    56   ar
    19    44    45   ar
    20    43    45   ar
    21    45    46    1
    22    52    53   ar
    23    25    24    2
    24   130   129    2
    25    56    57   ar
    26   147   146    1
    27   147   150    1
    28   141   140    2
    29    31    30    2
    30   146   140   am
    31   140   139    1
    32   138   139    1
    33   122   121    2
    34    24    23    1
    35    24    28   am
    36   129   128    1
    37    22    23    1
    38    22    14   am
    39    53    55   ar
    40    23    26    1
    41   139   142    1
    42    57    55   ar
    43    30    29    1
    44    12    13    1
    45   159   157   ar
    46   159   160   ar
    47    13    14    1
    48    13    16    1
    49    29    28    1
    50    29    32    1
    51   157   156   ar
    52    14    15    2
    53   128   127    1
    54   128   131    1
    55   121   127   am
    56   121   120    1
    57   133   135   ar
    58   133   132   ar
    59    26    27    1
    60    34    32    1
    61   135   137   ar
    62   160   158   ar
    63   142   143    1
    64   125   123    1
    65   154   153    2
    66   152   151    1
    67   152   153    1
    68   152   155    1
    69    32    33    1
    70    19    17   ar
    71    19    21   ar
    72   156   155    1
    73   156   158   ar
    74   131   132    1
    75   120   123    1
    76   120   119    1
    77    16    17    1
    78   132   134   ar
    79    17    18   ar
    80   143   144    1
    81   143   145    1
    82   123   124    1
    83    21    20   ar
    84   137   136   ar
    85   124   126    1
    86   134   136   ar
    87    18    20   ar
    88   102   101    2
    89   118   117    2
    90   101   100    1
    91   100    99    1
    92   100   103    1
    93     1     2    1
    94   117   116    1
    95    64    63    1
    96     5     2    1
    97     5     6    1
    98    98    97   ar
    99    98    96   ar
   100    97    95   ar
   101    62    63    1
   102    62    59    1
   103   116   115    1
   104     2     3    1
   105    58    59    1
   106    63    65    1
   107     6     7   ar
   108     6     8   ar
   109     4     3    2
   110    96    94   ar
   111    59    60    1
   112    95    93   ar
   113     7     9   ar
   114     8    10   ar
   115    60    61    2
   116     9    11   ar
   117   114   113   ar
   118   114   112   ar
   119    94    93   ar
   120    91    90    2
   121    93    92    1
   122    10    11   ar
   123   113   111   ar
   124   112   110   ar
   125    85    87   ar
   126    85    83   ar
   127   111   109   ar
   128   110   109   ar
   129    90    89    1
   130    82    83   ar
   131    82    80   ar
   132    92    89    1
   133    89    88    1
   134   109   108    1
   135    87    86   ar
   136    83    81   ar
   137    73    71    1
   138   108   105    1
   139    80    79   ar
   140    86    84   ar
   141    71    70    1
   142    81    79   ar
   143    81    84   ar
   144    79    78    1
   145   105   104    1
   146   105   106    1
   147    70    72    1
   148    70    67    1
   149    66    67    1
   150    77    76    2
   151   106   107    2
   152    67    68    1
   153    78    75    1
   154    76    75    1
   155    75    74    1
   156    68    69    2
