@<TRIPOS>MOLECULE
tmp/4hs7A00.pdb
 121 118 0 0 0
SMALL
GASTEIGER

@<TRIPOS>ATOM
      1  N         21.0770  -24.3850   14.7790 N.3    43  ASN43      -0.1240
      2  CA        21.7270  -25.2400   15.7780 C.3    43  ASN43       0.1653
      3  C         20.9180  -25.3140   17.0570 C.2    43  ASN43       0.2266
      4  O         21.2670  -26.0710   17.9530 O.2    43  ASN43      -0.2867
      5  CB        23.1290  -24.7360   16.1380 C.3    43  ASN43       0.1155
      6  CG        24.0470  -24.6400   14.9390 C.2    43  ASN43       0.2627
      7  OD1       23.9180  -25.3930   13.9730 O.2    43  ASN43      -0.2716
      8  ND2       24.9830  -23.7000   14.9940 N.am   43  ASN43      -0.0877
      9  N         21.6800  -33.4190    8.6470 N.3    67  ASP67      -0.1239
     10  CA        22.3320  -34.3770    9.5460 C.3    67  ASP67       0.1674
     11  C         21.3920  -34.7460   10.7180 C.2    67  ASP67       0.2266
     12  O         21.4880  -35.8300   11.2930 O.2    67  ASP67      -0.2867
     13  CB        23.6610  -33.7950   10.0690 C.3    67  ASP67       0.1410
     14  CG        24.5480  -33.2100    8.9340 C.2    67  ASP67       0.3668
     15  OD1       24.0870  -32.3140    8.1950 O.co2  67  ASP67      -0.2456
     16  OD2       25.7230  -33.6070    8.7930 O.co2  67  ASP67      -0.2456
     17  N         25.5190  -27.6970   -0.1110 N.3   113  GLU113     -0.1245
     18  CA        26.9160  -27.3430    0.0140 C.3   113  GLU113      0.1567
     19  C         27.8190  -28.5610   -0.2160 C.2   113  GLU113      0.2260
     20  O         27.5570  -29.6510    0.3080 O.2   113  GLU113     -0.2867
     21  CB        27.1360  -26.7950    1.4190 C.3   113  GLU113      0.0388
     22  CG        28.4130  -26.0220    1.6410 C.3   113  GLU113      0.1160
     23  CD        28.5720  -25.5750    3.1050 C.2   113  GLU113      0.3649
     24  OE1       28.5330  -24.3530    3.3600 O.co2 113  GLU113     -0.2457
     25  OE2       28.6980  -26.4360    4.0100 O.co2 113  GLU113     -0.2457
     26  N         41.0050  -33.7260    7.8420 N.3   157  ASN157     -0.1240
     27  CA        39.5950  -33.6320    8.1100 C.3   157  ASN157      0.1653
     28  C         38.8240  -34.5810    7.1920 C.2   157  ASN157      0.2266
     29  O         38.8680  -34.4710    5.9690 O.2   157  ASN157     -0.2867
     30  CB        39.1360  -32.1880    7.9120 C.3   157  ASN157      0.1155
     31  CG        37.6990  -31.9630    8.3640 C.2   157  ASN157      0.2627
     32  OD1       36.9180  -32.9110    8.5040 O.2   157  ASN157     -0.2716
     33  ND2       37.3440  -30.7070    8.5930 N.am  157  ASN157     -0.0877
     34  N         35.8260  -34.7350    6.4350 N.3   159  TYR159     -0.1227
     35  CA        34.9140  -34.0480    5.5480 C.3   159  TYR159      0.1736
     36  C         35.5780  -33.6980    4.2020 C.2   159  TYR159      0.2595
     37  O         34.9610  -33.8000    3.1550 O.2   159  TYR159     -0.2718
     38  CB        34.4260  -32.7710    6.1970 C.3   159  TYR159      0.0548
     39  CG        33.5790  -31.9510    5.2620 C.ar  159  TYR159     -0.0200
     40  CD1       32.2290  -32.2050    5.1220 C.ar  159  TYR159     -0.0009
     41  CD2       34.1370  -30.9440    4.4980 C.ar  159  TYR159     -0.0009
     42  CE1       31.4500  -31.4790    4.2480 C.ar  159  TYR159      0.0417
     43  CE2       33.3610  -30.1940    3.6300 C.ar  159  TYR159      0.0417
     44  CZ        32.0150  -30.4710    3.5100 C.ar  159  TYR159      0.1957
     45  OH        31.2420  -29.7380    2.6580 O.3   159  TYR159     -0.2866
     46  N         36.8360  -33.2800    4.2390 N.am  160  PHE160     -0.1976
     47  CA        37.5430  -32.8990    3.0260 C.3   160  PHE160      0.1639
     48  C         38.2190  -34.0850    2.3270 C.2   160  PHE160      0.2290
     49  O         38.2670  -34.1370    1.1000 O.2   160  PHE160     -0.2864
     50  CB        38.5890  -31.8270    3.3390 C.3   160  PHE160      0.0560
     51  CG        38.0100  -30.4960    3.7330 C.ar  160  PHE160     -0.0200
     52  CD1       37.2740  -29.7620    2.8370 C.ar  160  PHE160     -0.0042
     53  CD2       38.2610  -29.9530    4.9670 C.ar  160  PHE160     -0.0042
     54  CE1       36.7580  -28.5310    3.1700 C.ar  160  PHE160     -0.0003
     55  CE2       37.7390  -28.7100    5.3260 C.ar  160  PHE160     -0.0003
     56  CZ        36.9870  -28.0010    4.4160 C.ar  160  PHE160     -0.0000
     57  N         43.3050  -25.8030    7.4680 N.3   214  HIS214     -0.1226
     58  CA        42.4730  -25.2780    6.3930 C.3   214  HIS214      0.1752
     59  C         42.6330  -23.7610    6.2650 C.2   214  HIS214      0.2596
     60  O         42.7620  -23.2450    5.1770 O.2   214  HIS214     -0.2718
     61  CB        41.0170  -25.6660    6.5900 C.3   214  HIS214      0.0759
     62  CG        40.1470  -25.2540    5.4590 C.ar  214  HIS214      0.0818
     63  ND1       39.1450  -24.3220    5.5940 N.ar  214  HIS214     -0.2268
     64  CD2       40.1640  -25.6070    4.1540 C.ar  214  HIS214      0.1154
     65  CE1       38.5530  -24.1460    4.4260 C.ar  214  HIS214      0.1986
     66  NE2       39.1580  -24.9090    3.5330 N.ar  214  HIS214     -0.2212
     67  N         42.6730  -23.0530    7.3780 N.am  215  ASP215     -0.1974
     68  CA        42.8460  -21.6000    7.3040 C.3   215  ASP215      0.1709
     69  C         44.1620  -21.2100    6.6490 C.2   215  ASP215      0.2293
     70  O         44.1970  -20.2480    5.8920 O.2   215  ASP215     -0.2864
     71  CB        42.7100  -20.9440    8.6850 C.3   215  ASP215      0.1436
     72  CG        41.2610  -20.9120    9.1820 C.2   215  ASP215      0.3671
     73  OD1       40.3230  -20.9470    8.3390 O.co2 215  ASP215     -0.2456
     74  OD2       41.0660  -20.8310   10.4200 O.co2 215  ASP215     -0.2456
     75  N         32.8070  -21.0770    0.3720 N.3   234  TRP234     -0.1241
     76  CA        32.7850  -20.0220    1.3870 C.3   234  TRP234      0.1605
     77  C         33.5980  -18.7760    1.1180 C.2   234  TRP234      0.2264
     78  O         33.1680  -17.6830    1.4770 O.2   234  TRP234     -0.2867
     79  CB        33.2290  -20.6120    2.7250 C.3   234  TRP234      0.0550
     80  CG        32.5460  -21.9210    2.9970 C.ar  234  TRP234      0.0003
     81  CD1       31.2080  -22.1200    3.1840 C.ar  234  TRP234      0.0946
     82  CD2       33.1620  -23.2180    3.0770 C.ar  234  TRP234      0.0152
     83  NE1       30.9600  -23.4530    3.3870 N.ar  234  TRP234     -0.2442
     84  CE2       32.1450  -24.1470    3.3200 C.ar  234  TRP234      0.0810
     85  CE3       34.4720  -23.6740    2.9810 C.ar  234  TRP234      0.0012
     86  CZ2       32.4020  -25.5100    3.4710 C.ar  234  TRP234      0.0191
     87  CZ3       34.7230  -25.0320    3.1450 C.ar  234  TRP234      0.0001
     88  CH2       33.6970  -25.9250    3.3800 C.ar  234  TRP234      0.0015
     89  N         25.9860  -36.6160    3.5780 N.3   330  MET330     -0.1245
     90  CA        26.5270  -37.0540    4.8440 C.3   330  MET330      0.1570
     91  C         25.3640  -37.8370    5.4770 C.2   330  MET330      0.2261
     92  O         24.2360  -37.3380    5.5610 O.2   330  MET330     -0.2867
     93  CB        26.9380  -35.8640    5.6980 C.3   330  MET330      0.0387
     94  CG        28.0930  -35.0920    5.1030 C.3   330  MET330      0.0595
     95  SD        28.5210  -33.5490    5.9200 S.3   330  MET330     -0.1393
     96  CE        27.0820  -32.5390    5.5280 C.3   330  MET330      0.0692
     97  N         27.2170  -39.0400   13.9680 N.3   337  ARG337     -0.1245
     98  CA        27.9310  -38.1580   14.9090 C.3   337  ARG337      0.1563
     99  C         29.1250  -38.8580   15.5370 C.2   337  ARG337      0.2260
    100  O         30.0890  -38.2260   15.9720 O.2   337  ARG337     -0.2867
    101  CB        26.9760  -37.7010   16.0130 C.3   337  ARG337      0.0307
    102  CG        25.9320  -36.7720   15.4750 C.3   337  ARG337      0.0489
    103  CD        24.5780  -36.8580   16.1680 C.3   337  ARG337      0.2205
    104  NE        23.5550  -36.2320   15.3100 N.pl3 337  ARG337     -0.0865
    105  CZ        22.2350  -36.2760   15.5170 C.cat 337  ARG337      0.5346
    106  NH1       21.7300  -36.9320   16.5670 N.pl3 337  ARG337      0.1354
    107  NH2       21.4150  -35.6580   14.6620 N.pl3 337  ARG337      0.1354
    108  N         32.7790  -38.9150   12.9020 N.3   340  TRP340     -0.1241
    109  CA        33.6510  -37.7760   12.6210 C.3   340  TRP340      0.1605
    110  C         34.9700  -37.7430   13.3690 C.2   340  TRP340      0.2264
    111  O         36.0350  -37.6260   12.7400 O.2   340  TRP340     -0.2867
    112  CB        32.9070  -36.4640   12.8500 C.3   340  TRP340      0.0550
    113  CG        31.6830  -36.3020   11.9850 C.ar  340  TRP340      0.0003
    114  CD1       30.3950  -36.3330   12.3940 C.ar  340  TRP340      0.0946
    115  CD2       31.6470  -36.1130   10.5720 C.ar  340  TRP340      0.0152
    116  NE1       29.5560  -36.1400   11.3360 N.ar  340  TRP340     -0.2442
    117  CE2       30.3040  -35.9950   10.2040 C.ar  340  TRP340      0.0810
    118  CE3       32.6250  -36.0100    9.5860 C.ar  340  TRP340      0.0012
    119  CZ2       29.9090  -35.8090    8.8920 C.ar  340  TRP340      0.0191
    120  CZ3       32.2310  -35.7950    8.2810 C.ar  340  TRP340      0.0001
    121  CH2       30.8930  -35.7020    7.9450 C.ar  340  TRP340      0.0015
@<TRIPOS>BOND
     1    19    18    1
     2    19    20    2
     3    17    18    1
     4    18    21    1
     5    75    76    1
     6    49    48    2
     7    77    76    1
     8    77    78    2
     9    76    79    1
    10    21    22    1
    11    22    23    1
    12    48    47    1
    13    45    44    1
    14    79    80    1
    15    52    54   ar
    16    52    51   ar
    17    85    82   ar
    18    85    87   ar
    19    80    82   ar
    20    80    81   ar
    21    47    50    1
    22    47    46    1
    23    82    84   ar
    24    23    24   ar
    25    23    25   ar
    26    87    88   ar
    27    37    36    2
    28    54    56   ar
    29    81    83   ar
    30    84    83   ar
    31    84    86   ar
    32    50    51    1
    33    88    86   ar
    34    44    43   ar
    35    44    42   ar
    36    66    64   ar
    37    66    65   ar
    38    89    90    1
    39    43    41   ar
    40    51    53   ar
    41    64    62   ar
    42    36    46   am
    43    36    35    1
    44    42    40   ar
    45    56    55   ar
    46    65    63   ar
    47    41    39   ar
    48    90    91    1
    49    90    93    1
    50    53    55   ar
    51    94    93    1
    52    94    95    1
    53    40    39   ar
    54    60    59    2
    55    39    38    1
    56    62    63   ar
    57    62    61    1
    58    91    92    2
    59    96    95    1
    60    35    38    1
    61    35    34    1
    62    70    69    2
    63    29    28    2
    64    59    58    1
    65    59    67   am
    66    58    61    1
    67    58    57    1
    68    69    68    1
    69    28    27    1
    70    68    67    1
    71    68    71    1
    72    26    27    1
    73    30    27    1
    74    30    31    1
    75   121   120   ar
    76   121   119   ar
    77    15    14   ar
    78   120   118   ar
    79    73    72   ar
    80    31    32    2
    81    31    33   am
    82     9    10    1
    83    71    72    1
    84    16    14   ar
    85   119   117   ar
    86    14    13    1
    87    72    74   ar
    88    10    13    1
    89    10    11    1
    90   118   115   ar
    91   117   115   ar
    92   117   116   ar
    93   115   113   ar
    94    11    12    2
    95   116   114   ar
    96   113   114   ar
    97   113   112    1
    98   109   112    1
    99   109   108    1
   100   109   110    1
   101   111   110    2
   102    97    98    1
   103     7     6    2
   104   107   105    1
   105     1     2    1
   106    98    99    1
   107    98   101    1
   108     6     8   am
   109     6     5    1
   110   104   105    2
   111   104   103    1
   112   102   101    1
   113   102   103    1
   114   105   106    1
   115    99   100    2
   116     2     5    1
   117     2     3    1
   118     3     4    2
