@<TRIPOS>MOLECULE
tmp/4hs9A01.pdb
 213 205 0 0 0
SMALL
GASTEIGER

@<TRIPOS>ATOM
      1  N        -23.6330   -2.3120    7.0950 N.3    13  LEU13      -0.1245
      2  CA       -24.7980   -2.5870    7.8950 C.3    13  LEU13       0.1561
      3  C        -25.9510   -1.6880    7.4940 C.2    13  LEU13       0.2260
      4  O        -26.4440   -0.9770    8.2820 O.2    13  LEU13      -0.2867
      5  CB       -24.5240   -2.3360    9.3640 C.3    13  LEU13       0.0270
      6  CG       -23.5150   -3.1970   10.0810 C.3    13  LEU13       0.0019
      7  CD1      -23.5520   -2.9410   11.5590 C.3    13  LEU13       0.0001
      8  CD2      -23.7160   -4.6600    9.7430 C.3    13  LEU13       0.0001
      9  N        -28.8290    0.2750    9.6290 N.3    16  PHE16      -0.1241
     10  CA       -28.3340    0.6460   10.9700 C.3    16  PHE16       0.1605
     11  C        -29.0430    1.9020   11.4500 C.2    16  PHE16       0.2264
     12  O        -29.4600    1.9830   12.5740 O.2    16  PHE16      -0.2867
     13  CB       -26.8020    0.9240   10.9260 C.3    16  PHE16       0.0534
     14  CG       -26.2010    1.1890   12.2250 C.ar   16  PHE16      -0.0203
     15  CD1      -25.5730    0.1890   12.9180 C.ar   16  PHE16      -0.0042
     16  CD2      -26.1460    2.4760   12.7360 C.ar   16  PHE16      -0.0042
     17  CE1      -24.9650    0.4470   14.1420 C.ar   16  PHE16      -0.0003
     18  CE2      -25.5950    2.7450   13.9640 C.ar   16  PHE16      -0.0003
     19  CZ       -24.9530    1.7110   14.6590 C.ar   16  PHE16      -0.0000
     20  N        -32.7580    1.2950   12.3120 N.3    19  ILE19      -0.1245
     21  CA       -32.9720    0.4280   13.4730 C.3    19  ILE19       0.1561
     22  C        -32.4000    1.0040   14.7510 C.2    19  ILE19       0.2260
     23  O        -33.0560    0.9460   15.7690 O.2    19  ILE19      -0.2867
     24  CB       -32.3540   -0.9610   13.2490 C.3    19  ILE19       0.0252
     25  CG1      -33.1730   -1.6770   12.1700 C.3    19  ILE19       0.0019
     26  CG2      -32.2420   -1.7330   14.5760 C.3    19  ILE19       0.0019
     27  CD1      -32.3700   -2.6620   11.3620 C.3    19  ILE19       0.0001
     28  N        -24.0220    5.1460   11.7220 N.3    24  TYR24      -0.1241
     29  CA       -22.9260    4.2230   11.9610 C.3    24  TYR24       0.1605
     30  C        -21.5570    4.9230   12.1920 C.2    24  TYR24       0.2264
     31  O        -20.8410    4.6500   13.1800 O.2    24  TYR24      -0.2867
     32  CB       -22.8270    3.2850   10.7380 C.3    24  TYR24       0.0534
     33  CG       -21.7870    2.2060   10.7490 C.ar   24  TYR24      -0.0201
     34  CD1      -20.4530    2.4480   10.4510 C.ar   24  TYR24      -0.0009
     35  CD2      -22.1410    0.8710   10.8870 C.ar   24  TYR24      -0.0009
     36  CE1      -19.5110    1.4680   10.4280 C.ar   24  TYR24       0.0417
     37  CE2      -21.1980   -0.1160   10.7990 C.ar   24  TYR24       0.0417
     38  CZ       -19.8820    0.1560   10.6160 C.ar   24  TYR24       0.1957
     39  OH       -18.9500   -0.8170   10.4860 O.3    24  TYR24      -0.2866
     40  N        -25.6440   -6.0830    4.8240 N.3    46  ALA46      -0.1231
     41  CA       -24.8070   -7.0230    5.6810 C.3    46  ALA46       0.1694
     42  C        -24.8390   -8.4620    5.1960 C.2    46  ALA46       0.2592
     43  O        -23.8630   -9.1910    5.3460 O.2    46  ALA46      -0.2718
     44  CB       -25.2460   -7.0190    7.1430 C.3    46  ALA46       0.0304
     45  N        -25.9700   -8.8580    4.6530 N.am   47  PHE47      -0.1976
     46  CA       -26.2590  -10.2860    4.4090 C.3    47  PHE47       0.1639
     47  C        -25.8810  -10.7900    3.0140 C.2    47  PHE47       0.2290
     48  O        -26.3230  -11.8430    2.5640 O.2    47  PHE47      -0.2864
     49  CB       -27.7270  -10.5440    4.7330 C.3    47  PHE47       0.0560
     50  CG       -28.0810  -10.2160    6.1670 C.ar   47  PHE47      -0.0200
     51  CD1      -27.3360  -10.7760    7.2240 C.ar   47  PHE47      -0.0042
     52  CD2      -29.1240   -9.3510    6.4780 C.ar   47  PHE47      -0.0042
     53  CE1      -27.6340  -10.4770    8.5520 C.ar   47  PHE47      -0.0003
     54  CE2      -29.4510   -9.0780    7.8060 C.ar   47  PHE47      -0.0003
     55  CZ       -28.6950   -9.6290    8.8450 C.ar   47  PHE47      -0.0000
     56  N        -15.2070    1.1880    6.7280 N.3    78  HIS78      -0.1226
     57  CA       -14.8540    0.5270    7.9540 C.3    78  HIS78       0.1752
     58  C        -15.2940   -0.9280    7.8450 C.2    78  HIS78       0.2597
     59  O        -16.3580   -1.2080    7.2350 O.2    78  HIS78      -0.2718
     60  CB       -15.5410    1.2420    9.1300 C.3    78  HIS78       0.0759
     61  CG       -15.3840    0.5480   10.4480 C.ar   78  HIS78       0.0818
     62  ND1      -16.4130   -0.1110   11.0710 N.ar   78  HIS78      -0.2268
     63  CD2      -14.3580    0.5400   11.3250 C.ar   78  HIS78       0.1154
     64  CE1      -16.0130   -0.5670   12.2490 C.ar   78  HIS78       0.1986
     65  NE2      -14.7730   -0.1560   12.4460 N.ar   78  HIS78      -0.2212
     66  N        -14.5480   -1.8030    8.5190 N.am   79  SER79      -0.1938
     67  CA       -14.9570   -3.2340    8.6620 C.3    79  SER79       0.2055
     68  C        -15.1440   -3.9010    7.3340 C.2    79  SER79       0.2642
     69  O        -14.1710   -4.0360    6.6100 O.2    79  SER79      -0.2714
     70  CB       -16.2180   -3.2930    9.5380 C.3    79  SER79       0.2130
     71  OG       -16.4170   -4.6400   10.0530 O.3    79  SER79      -0.2179
     72  N        -16.3630   -4.3470    6.9610 N.am   80  GLN80      -0.1976
     73  CA       -16.5650   -4.9030    5.5880 C.3    80  GLN80       0.1601
     74  C        -16.5460   -3.8770    4.4920 C.2    80  GLN80       0.2287
     75  O        -16.3610   -4.1780    3.3170 O.2    80  GLN80      -0.2864
     76  CB       -17.9770   -5.6120    5.3740 C.3    80  GLN80       0.0394
     77  CG       -18.5200   -6.4210    6.4660 C.3    80  GLN80       0.0908
     78  CD       -19.5280   -5.6810    7.1940 C.2    80  GLN80       0.2608
     79  OE1      -19.2280   -4.6470    7.7510 O.2    80  GLN80      -0.2717
     80  NE2      -20.7470   -6.1870    7.2180 N.am   80  GLN80      -0.0878
     81  N        -21.8550  -11.7270   20.9790 N.3   136  PHE136     -0.1241
     82  CA       -22.7100  -11.3720   19.8490 C.3   136  PHE136      0.1605
     83  C        -24.1020  -10.9770   20.2960 C.2   136  PHE136      0.2264
     84  O        -24.7040  -10.0360   19.7820 O.2   136  PHE136     -0.2867
     85  CB       -22.6500  -12.4370   18.6980 C.3   136  PHE136      0.0534
     86  CG       -21.4530  -12.2520   17.7860 C.ar  136  PHE136     -0.0203
     87  CD1      -21.5500  -11.4870   16.6190 C.ar  136  PHE136     -0.0042
     88  CD2      -20.2420  -12.7000   18.1500 C.ar  136  PHE136     -0.0042
     89  CE1      -20.4420  -11.2140   15.8530 C.ar  136  PHE136     -0.0003
     90  CE2      -19.1600  -12.5720   17.3600 C.ar  136  PHE136     -0.0003
     91  CZ       -19.2280  -11.7690   16.2490 C.ar  136  PHE136     -0.0000
     92  N        -23.7420   -7.5850   21.7230 N.3   139  ILE139     -0.1231
     93  CA       -23.6040   -6.5180   20.6730 C.3   139  ILE139      0.1692
     94  C        -24.9790   -6.2860   19.9970 C.2   139  ILE139      0.2591
     95  O        -25.4160   -5.1140   19.7880 O.2   139  ILE139     -0.2718
     96  CB       -22.5220   -6.8460   19.6360 C.3   139  ILE139      0.0266
     97  CG1      -21.1600   -6.9250   20.3050 C.3   139  ILE139      0.0019
     98  CG2      -22.5160   -5.8600   18.4450 C.3   139  ILE139      0.0020
     99  CD1      -20.1940   -7.7800   19.4890 C.3   139  ILE139      0.0001
    100  N        -25.5830   -7.3790   19.5190 N.am  140  ILE140     -0.1980
    101  CA       -26.8100   -7.3000   18.7480 C.3   140  ILE140      0.1595
    102  C        -27.9460   -6.6490   19.5590 C.2   140  ILE140      0.2287
    103  O        -28.7010   -5.8030   19.0150 O.2   140  ILE140     -0.2864
    104  CB       -27.1790   -8.6600   18.0780 C.3   140  ILE140      0.0276
    105  CG1      -26.1850   -9.0330   16.9970 C.3   140  ILE140      0.0022
    106  CG2      -28.5320   -8.5780   17.4290 C.3   140  ILE140      0.0022
    107  CD1      -26.2900  -10.4810   16.6140 C.3   140  ILE140      0.0001
    108  N        -27.4100   -2.6770   20.0420 N.3   143  PHE143     -0.1227
    109  CA       -27.8310   -1.9060   18.8320 C.3   143  PHE143      0.1736
    110  C        -29.3460   -2.0410   18.4700 C.2   143  PHE143      0.2596
    111  O        -30.0040   -1.0280   18.2500 O.2   143  PHE143     -0.2718
    112  CB       -26.9550   -2.3140   17.6350 C.3   143  PHE143      0.0547
    113  CG       -25.5220   -1.7640   17.6830 C.ar  143  PHE143     -0.0202
    114  CD1      -24.4440   -2.6110   17.5400 C.ar  143  PHE143     -0.0042
    115  CD2      -25.2750   -0.4430   17.7980 C.ar  143  PHE143     -0.0042
    116  CE1      -23.1260   -2.1410   17.5330 C.ar  143  PHE143     -0.0003
    117  CE2      -23.9780    0.0570   17.8040 C.ar  143  PHE143     -0.0003
    118  CZ       -22.8910   -0.7900   17.6950 C.ar  143  PHE143     -0.0000
    119  N        -29.9120   -3.2630   18.4960 N.am  144  SER144     -0.1952
    120  CA       -31.2410   -3.5740   17.9220 C.3   144  SER144      0.1924
    121  C        -32.3820   -3.8400   18.9420 C.2   144  SER144      0.2314
    122  O        -33.5720   -3.8540   18.5660 O.2   144  SER144     -0.2863
    123  CB       -31.1330   -4.8720   17.1140 C.3   144  SER144      0.2116
    124  OG       -31.2490   -6.0030   18.0020 O.3   144  SER144     -0.2180
    125  N        -32.7230   -6.7070   20.6670 N.3   146  HIS146     -0.1241
    126  CA       -33.0030   -8.1390   20.7350 C.3   146  HIS146      0.1621
    127  C        -31.6950   -8.8400   20.6300 C.2   146  HIS146      0.2264
    128  O        -30.8400   -8.4120   19.8700 O.2   146  HIS146     -0.2867
    129  CB       -33.8910   -8.5880   19.5700 C.3   146  HIS146      0.0745
    130  CG       -35.1310   -7.7730   19.4340 C.ar  146  HIS146      0.0817
    131  ND1      -36.3130   -8.0940   20.0750 N.ar  146  HIS146     -0.2268
    132  CD2      -35.3550   -6.6060   18.7880 C.ar  146  HIS146      0.1154
    133  CE1      -37.2170   -7.1640   19.8090 C.ar  146  HIS146      0.1986
    134  NE2      -36.6640   -6.2550   19.0230 N.ar  146  HIS146     -0.2212
    135  N        -28.8520  -15.8330   13.2140 N.3   152  ASP152     -0.1225
    136  CA       -29.1070  -14.4350   12.6960 C.3   152  ASP152      0.1805
    137  C        -27.9150  -13.8070   12.0240 C.2   152  ASP152      0.2597
    138  O        -28.0980  -12.9580   11.1330 O.2   152  ASP152     -0.2718
    139  CB       -29.4580  -13.3670   13.8020 C.3   152  ASP152      0.1424
    140  CG       -30.9580  -13.1200   13.9730 C.2   152  ASP152      0.3668
    141  OD1      -31.7960  -14.0550   13.7450 O.co2 152  ASP152     -0.2456
    142  OD2      -31.2760  -11.9550   14.3610 O.co2 152  ASP152     -0.2456
    143  N        -26.7430  -14.1490   12.5510 N.am  153  ALA153     -0.1979
    144  CA       -25.4880  -13.5340   12.2460 C.3   153  ALA153      0.1597
    145  C        -24.7090  -14.2260   11.1660 C.2   153  ALA153      0.2287
    146  O        -23.7480  -13.7200   10.6940 O.2   153  ALA153     -0.2864
    147  CB       -24.6400  -13.4800   13.4870 C.3   153  ALA153      0.0319
    148  N        -24.4810  -12.6730    7.7790 N.3   156  ALA156     -0.1231
    149  CA       -23.5050  -11.5900    7.8630 C.3   156  ALA156      0.1694
    150  C        -22.0210  -11.9590    7.9900 C.2   156  ALA156      0.2591
    151  O        -21.1880  -11.3960    7.3360 O.2   156  ALA156     -0.2718
    152  CB       -23.9070  -10.6470    8.9680 C.3   156  ALA156      0.0304
    153  N        -21.6940  -12.8980    8.8410 N.am  157  LEU157     -0.1980
    154  CA       -20.2850  -13.1160    9.1690 C.3   157  LEU157      0.1596
    155  C        -19.6140  -13.9960    8.1470 C.2   157  LEU157      0.2287
    156  O        -18.3840  -14.0280    8.0810 O.2   157  LEU157     -0.2864
    157  CB       -20.1230  -13.7940   10.5480 C.3   157  LEU157      0.0297
    158  CG       -20.3620  -12.8560   11.7630 C.3   157  LEU157      0.0022
    159  CD1      -20.4980  -13.6840   13.0160 C.3   157  LEU157      0.0001
    160  CD2      -19.2460  -11.8720   11.9740 C.3   157  LEU157      0.0001
    161  N        -17.0240  -12.4010    5.9320 N.3   160  LEU160     -0.1245
    162  CA       -15.8300  -11.9820    6.6660 C.3   160  LEU160      0.1561
    163  C        -14.8560  -13.1350    7.1040 C.2   160  LEU160      0.2260
    164  O        -13.8590  -12.8550    7.7650 O.2   160  LEU160     -0.2867
    165  CB       -16.2330  -11.1950    7.9050 C.3   160  LEU160      0.0270
    166  CG       -16.8790   -9.8140    7.7900 C.3   160  LEU160      0.0019
    167  CD1      -18.3480   -9.7540    7.6660 C.3   160  LEU160      0.0001
    168  CD2      -16.6420   -9.1080    9.1070 C.3   160  LEU160      0.0001
    169  N        -12.5380   -7.9580   16.7380 N.3   234  LEU234     -0.1245
    170  CA       -13.0440   -8.6430   15.5900 C.3   234  LEU234      0.1561
    171  C        -12.0380   -8.9500   14.4780 C.2   234  LEU234      0.2260
    172  O        -12.2360   -9.8190   13.7420 O.2   234  LEU234     -0.2867
    173  CB       -14.2320   -7.9140   14.9840 C.3   234  LEU234      0.0270
    174  CG       -15.6700   -8.0770   15.4500 C.3   234  LEU234      0.0019
    175  CD1      -16.2960   -9.4460   15.3170 C.3   234  LEU234      0.0001
    176  CD2      -15.9000   -7.5640   16.8470 C.3   234  LEU234      0.0001
    177  N        -12.8570   -2.3760   17.6910 N.3   254  HIS254     -0.1226
    178  CA       -13.4370   -2.2850   16.3330 C.3   254  HIS254      0.1752
    179  C        -14.5240   -1.2330   16.1890 C.2   254  HIS254      0.2596
    180  O        -14.5580   -0.4660   15.2070 O.2   254  HIS254     -0.2718
    181  CB       -14.0690   -3.6230   15.9890 C.3   254  HIS254      0.0759
    182  CG       -14.3810   -3.8040   14.5270 C.ar  254  HIS254      0.0818
    183  ND1      -13.4170   -3.9960   13.6000 N.ar  254  HIS254     -0.2268
    184  CD2      -15.5470   -3.8640   13.8550 C.ar  254  HIS254      0.1154
    185  CE1      -13.9520   -4.1510   12.4090 C.ar  254  HIS254      0.1986
    186  NE2      -15.2410   -4.0990   12.5430 N.ar  254  HIS254     -0.2212
    187  N        -15.4070   -1.1580   17.1430 N.am  255  PHE255     -0.1976
    188  CA       -16.4850   -0.1510   17.1770 C.3   255  PHE255      0.1639
    189  C        -16.0110    1.2660   17.5130 C.2   255  PHE255      0.2290
    190  O        -16.5810    2.2490   17.0270 O.2   255  PHE255     -0.2864
    191  CB       -17.6100   -0.5380   18.1440 C.3   255  PHE255      0.0560
    192  CG       -18.2240   -1.8530   17.8100 C.ar  255  PHE255     -0.0200
    193  CD1      -18.8740   -1.9980   16.6270 C.ar  255  PHE255     -0.0042
    194  CD2      -18.1110   -2.9290   18.6360 C.ar  255  PHE255     -0.0042
    195  CE1      -19.4280   -3.2390   16.2620 C.ar  255  PHE255     -0.0003
    196  CE2      -18.6850   -4.1820   18.2860 C.ar  255  PHE255     -0.0003
    197  CZ       -19.3020   -4.3180   17.0720 C.ar  255  PHE255     -0.0000
    198  N        -15.1810    3.7310   14.7350 N.3   258  VAL258     -0.1245
    199  CA       -16.2810    4.4890   14.1350 C.3   258  VAL258      0.1561
    200  C        -17.0220    5.3200   15.2040 C.2   258  VAL258      0.2260
    201  O        -18.1560    5.7480   14.9720 O.2   258  VAL258     -0.2867
    202  CB       -17.2180    3.6640   13.2640 C.3   258  VAL258      0.0252
    203  CG1      -16.4980    3.3330   11.9740 C.3   258  VAL258      0.0019
    204  CG2      -17.8090    2.4600   13.9540 C.3   258  VAL258      0.0019
    205  N        -18.2280    4.5000   18.1700 N.3   260  GLN260     -0.1245
    206  CA       -19.4140    3.8700   18.7280 C.3   260  GLN260      0.1566
    207  C        -19.0740    3.1970   20.0340 C.2   260  GLN260      0.2260
    208  O        -17.9260    2.8010   20.2480 O.2   260  GLN260     -0.2867
    209  CB       -19.8940    2.7910   17.7450 C.3   260  GLN260      0.0367
    210  CG       -20.4740    3.4350   16.4690 C.3   260  GLN260      0.0905
    211  CD       -21.8720    3.9860   16.6560 C.2   260  GLN260      0.2608
    212  OE1      -22.3890    3.9940   17.7490 O.2   260  GLN260     -0.2717
    213  NE2      -22.4570    4.4430   15.6060 N.am  260  GLN260     -0.0878
@<TRIPOS>BOND
     1    48    47    2
     2    47    46    1
     3    75    74    2
     4    46    45    1
     5    46    49    1
     6    74    73    1
     7    45    42   am
     8    49    50    1
     9    40    41    1
    10    42    43    2
    11    42    41    1
    12    76    73    1
    13    76    77    1
    14    73    72    1
    15    41    44    1
    16   161   162    1
    17    50    52   ar
    18    50    51   ar
    19    77    78    1
    20    52    54   ar
    21    69    68    2
    22   162   163    1
    23   162   165    1
    24    56    57    1
    25    72    68   am
    26     1     2    1
    27   163   164    2
    28    78    80   am
    29    78    79    2
    30    51    53   ar
    31    59    58    2
    32    68    67    1
    33   151   150    2
    34     3     2    1
    35     3     4    2
    36   167   166    1
    37   148   149    1
    38   166   165    1
    39   166   168    1
    40    54    55   ar
    41    58    57    1
    42    58    66   am
    43   149   150    1
    44   149   152    1
    45     2     5    1
    46    57    60    1
    47   150   153   am
    48   156   155    2
    49   155   154    1
    50    66    67    1
    51    53    55   ar
    52    67    70    1
    53   153   154    1
    54    60    61    1
    55   154   157    1
    56     5     6    1
    57    70    71    1
    58     9    10    1
    59     8     6    1
    60     6     7    1
    61    36    34   ar
    62    36    38   ar
    63    61    62   ar
    64    61    63   ar
    65    34    33   ar
    66    39    38    1
    67   157   158    1
    68    38    37   ar
    69   146   145    2
    70    32    33    1
    71    32    29    1
    72    33    35   ar
    73    37    35   ar
    74    13    10    1
    75    13    14    1
    76    10    11    1
    77    62    64   ar
    78   138   137    2
    79   145   144    1
    80    63    65   ar
    81    27    25    1
    82    11    12    2
    83    28    29    1
    84   158   160    1
    85   158   159    1
    86    29    30    1
    87   203   202    1
    88   137   143   am
    89   137   136    1
    90    25    24    1
    91    30    31    2
    92    14    16   ar
    93    14    15   ar
    94   144   143    1
    95   144   147    1
    96    64    65   ar
    97    20    21    1
    98   185   186   ar
    99   185   183   ar
   100   186   184   ar
   101   136   135    1
   102   136   139    1
   103    16    18   ar
   104    15    17   ar
   105    24    21    1
   106    24    26    1
   107   202   204    1
   108   202   199    1
   109    21    22    1
   110   183   182   ar
   111   172   171    2
   112   141   140   ar
   113   139   140    1
   114   184   182   ar
   115    18    19   ar
   116   140   142   ar
   117   199   198    1
   118   199   200    1
   119    17    19   ar
   120   171   170    1
   121   182   181    1
   122    22    23    2
   123   201   200    2
   124   173   174    1
   125   173   170    1
   126   180   179    2
   127   175   174    1
   128   174   176    1
   129   170   169    1
   130   213   211   am
   131    89    91   ar
   132    89    87   ar
   133   181   178    1
   134   179   178    1
   135   179   187   am
   136    91    90   ar
   137   195   193   ar
   138   195   197   ar
   139   178   177    1
   140   210   211    1
   141   210   209    1
   142   107   105    1
   143    87    86   ar
   144   193   192   ar
   145   211   212    2
   146   105   104    1
   147   190   189    2
   148   197   196   ar
   149   123   120    1
   150   123   124    1
   151   187   188    1
   152   188   189    1
   153   188   191    1
   154    90    88   ar
   155   106   104    1
   156   116   114   ar
   157   116   118   ar
   158   114   113   ar
   159   112   113    1
   160   112   109    1
   161   113   115   ar
   162   118   117   ar
   163   209   206    1
   164    86    88   ar
   165    86    85    1
   166   115   117   ar
   167   192   191    1
   168   192   194   ar
   169   120   119    1
   170   120   121    1
   171   104   101    1
   172   205   206    1
   173   111   110    2
   174   196   194   ar
   175    98    96    1
   176   110   119   am
   177   110   109    1
   178   122   121    2
   179    85    82    1
   180   206   207    1
   181   101   100    1
   182   101   102    1
   183   132   134   ar
   184   132   130   ar
   185   109   108    1
   186   103   102    2
   187   134   133   ar
   188   130   129    1
   189   130   131   ar
   190    99    97    1
   191   100    94   am
   192   129   126    1
   193    96    97    1
   194    96    93    1
   195    84    83    2
   196    95    94    2
   197   133   131   ar
   198    82    83    1
   199    82    81    1
   200   128   127    2
   201    94    93    1
   202   207   208    2
   203   127   126    1
   204   125   126    1
   205    93    92    1
