@<TRIPOS>MOLECULE
tmp/4hs9A00.pdb
 130 126 0 0 0
SMALL
GASTEIGER

@<TRIPOS>ATOM
      1  N        -23.6330   -2.3120    7.0950 N.3    13  LEU13      -0.1231
      2  CA       -24.7980   -2.5870    7.8950 C.3    13  LEU13       0.1693
      3  C        -25.9510   -1.6880    7.4940 C.2    13  LEU13       0.2592
      4  O        -26.4440   -0.9770    8.2820 O.2    13  LEU13      -0.2718
      5  CB       -24.5240   -2.3360    9.3640 C.3    13  LEU13       0.0284
      6  CG       -23.5150   -3.1970   10.0810 C.3    13  LEU13       0.0019
      7  CD1      -23.5520   -2.9410   11.5590 C.3    13  LEU13       0.0001
      8  CD2      -23.7160   -4.6600    9.7430 C.3    13  LEU13       0.0001
      9  N        -26.4350   -1.8550    6.2860 N.am   14  ALA14      -0.1966
     10  CA       -27.5850   -1.1240    5.8210 C.3    14  ALA14       0.1728
     11  C        -28.7470   -1.4140    6.7540 C.2    14  ALA14       0.2617
     12  O        -28.8990   -2.5060    7.2080 O.2    14  ALA14      -0.2715
     13  CB       -27.9390   -1.5420    4.4150 C.3    14  ALA14       0.0334
     14  N        -29.5130   -0.3850    7.0700 N.am   15  GLY15      -0.1940
     15  CA       -30.5840   -0.4740    8.0470 C.3    15  GLY15       0.2014
     16  C        -30.1350    0.0360    9.4170 C.2    15  GLY15       0.2638
     17  O        -30.9580    0.2110   10.2830 O.2    15  GLY15      -0.2714
     18  N        -28.8290    0.2750    9.6290 N.am   16  PHE16      -0.1973
     19  CA       -28.3340    0.6460   10.9700 C.3    16  PHE16       0.1639
     20  C        -29.0430    1.9020   11.4500 C.2    16  PHE16       0.2290
     21  O        -29.4600    1.9830   12.5740 O.2    16  PHE16      -0.2864
     22  CB       -26.8020    0.9240   10.9260 C.3    16  PHE16       0.0560
     23  CG       -26.2010    1.1890   12.2250 C.ar   16  PHE16      -0.0200
     24  CD1      -25.5730    0.1890   12.9180 C.ar   16  PHE16      -0.0042
     25  CD2      -26.1460    2.4760   12.7360 C.ar   16  PHE16      -0.0042
     26  CE1      -24.9650    0.4470   14.1420 C.ar   16  PHE16      -0.0003
     27  CE2      -25.5950    2.7450   13.9640 C.ar   16  PHE16      -0.0003
     28  CZ       -24.9530    1.7110   14.6590 C.ar   16  PHE16      -0.0000
     29  N        -32.7580    1.2950   12.3120 N.3    19  ILE19      -0.1231
     30  CA       -32.9720    0.4280   13.4730 C.3    19  ILE19       0.1692
     31  C        -32.4000    1.0040   14.7510 C.2    19  ILE19       0.2591
     32  O        -33.0560    0.9460   15.7690 O.2    19  ILE19      -0.2718
     33  CB       -32.3540   -0.9610   13.2490 C.3    19  ILE19       0.0266
     34  CG1      -33.1730   -1.6770   12.1700 C.3    19  ILE19       0.0019
     35  CG2      -32.2420   -1.7330   14.5760 C.3    19  ILE19       0.0020
     36  CD1      -32.3700   -2.6620   11.3620 C.3    19  ILE19       0.0001
     37  N        -31.2250    1.6030   14.6970 N.am   20  VAL20      -0.1980
     38  CA       -30.4980    1.9670   15.8870 C.3    20  VAL20       0.1595
     39  C        -30.8940    3.4050   16.3150 C.2    20  VAL20       0.2287
     40  O        -30.9760    3.7190   17.5200 O.2    20  VAL20      -0.2864
     41  CB       -29.0050    1.8790   15.6430 C.3    20  VAL20       0.0276
     42  CG1      -28.2060    2.2530   16.8730 C.3    20  VAL20       0.0022
     43  CG2      -28.6200    0.4460   15.2780 C.3    20  VAL20       0.0022
     44  N        -25.6440   -6.0830    4.8240 N.3    46  ALA46      -0.1231
     45  CA       -24.8070   -7.0230    5.6810 C.3    46  ALA46       0.1694
     46  C        -24.8390   -8.4620    5.1960 C.2    46  ALA46       0.2592
     47  O        -23.8630   -9.1910    5.3460 O.2    46  ALA46      -0.2718
     48  CB       -25.2460   -7.0190    7.1430 C.3    46  ALA46       0.0304
     49  N        -25.9700   -8.8580    4.6530 N.am   47  PHE47      -0.1976
     50  CA       -26.2590  -10.2860    4.4090 C.3    47  PHE47       0.1639
     51  C        -25.8810  -10.7900    3.0140 C.2    47  PHE47       0.2290
     52  O        -26.3230  -11.8430    2.5640 O.2    47  PHE47      -0.2864
     53  CB       -27.7270  -10.5440    4.7330 C.3    47  PHE47       0.0560
     54  CG       -28.0810  -10.2160    6.1670 C.ar   47  PHE47      -0.0200
     55  CD1      -27.3360  -10.7760    7.2240 C.ar   47  PHE47      -0.0042
     56  CD2      -29.1240   -9.3510    6.4780 C.ar   47  PHE47      -0.0042
     57  CE1      -27.6340  -10.4770    8.5520 C.ar   47  PHE47      -0.0003
     58  CE2      -29.4510   -9.0780    7.8060 C.ar   47  PHE47      -0.0003
     59  CZ       -28.6950   -9.6290    8.8450 C.ar   47  PHE47      -0.0000
     60  N        -21.8550  -11.7270   20.9790 N.3   136  PHE136     -0.1241
     61  CA       -22.7100  -11.3720   19.8490 C.3   136  PHE136      0.1605
     62  C        -24.1020  -10.9770   20.2960 C.2   136  PHE136      0.2264
     63  O        -24.7040  -10.0360   19.7820 O.2   136  PHE136     -0.2867
     64  CB       -22.6500  -12.4370   18.6980 C.3   136  PHE136      0.0534
     65  CG       -21.4530  -12.2520   17.7860 C.ar  136  PHE136     -0.0203
     66  CD1      -21.5500  -11.4870   16.6190 C.ar  136  PHE136     -0.0042
     67  CD2      -20.2420  -12.7000   18.1500 C.ar  136  PHE136     -0.0042
     68  CE1      -20.4420  -11.2140   15.8530 C.ar  136  PHE136     -0.0003
     69  CE2      -19.1600  -12.5720   17.3600 C.ar  136  PHE136     -0.0003
     70  CZ       -19.2280  -11.7690   16.2490 C.ar  136  PHE136     -0.0000
     71  N        -23.7420   -7.5850   21.7230 N.3   139  ILE139     -0.1231
     72  CA       -23.6040   -6.5180   20.6730 C.3   139  ILE139      0.1692
     73  C        -24.9790   -6.2860   19.9970 C.2   139  ILE139      0.2591
     74  O        -25.4160   -5.1140   19.7880 O.2   139  ILE139     -0.2718
     75  CB       -22.5220   -6.8460   19.6360 C.3   139  ILE139      0.0266
     76  CG1      -21.1600   -6.9250   20.3050 C.3   139  ILE139      0.0019
     77  CG2      -22.5160   -5.8600   18.4450 C.3   139  ILE139      0.0020
     78  CD1      -20.1940   -7.7800   19.4890 C.3   139  ILE139      0.0001
     79  N        -25.5830   -7.3790   19.5190 N.am  140  ILE140     -0.1980
     80  CA       -26.8100   -7.3000   18.7480 C.3   140  ILE140      0.1595
     81  C        -27.9460   -6.6490   19.5590 C.2   140  ILE140      0.2287
     82  O        -28.7010   -5.8030   19.0150 O.2   140  ILE140     -0.2864
     83  CB       -27.1790   -8.6600   18.0780 C.3   140  ILE140      0.0276
     84  CG1      -26.1850   -9.0330   16.9970 C.3   140  ILE140      0.0022
     85  CG2      -28.5320   -8.5780   17.4290 C.3   140  ILE140      0.0022
     86  CD1      -26.2900  -10.4810   16.6140 C.3   140  ILE140      0.0001
     87  N        -27.4100   -2.6770   20.0420 N.3   143  PHE143     -0.1227
     88  CA       -27.8310   -1.9060   18.8320 C.3   143  PHE143      0.1736
     89  C        -29.3460   -2.0410   18.4700 C.2   143  PHE143      0.2596
     90  O        -30.0040   -1.0280   18.2500 O.2   143  PHE143     -0.2718
     91  CB       -26.9550   -2.3140   17.6350 C.3   143  PHE143      0.0547
     92  CG       -25.5220   -1.7640   17.6830 C.ar  143  PHE143     -0.0202
     93  CD1      -24.4440   -2.6110   17.5400 C.ar  143  PHE143     -0.0042
     94  CD2      -25.2750   -0.4430   17.7980 C.ar  143  PHE143     -0.0042
     95  CE1      -23.1260   -2.1410   17.5330 C.ar  143  PHE143     -0.0003
     96  CE2      -23.9780    0.0570   17.8040 C.ar  143  PHE143     -0.0003
     97  CZ       -22.8910   -0.7900   17.6950 C.ar  143  PHE143     -0.0000
     98  N        -29.9120   -3.2630   18.4960 N.am  144  SER144     -0.1952
     99  CA       -31.2410   -3.5740   17.9220 C.3   144  SER144      0.1924
    100  C        -32.3820   -3.8400   18.9420 C.2   144  SER144      0.2314
    101  O        -33.5720   -3.8540   18.5660 O.2   144  SER144     -0.2863
    102  CB       -31.1330   -4.8720   17.1140 C.3   144  SER144      0.2116
    103  OG       -31.2490   -6.0030   18.0020 O.3   144  SER144     -0.2180
    104  N        -21.6940  -12.8980    8.8410 N.3   157  LEU157     -0.1245
    105  CA       -20.2850  -13.1160    9.1690 C.3   157  LEU157      0.1561
    106  C        -19.6140  -13.9960    8.1470 C.2   157  LEU157      0.2260
    107  O        -18.3840  -14.0280    8.0810 O.2   157  LEU157     -0.2867
    108  CB       -20.1230  -13.7940   10.5480 C.3   157  LEU157      0.0270
    109  CG       -20.3620  -12.8560   11.7630 C.3   157  LEU157      0.0019
    110  CD1      -20.4980  -13.6840   13.0160 C.3   157  LEU157      0.0001
    111  CD2      -19.2460  -11.8720   11.9740 C.3   157  LEU157      0.0001
    112  N        -12.5380   -7.9580   16.7380 N.3   234  LEU234     -0.1245
    113  CA       -13.0440   -8.6430   15.5900 C.3   234  LEU234      0.1561
    114  C        -12.0380   -8.9500   14.4780 C.2   234  LEU234      0.2260
    115  O        -12.2360   -9.8190   13.7420 O.2   234  LEU234     -0.2867
    116  CB       -14.2320   -7.9140   14.9840 C.3   234  LEU234      0.0270
    117  CG       -15.6700   -8.0770   15.4500 C.3   234  LEU234      0.0019
    118  CD1      -16.2960   -9.4460   15.3170 C.3   234  LEU234      0.0001
    119  CD2      -15.9000   -7.5640   16.8470 C.3   234  LEU234      0.0001
    120  N        -15.4070   -1.1580   17.1430 N.3   255  PHE255     -0.1241
    121  CA       -16.4850   -0.1510   17.1770 C.3   255  PHE255      0.1605
    122  C        -16.0110    1.2660   17.5130 C.2   255  PHE255      0.2264
    123  O        -16.5810    2.2490   17.0270 O.2   255  PHE255     -0.2867
    124  CB       -17.6100   -0.5380   18.1440 C.3   255  PHE255      0.0534
    125  CG       -18.2240   -1.8530   17.8100 C.ar  255  PHE255     -0.0203
    126  CD1      -18.8740   -1.9980   16.6270 C.ar  255  PHE255     -0.0042
    127  CD2      -18.1110   -2.9290   18.6360 C.ar  255  PHE255     -0.0042
    128  CE1      -19.4280   -3.2390   16.2620 C.ar  255  PHE255     -0.0003
    129  CE2      -18.6850   -4.1820   18.2860 C.ar  255  PHE255     -0.0003
    130  CZ       -19.3020   -4.3180   17.0720 C.ar  255  PHE255     -0.0000
@<TRIPOS>BOND
     1    52    51    2
     2    51    50    1
     3    50    49    1
     4    50    53    1
     5    13    10    1
     6    49    46   am
     7    53    54    1
     8    44    45    1
     9    46    47    2
    10    46    45    1
    11    45    48    1
    12    10     9    1
    13    10    11    1
    14    54    56   ar
    15    54    55   ar
    16     9     3   am
    17    56    58   ar
    18    11    14   am
    19    11    12    2
    20    14    15    1
    21     1     2    1
    22    55    57   ar
    23     3     2    1
    24     3     4    2
    25    58    59   ar
    26     2     5    1
    27    15    16    1
    28   107   106    2
    29   106   105    1
    30    57    59   ar
    31   104   105    1
    32   105   108    1
    33     5     6    1
    34    16    18   am
    35    16    17    2
    36    18    19    1
    37     8     6    1
    38     6     7    1
    39   108   109    1
    40    22    19    1
    41    22    23    1
    42    19    20    1
    43    36    34    1
    44    20    21    2
    45   109   111    1
    46   109   110    1
    47    34    33    1
    48    23    25   ar
    49    23    24   ar
    50    29    30    1
    51    25    27   ar
    52    24    26   ar
    53    33    30    1
    54    33    35    1
    55    30    31    1
    56   115   114    2
    57    27    28   ar
    58    26    28   ar
    59   114   113    1
    60    37    31   am
    61    37    38    1
    62    31    32    2
    63   116   117    1
    64   116   113    1
    65    43    41    1
    66   118   117    1
    67   117   119    1
    68   113   112    1
    69    41    38    1
    70    41    42    1
    71    68    70   ar
    72    68    66   ar
    73    38    39    1
    74    70    69   ar
    75   128   126   ar
    76   128   130   ar
    77    39    40    2
    78    86    84    1
    79    66    65   ar
    80   126   125   ar
    81    84    83    1
    82   123   122    2
    83   130   129   ar
    84   102    99    1
    85   102   103    1
    86   120   121    1
    87   121   122    1
    88   121   124    1
    89    69    67   ar
    90    85    83    1
    91    95    93   ar
    92    95    97   ar
    93    93    92   ar
    94    91    92    1
    95    91    88    1
    96    92    94   ar
    97    97    96   ar
    98    65    67   ar
    99    65    64    1
   100    94    96   ar
   101   125   124    1
   102   125   127   ar
   103    99    98    1
   104    99   100    1
   105    83    80    1
   106    90    89    2
   107   129   127   ar
   108    77    75    1
   109    89    98   am
   110    89    88    1
   111   101   100    2
   112    64    61    1
   113    80    79    1
   114    80    81    1
   115    88    87    1
   116    82    81    2
   117    78    76    1
   118    79    73   am
   119    75    76    1
   120    75    72    1
   121    63    62    2
   122    74    73    2
   123    61    62    1
   124    61    60    1
   125    73    72    1
   126    72    71    1
