@<TRIPOS>MOLECULE
tmp/4hsaC01.pdb
 88 84 0 0 0
SMALL
GASTEIGER

@<TRIPOS>ATOM
      1  N        -35.8820   44.5810  -22.1380 N.3     3  LEU3       -0.1245
      2  CA       -34.5000   44.9480  -21.8640 C.3     3  LEU3        0.1561
      3  C        -33.7720   43.6060  -21.8930 C.2     3  LEU3        0.2260
      4  O        -34.4560   42.5930  -21.7070 O.2     3  LEU3       -0.2867
      5  CB       -34.3630   45.6220  -20.4910 C.3     3  LEU3        0.0270
      6  CG       -35.1660   46.9100  -20.2560 C.3     3  LEU3        0.0019
      7  CD1      -35.0770   47.3390  -18.8070 C.3     3  LEU3        0.0001
      8  CD2      -34.7370   48.0430  -21.2090 C.3     3  LEU3        0.0001
      9  N        -32.0980   42.3120  -16.3730 N.3     6  HIS6       -0.1226
     10  CA       -32.6390   43.1120  -15.2860 C.3     6  HIS6        0.1752
     11  C        -31.5350   43.5100  -14.3130 C.2     6  HIS6        0.2596
     12  O        -31.8060   43.9260  -13.1850 O.2     6  HIS6       -0.2718
     13  CB       -33.8390   42.4330  -14.6270 C.3     6  HIS6        0.0759
     14  CG       -35.0930   42.6650  -15.4120 C.ar    6  HIS6        0.0818
     15  ND1      -35.7680   41.6200  -16.0220 N.ar    6  HIS6       -0.2268
     16  CD2      -35.7090   43.8320  -15.7300 C.ar    6  HIS6        0.1154
     17  CE1      -36.7930   42.1750  -16.6480 C.ar    6  HIS6        0.1986
     18  NE2      -36.7960   43.5050  -16.5040 N.ar    6  HIS6       -0.2212
     19  N        -30.2790   43.4590  -14.8110 N.am    7  ARG7       -0.1966
     20  CA       -29.0560   43.8180  -14.0980 C.3     7  ARG7        0.1729
     21  C        -29.0950   45.2680  -13.6260 C.2     7  ARG7        0.2616
     22  O        -29.8530   46.0730  -14.1740 O.2     7  ARG7       -0.2715
     23  CB       -27.8020   43.5400  -14.9660 C.3     7  ARG7        0.0348
     24  CG       -27.6290   44.4420  -16.1880 C.3     7  ARG7        0.0492
     25  CD       -26.3200   44.1810  -16.9030 C.3     7  ARG7        0.2205
     26  NE       -26.5010   43.3620  -18.1060 N.pl3   7  ARG7       -0.0865
     27  CZ       -25.5350   43.0940  -18.9840 C.cat   7  ARG7        0.5346
     28  NH1      -24.3110   43.5780  -18.8040 N.pl3   7  ARG7        0.1354
     29  NH2      -25.7890   42.3520  -20.0540 N.pl3   7  ARG7        0.1354
     30  N        -28.2960   45.5920  -12.5980 N.am    8  ALA8       -0.1963
     31  CA       -28.2250   46.9460  -12.0710 C.3     8  ALA8        0.1728
     32  C        -27.7500   47.8260  -13.2100 C.2     8  ALA8        0.2616
     33  O        -26.6140   47.6790  -13.6750 O.2     8  ALA8       -0.2715
     34  CB       -27.2540   47.0130  -10.8970 C.3     8  ALA8        0.0334
     35  N        -28.6680   48.6290  -13.7570 N.am    9  LEU9       -0.1977
     36  CA       -28.3250   49.5020  -14.8680 C.3     9  LEU9        0.1596
     37  C        -27.6750   50.8020  -14.3640 C.2     9  LEU9        0.2287
     38  O        -28.0890   51.3670  -13.3350 O.2     9  LEU9       -0.2864
     39  CB       -29.5360   49.7500  -15.7650 C.3     9  LEU9        0.0297
     40  CG       -29.8920   48.6090  -16.6970 C.3     9  LEU9        0.0022
     41  CD1      -31.3340   48.7010  -17.1400 C.3     9  LEU9        0.0001
     42  CD2      -28.9840   48.5860  -17.9050 C.3     9  LEU9        0.0001
     43  N        -29.0480   57.3620  -11.6690 N.3    19  THR19      -0.1203
     44  CA       -29.5230   55.9850  -11.6630 C.3    19  THR19       0.1994
     45  C        -30.5800   55.8650  -12.7520 C.2    19  THR19       0.2618
     46  O        -31.3190   56.8220  -13.0120 O.2    19  THR19      -0.2717
     47  CB       -30.1060   55.6110  -10.3010 C.3    19  THR19       0.1784
     48  OG1      -31.2320   56.4450  -10.0410 O.3    19  THR19      -0.2211
     49  CG2      -29.0910   55.7240   -9.1700 C.3    19  THR19       0.0376
     50  N        -30.6290   54.7140  -13.4090 N.am   20  VAL20      -0.1965
     51  CA       -31.6290   54.5050  -14.4450 C.3    20  VAL20       0.1727
     52  C        -32.8210   53.8380  -13.7790 C.2    20  VAL20       0.2616
     53  O        -32.6950   52.7240  -13.2950 O.2    20  VAL20      -0.2715
     54  CB       -31.1100   53.8390  -15.7720 C.3    20  VAL20       0.0290
     55  CG1      -29.6520   53.4230  -15.6800 C.3    20  VAL20       0.0023
     56  CG2      -31.9840   52.6900  -16.2620 C.3    20  VAL20       0.0023
     57  N        -33.9220   54.5830  -13.6210 N.am   21  LYS21      -0.1963
     58  CA       -35.1570   54.0780  -13.0130 C.3    21  LYS21       0.1728
     59  C        -36.0740   53.6700  -14.1710 C.2    21  LYS21       0.2616
     60  O        -35.8810   54.1500  -15.2890 O.2    21  LYS21      -0.2715
     61  CB       -35.8310   55.1610  -12.1440 C.3    21  LYS21       0.0311
     62  CG       -34.8780   55.8650  -11.1750 C.3    21  LYS21       0.0038
     63  CD       -35.5290   56.3710   -9.8620 C.3    21  LYS21       0.0206
     64  CE       -35.6970   55.3180   -8.7840 C.3    21  LYS21       0.1093
     65  NZ       -34.3960   54.7500   -8.3140 N.3    21  LYS21      -0.1314
     66  N        -37.0230   52.7600  -13.9570 N.am   22  ASN22      -0.1972
     67  CA       -37.8620   52.5080  -15.1030 C.3    22  ASN22       0.1688
     68  C        -39.0850   53.3940  -15.0390 C.2    22  ASN22       0.2292
     69  O        -39.4450   53.8700  -13.9680 O.2    22  ASN22      -0.2864
     70  CB       -38.1870   51.0150  -15.4060 C.3    22  ASN22       0.1181
     71  CG       -38.4670   50.0640  -14.2650 C.2    22  ASN22       0.2629
     72  OD1      -38.6660   50.4670  -13.1160 O.2    22  ASN22      -0.2716
     73  ND2      -38.5160   48.7590  -14.6360 N.am   22  ASN22      -0.0877
     74  N        -41.8910   50.9990  -24.8410 N.3    93  LEU93      -0.1245
     75  CA       -41.0990   50.5980  -23.6800 C.3    93  LEU93       0.1561
     76  C        -40.1850   51.7560  -23.2580 C.2    93  LEU93       0.2260
     77  O        -39.5340   52.3580  -24.1220 O.2    93  LEU93      -0.2867
     78  CB       -40.3230   49.3040  -23.8960 C.3    93  LEU93       0.0270
     79  CG       -39.4360   48.8190  -22.7350 C.3    93  LEU93       0.0019
     80  CD1      -40.2360   48.4800  -21.5210 C.3    93  LEU93       0.0001
     81  CD2      -38.6360   47.6180  -23.1280 C.3    93  LEU93       0.0001
     82  N        -37.4730   53.6540  -20.1790 N.3    95  VAL95      -0.1245
     83  CA       -36.4740   53.6360  -19.1340 C.3    95  VAL95       0.1561
     84  C        -36.1560   55.1070  -18.9230 C.2    95  VAL95       0.2260
     85  O        -36.1990   55.8940  -19.8790 O.2    95  VAL95      -0.2867
     86  CB       -35.3020   52.7630  -19.6010 C.3    95  VAL95       0.0252
     87  CG1      -33.9570   53.4420  -19.4590 C.3    95  VAL95       0.0019
     88  CG2      -35.3280   51.4290  -18.8890 C.3    95  VAL95       0.0019
@<TRIPOS>BOND
     1    74    75    1
     2    77    76    2
     3    78    75    1
     4    78    79    1
     5    75    76    1
     6    81    79    1
     7    79    80    1
     8     1     2    1
     9     3     2    1
    10     3     4    2
    11     2     5    1
    12     8     6    1
    13     5     6    1
    14     6     7    1
    15    82    83    1
    16    29    27    1
    17    85    84    2
    18    86    87    1
    19    86    83    1
    20    86    88    1
    21    83    84    1
    22    27    28    1
    23    27    26    2
    24    26    25    1
    25    42    40    1
    26    41    40    1
    27    25    24    1
    28    40    39    1
    29    17    18   ar
    30    17    15   ar
    31    18    16   ar
    32     9    10    1
    33    56    54    1
    34    24    23    1
    35    15    14   ar
    36    54    55    1
    37    54    51    1
    38    39    36    1
    39    16    14   ar
    40    14    13    1
    41    70    67    1
    42    70    71    1
    43    60    59    2
    44    10    13    1
    45    10    11    1
    46    67    68    1
    47    67    66    1
    48    68    69    2
    49    23    20    1
    50    36    37    1
    51    36    35    1
    52    19    11   am
    53    19    20    1
    54    73    71   am
    55    51    52    1
    56    51    50    1
    57    37    38    2
    58    11    12    2
    59    71    72    2
    60    22    21    2
    61    59    66   am
    62    59    58    1
    63    20    21    1
    64    52    57   am
    65    52    53    2
    66    35    32   am
    67    33    32    2
    68    21    30   am
    69    57    58    1
    70    50    45   am
    71    32    31    1
    72    58    61    1
    73    46    45    2
    74    45    44    1
    75    30    31    1
    76    61    62    1
    77    31    34    1
    78    43    44    1
    79    44    47    1
    80    62    63    1
    81    47    48    1
    82    47    49    1
    83    63    64    1
    84    64    65    1
