@<TRIPOS>MOLECULE
tmp/4hseA00.pdb
 152 146 0 0 0
SMALL
GASTEIGER

@<TRIPOS>ATOM
      1  N         10.6530   19.6650  -20.9250 N.3    20  ASP20      -0.1225
      2  CA        10.9690   18.7340  -22.0130 C.3    20  ASP20       0.1790
      3  C          9.9160   18.8020  -23.1320 C.2    20  ASP20       0.2440
      4  O          8.7560   19.1720  -22.8840 O.2    20  ASP20      -0.2733
      5  CB        11.0500   17.2970  -21.5020 C.3    20  ASP20       0.1423
      6  CG        12.1640   17.0820  -20.4860 C.2    20  ASP20       0.3668
      7  OD1       13.1000   17.8980  -20.3960 O.co2  20  ASP20      -0.2456
      8  OD2       12.1010   16.0620  -19.7780 O.co2  20  ASP20      -0.2456
      9  N         10.3080   18.4220  -24.3620 N.am   21  PRO21      -0.2718
     10  CA         9.2970   18.3610  -25.4110 C.3    21  PRO21       0.1535
     11  C          8.1780   17.3800  -25.0510 C.2    21  PRO21       0.2598
     12  O          8.3990   16.4320  -24.2930 O.2    21  PRO21      -0.2715
     13  CB        10.0810   17.8800  -26.6550 C.3    21  PRO21       0.0310
     14  CG        11.5170   18.1740  -26.3470 C.3    21  PRO21       0.0237
     15  CD        11.6450   18.0340  -24.8490 C.3    21  PRO21       0.0939
     16  N          6.9830   17.6550  -25.5670 N.am   22  VAL22      -0.1964
     17  CA         5.8440   16.7850  -25.4010 C.3    22  VAL22       0.1727
     18  C          5.4700   16.3000  -26.7930 C.2    22  VAL22       0.2616
     19  O          5.1600   17.1030  -27.6810 O.2    22  VAL22      -0.2715
     20  CB         4.6600   17.5100  -24.7080 C.3    22  VAL22       0.0290
     21  CG1        3.4460   16.6040  -24.6440 C.3    22  VAL22       0.0023
     22  CG2        5.0500   17.9690  -23.2880 C.3    22  VAL22       0.0023
     23  N          5.5290   14.9880  -26.9900 N.am   23  ILE23      -0.1977
     24  CA         5.3400   14.4050  -28.3300 C.3    23  ILE23       0.1596
     25  C          3.9650   13.7750  -28.3750 C.2    23  ILE23       0.2287
     26  O          3.6140   12.9550  -27.5070 O.2    23  ILE23      -0.2864
     27  CB         6.4290   13.3340  -28.6780 C.3    23  ILE23       0.0276
     28  CG1        7.8170   13.9680  -28.7730 C.3    23  ILE23       0.0022
     29  CG2        6.1320   12.6600  -30.0380 C.3    23  ILE23       0.0022
     30  CD1        8.5150   14.1610  -27.4790 C.3    23  ILE23       0.0001
     31  N         -0.0010   13.3950  -27.9360 N.3    25  ARG25      -0.1245
     32  CA        -1.0120   13.8040  -26.9580 C.3    25  ARG25       0.1563
     33  C         -1.7830   15.0590  -27.3920 C.2    25  ARG25       0.2260
     34  O         -2.3050   15.7970  -26.5640 O.2    25  ARG25      -0.2867
     35  CB        -0.3940   13.9730  -25.5580 C.3    25  ARG25       0.0307
     36  CG         0.1570   12.6900  -24.9820 C.3    25  ARG25       0.0489
     37  CD        -0.9490   11.6430  -24.7540 C.3    25  ARG25       0.2205
     38  NE        -0.4840   10.6080  -23.8330 N.pl3  25  ARG25      -0.0865
     39  CZ        -1.1160    9.4690  -23.5830 C.cat  25  ARG25       0.5346
     40  NH1       -2.2730    9.1920  -24.1810 N.pl3  25  ARG25       0.1354
     41  NH2       -0.5830    8.6090  -22.7270 N.pl3  25  ARG25       0.1354
     42  N         -0.0960    5.0950  -13.3630 N.3    50  PRO50      -0.2102
     43  CA         1.1680    5.8460  -13.1440 C.3    50  PRO50       0.1504
     44  C          2.1170    5.7140  -14.3290 C.2    50  PRO50       0.2576
     45  O          2.2320    4.6180  -14.8830 O.2    50  PRO50      -0.2718
     46  CB         1.7810    5.1730  -11.9000 C.3    50  PRO50       0.0282
     47  CG         0.5660    4.5080  -11.1810 C.3    50  PRO50       0.0208
     48  CD        -0.3380    4.0750  -12.3180 C.3    50  PRO50       0.0893
     49  N          2.7590    6.8140  -14.7290 N.am   51  GLY51      -0.1943
     50  CA         3.7860    6.7920  -15.7950 C.3    51  GLY51       0.2014
     51  C          3.3110    6.9120  -17.2390 C.2    51  GLY51       0.2639
     52  O          4.1040    6.8890  -18.1920 O.2    51  GLY51      -0.2714
     53  N          2.0060    7.0550  -17.4000 N.am   52  VAL52      -0.1963
     54  CA         1.3590    7.0460  -18.6960 C.3    52  VAL52       0.1727
     55  C          1.4990    8.4050  -19.4430 C.2    52  VAL52       0.2617
     56  O          1.4560    8.4720  -20.6870 O.2    52  VAL52      -0.2715
     57  CB        -0.0860    6.5680  -18.4520 C.3    52  VAL52       0.0290
     58  CG1       -1.1300    7.6190  -18.7800 C.3    52  VAL52       0.0023
     59  CG2       -0.3240    5.1900  -19.0380 C.3    52  VAL52       0.0023
     60  N          1.7100    9.4810  -18.6900 N.am   53  GLY53      -0.1940
     61  CA         1.9550   10.7700  -19.3180 C.3    53  GLY53       0.2014
     62  C          0.9530   11.8540  -19.0090 C.2    53  GLY53       0.2639
     63  O          0.8040   12.7890  -19.7930 O.2    53  GLY53      -0.2714
     64  N          0.2690   11.7360  -17.8700 N.am   54  LYS54      -0.1963
     65  CA        -0.6910   12.7490  -17.4220 C.3    54  LYS54       0.1728
     66  C         -0.0200   14.1030  -17.1430 C.2    54  LYS54       0.2617
     67  O         -0.5210   15.1330  -17.5910 O.2    54  LYS54      -0.2715
     68  CB        -1.4800   12.2720  -16.1850 C.3    54  LYS54       0.0311
     69  CG        -2.2260   10.9440  -16.3930 C.3    54  LYS54       0.0038
     70  CD        -3.0050   10.4900  -15.1330 C.3    54  LYS54       0.0206
     71  CE        -2.0830   10.0910  -13.9620 C.3    54  LYS54       0.1093
     72  NZ        -1.1620    8.9490  -14.3050 N.3    54  LYS54      -0.1314
     73  N          1.0960   14.1060  -16.4090 N.am   55  THR55      -0.1937
     74  CA         1.8200   15.3640  -16.1380 C.3    55  THR55       0.2028
     75  C          2.3820   15.9690  -17.4230 C.2    55  THR55       0.2642
     76  O          2.3790   17.1890  -17.5890 O.2    55  THR55      -0.2714
     77  CB         2.9490   15.1920  -15.0700 C.3    55  THR55       0.1808
     78  OG1        2.3510   15.1280  -13.7770 O.3    55  THR55      -0.2208
     79  CG2        3.9380   16.3730  -15.0770 C.3    55  THR55       0.0379
     80  N          2.8400   15.1260  -18.3430 N.am   56  ALA56      -0.1977
     81  CA         3.3600   15.6260  -19.6260 C.3    56  ALA56       0.1597
     82  C          2.2700   16.3420  -20.4370 C.2    56  ALA56       0.2287
     83  O          2.5550   17.3220  -21.1320 O.2    56  ALA56      -0.2864
     84  CB         3.9790   14.4880  -20.4370 C.3    56  ALA56       0.0319
     85  N          2.0160   19.7570  -18.9800 N.3    59  GLU59      -0.1245
     86  CA         3.1790   20.5150  -19.4560 C.3    59  GLU59       0.1567
     87  C          3.0310   20.9270  -20.9320 C.2    59  GLU59       0.2260
     88  O          3.3050   22.0670  -21.2980 O.2    59  GLU59      -0.2867
     89  CB         4.4770   19.7450  -19.1890 C.3    59  GLU59       0.0388
     90  CG         4.8270   19.7100  -17.7060 C.3    59  GLU59       0.1160
     91  CD         6.1250   18.9890  -17.3810 C.2    59  GLU59       0.3649
     92  OE1        6.3680   18.7290  -16.1810 O.co2  59  GLU59      -0.2457
     93  OE2        6.9100   18.6820  -18.3020 O.co2  59  GLU59      -0.2457
     94  N         -1.6630   17.2670   -9.0940 N.3   120  ASP120     -0.1239
     95  CA        -1.2810   15.8860   -9.3290 C.3   120  ASP120      0.1674
     96  C         -1.6330   15.0660   -8.0850 C.2   120  ASP120      0.2266
     97  O         -1.7500   15.6270   -6.9860 O.2   120  ASP120     -0.2867
     98  CB         0.2150   15.8050   -9.6330 C.3   120  ASP120      0.1410
     99  CG         0.6240   14.4630  -10.2290 C.2   120  ASP120      0.3668
    100  OD1       -0.2680   13.6720  -10.6350 O.co2 120  ASP120     -0.2456
    101  OD2        1.8460   14.1950  -10.2740 O.co2 120  ASP120     -0.2456
    102  N          7.9720    9.1300  -28.8860 N.3   184  ILE184     -0.1245
    103  CA         8.2700    9.8720  -27.6540 C.3   184  ILE184      0.1561
    104  C          9.7610    9.7770  -27.3240 C.2   184  ILE184      0.2260
    105  O         10.4030   10.8020  -27.0950 O.2   184  ILE184     -0.2867
    106  CB         7.3990    9.3970  -26.4590 C.3   184  ILE184      0.0252
    107  CG1        5.9430    9.8100  -26.6610 C.3   184  ILE184      0.0019
    108  CG2        7.9050    9.9760  -25.1360 C.3   184  ILE184      0.0019
    109  CD1        4.9320    9.0630  -25.7030 C.3   184  ILE184      0.0001
    110  N         12.6940   12.6940  -27.1180 N.3   188  LEU188     -0.1245
    111  CA        13.3900   12.9960  -25.8660 C.3   188  LEU188      0.1561
    112  C         14.8940   12.6600  -25.8950 C.2   188  LEU188      0.2260
    113  O         15.6370   13.0330  -24.9810 O.2   188  LEU188     -0.2867
    114  CB        12.7340   12.2420  -24.7150 C.3   188  LEU188      0.0270
    115  CG        11.3140   12.6200  -24.2910 C.3   188  LEU188      0.0019
    116  CD1       10.8110   11.5940  -23.2850 C.3   188  LEU188      0.0001
    117  CD2       11.2500   14.0420  -23.7190 C.3   188  LEU188      0.0001
    118  N         18.6730   13.1770  -23.1270 N.3   192  TYR192     -0.1241
    119  CA        19.3770   12.1110  -22.4320 C.3   192  TYR192      0.1605
    120  C         20.8190   11.9750  -22.8930 C.2   192  TYR192      0.2264
    121  O         21.7170   11.7280  -22.0840 O.2   192  TYR192     -0.2867
    122  CB        18.5910   10.8090  -22.5510 C.3   192  TYR192      0.0534
    123  CG        17.3740   10.8400  -21.6610 C.ar  192  TYR192     -0.0201
    124  CD1       16.1640   11.3670  -22.1110 C.ar  192  TYR192     -0.0009
    125  CD2       17.4420   10.3830  -20.3490 C.ar  192  TYR192     -0.0009
    126  CE1       15.0400   11.4140  -21.2860 C.ar  192  TYR192      0.0417
    127  CE2       16.3170   10.4230  -19.5110 C.ar  192  TYR192      0.0417
    128  CZ        15.1320   10.9380  -19.9820 C.ar  192  TYR192      0.1957
    129  OH        14.0320   10.9710  -19.1610 O.3   192  TYR192     -0.2866
    130  N          4.9830    5.5130  -21.4670 N.3   222  PRO222     -0.2102
    131  CA         6.3810    5.4400  -21.9290 C.3   222  PRO222      0.1504
    132  C          7.4210    5.4470  -20.7890 C.2   222  PRO222      0.2575
    133  O          8.6170    5.3190  -21.0610 O.2   222  PRO222     -0.2718
    134  CB         6.5320    6.7070  -22.7810 C.3   222  PRO222      0.0282
    135  CG         5.5810    7.6990  -22.1200 C.3   222  PRO222      0.0208
    136  CD         4.4750    6.9010  -21.4650 C.3   222  PRO222      0.0893
    137  N          6.9660    5.5980  -19.5440 N.am  223  ASP223     -0.1974
    138  CA         7.8630    5.7300  -18.3820 C.3   223  ASP223      0.1708
    139  C          8.9190    4.6260  -18.3300 C.2   223  ASP223      0.2293
    140  O         10.1100    4.9130  -18.2680 O.2   223  ASP223     -0.2864
    141  CB         7.0500    5.7310  -17.0820 C.3   223  ASP223      0.1436
    142  CG         7.8140    6.3250  -15.9010 C.2   223  ASP223      0.3671
    143  OD1        7.7350    5.7350  -14.8080 O.co2 223  ASP223     -0.2456
    144  OD2        8.4700    7.3850  -16.0500 O.co2 223  ASP223     -0.2456
    145  N         11.5310    4.9280  -21.1990 N.3   226  ILE226     -0.1245
    146  CA        12.4190    6.0610  -20.8690 C.3   226  ILE226      0.1561
    147  C         13.4310    5.6730  -19.7740 C.2   226  ILE226      0.2260
    148  O         14.6330    5.9420  -19.8970 O.2   226  ILE226     -0.2867
    149  CB        11.5930    7.3220  -20.4480 C.3   226  ILE226      0.0252
    150  CG1       10.7410    7.8270  -21.6330 C.3   226  ILE226      0.0019
    151  CG2       12.4780    8.4520  -19.9590 C.3   226  ILE226      0.0019
    152  CD1        9.6890    8.8300  -21.2060 C.3   226  ILE226      0.0001
@<TRIPOS>BOND
     1    29    27    1
     2   102   103    1
     3    28    27    1
     4    28    30    1
     5    27    24    1
     6    25    24    1
     7    25    26    2
     8    24    23    1
     9    31    32    1
    10    19    18    2
    11   103   104    1
    12   103   106    1
    13    33    32    1
    14    33    34    2
    15   104   105    2
    16   110   111    1
    17    23    18   am
    18    32    35    1
    19    18    17    1
    20   107   106    1
    21   107   109    1
    22    13    14    1
    23    13    10    1
    24   106   108    1
    25    14    15    1
    26   112   111    1
    27   112   113    2
    28   111   114    1
    29    16    17    1
    30    16    11   am
    31    35    36    1
    32    10    11    1
    33    10     9    1
    34    17    20    1
    35    11    12    2
    36    36    37    1
    37    15     9    1
    38    37    38    1
    39   114   115    1
    40    20    21    1
    41    20    22    1
    42     9     3   am
    43   115   117    1
    44   115   116    1
    45    40    39    1
    46    38    39    2
    47    39    41    1
    48     3     4    2
    49     3     2    1
    50   118   119    1
    51   120   119    1
    52   120   121    2
    53   134   135    1
    54   134   131    1
    55   122   119    1
    56   122   123    1
    57   135   136    1
    58   124   123   ar
    59   124   126   ar
    60     2     5    1
    61     2     1    1
    62   131   130    1
    63   131   132    1
    64   123   125   ar
    65   150   152    1
    66   150   149    1
    67     5     6    1
    68   130   136    1
    69    88    87    2
    70   126   128   ar
    71   145   146    1
    72    83    82    2
    73   133   132    2
    74    87    86    1
    75   146   149    1
    76   146   147    1
    77   132   137   am
    78    56    55    2
    79     6     7   ar
    80     6     8   ar
    81   149   151    1
    82    82    81    1
    83    84    81    1
    84   125   127   ar
    85   128   127   ar
    86   128   129    1
    87   148   147    2
    88    63    62    2
    89    81    80    1
    90   137   138    1
    91    86    89    1
    92    86    85    1
    93    55    54    1
    94    55    60   am
    95    61    62    1
    96    61    60    1
    97    89    90    1
    98    59    57    1
    99    62    64   am
   100    58    57    1
   101    54    57    1
   102    54    53    1
   103   138   139    1
   104   138   141    1
   105    80    75   am
   106   139   140    2
   107    93    91   ar
   108    52    51    2
   109    64    65    1
   110    90    91    1
   111    67    66    2
   112    76    75    2
   113    75    74    1
   114    65    66    1
   115    65    68    1
   116    53    51   am
   117    91    92   ar
   118    51    50    1
   119    66    73   am
   120   141   142    1
   121    73    74    1
   122    69    68    1
   123    69    70    1
   124    74    77    1
   125   144   142   ar
   126   142   143   ar
   127    50    49    1
   128    70    71    1
   129    79    77    1
   130    77    78    1
   131    45    44    2
   132    49    44   am
   133    44    43    1
   134    72    71    1
   135    42    43    1
   136    42    48    1
   137    43    46    1
   138    48    47    1
   139    46    47    1
   140   100    99   ar
   141   101    99   ar
   142    99    98    1
   143    98    95    1
   144    95    94    1
   145    95    96    1
   146    96    97    2
