@<TRIPOS>MOLECULE
tmp/4hshA00.pdb
 110 102 0 0 0
SMALL
GASTEIGER

@<TRIPOS>ATOM
      1  N          9.4950   12.4170   22.1850 N.3    92  ASP92      -0.1225
      2  CA        10.3900   13.4140   22.7550 C.3    92  ASP92       0.1805
      3  C          9.6520   14.1570   23.8560 C.2    92  ASP92       0.2598
      4  O          8.4460   13.9030   24.1260 O.2    92  ASP92      -0.2718
      5  CB        10.9370   14.3460   21.6720 C.3    92  ASP92       0.1424
      6  CG         9.8610   15.0550   20.8860 C.2    92  ASP92       0.3668
      7  OD1        8.7000   15.1780   21.3350 O.co2  92  ASP92      -0.2456
      8  OD2       10.1880   15.5390   19.7650 O.co2  92  ASP92      -0.2456
      9  N         10.3680   15.0350   24.5350 N.am   93  SER93      -0.1938
     10  CA         9.8040   15.5900   25.7510 C.3    93  SER93       0.2055
     11  C          8.9170   16.8260   25.4770 C.2    93  SER93       0.2643
     12  O          8.1410   17.2670   26.3340 O.2    93  SER93      -0.2714
     13  CB        10.9480   15.9930   26.6660 C.3    93  SER93       0.2130
     14  OG        11.3640   17.2810   26.2270 O.3    93  SER93      -0.2179
     15  N          9.0410   17.3970   24.2770 N.am   94  GLY94      -0.1954
     16  CA         8.2340   18.5390   23.8750 C.3    94  GLY94       0.1869
     17  C          8.9680   19.8370   24.0890 C.2    94  GLY94       0.2309
     18  O          8.5610   20.9030   23.5810 O.2    94  GLY94      -0.2863
     19  N         12.0650   20.8760   23.1990 N.3    96  PHE96      -0.1227
     20  CA        12.8960   21.4410   22.1300 C.3    96  PHE96       0.1736
     21  C         12.0650   22.3490   21.2320 C.2    96  PHE96       0.2595
     22  O         12.4630   23.4800   20.9340 O.2    96  PHE96      -0.2718
     23  CB        13.6000   20.3510   21.2900 C.3    96  PHE96       0.0547
     24  CG        14.4060   20.9150   20.1570 C.ar   96  PHE96      -0.0202
     25  CD1       15.7050   21.3390   20.3580 C.ar   96  PHE96      -0.0042
     26  CD2       13.8340   21.0980   18.9120 C.ar   96  PHE96      -0.0042
     27  CE1       16.4360   21.9020   19.3200 C.ar   96  PHE96      -0.0003
     28  CE2       14.5540   21.6690   17.8670 C.ar   96  PHE96      -0.0003
     29  CZ        15.8590   22.0620   18.0710 C.ar   96  PHE96      -0.0000
     30  N         10.8920   21.8720   20.8370 N.am   97  GLN97      -0.1979
     31  CA        10.0210   22.5990   19.9300 C.3    97  GLN97       0.1601
     32  C          9.3970   23.8120   20.6000 C.2    97  GLN97       0.2287
     33  O          8.9920   24.7710   19.9230 O.2    97  GLN97      -0.2864
     34  CB         8.9480   21.6670   19.3500 C.3    97  GLN97       0.0394
     35  CG         9.4960   20.5700   18.4500 C.3    97  GLN97       0.0908
     36  CD        10.2680   19.5030   19.2070 C.2    97  GLN97       0.2608
     37  OE1       10.1180   19.3470   20.4260 O.2    97  GLN97      -0.2717
     38  NE2       11.1170   18.7630   18.4860 N.am   97  GLN97      -0.0878
     39  N         11.2030   10.2910   27.0060 N.3   135  MET135     -0.1245
     40  CA        12.4400   11.0800   27.1910 C.3   135  MET135      0.1570
     41  C         12.2690   12.0010   28.3950 C.2   135  MET135      0.2261
     42  O         11.2210   12.6690   28.5790 O.2   135  MET135     -0.2867
     43  CB        12.7460   11.9620   25.9670 C.3   135  MET135      0.0387
     44  CG        13.0710   11.1940   24.6080 C.3   135  MET135      0.0595
     45  SD        14.3590    9.9850   24.8350 S.3   135  MET135     -0.1393
     46  CE        15.7400   11.0930   25.1680 C.3   135  MET135      0.0692
     47  N         14.3990   18.1970   29.4180 N.3   138  ASP138     -0.1239
     48  CA        15.6410   18.9200   29.6200 C.3   138  ASP138      0.1674
     49  C         15.4820   20.3760   29.2110 C.2   138  ASP138      0.2266
     50  O         14.4450   20.7750   28.6660 O.2   138  ASP138     -0.2867
     51  CB        16.7770   18.2480   28.8480 C.3   138  ASP138      0.1410
     52  CG        16.5310   18.2160   27.3410 C.2   138  ASP138      0.3668
     53  OD1       15.3750   18.3470   26.9010 O.co2 138  ASP138     -0.2456
     54  OD2       17.5420   18.1220   26.6080 O.co2 138  ASP138     -0.2456
     55  N         17.0470   23.2120   26.7280 N.3   140  CYS140     -0.1235
     56  CA        17.9010   23.3790   25.5460 C.3   140  CYS140      0.1677
     57  C         19.0720   24.3470   25.8180 C.2   140  CYS140      0.2270
     58  O         18.9040   25.4320   26.3790 O.2   140  CYS140     -0.2867
     59  CB        17.0750   23.8790   24.3590 C.3   140  CYS140      0.0956
     60  SG        15.8710   22.6640   23.7470 S.3   140  CYS140     -0.0801
     61  N         18.9670   12.5520   29.2580 N.3   183  ILE183     -0.1245
     62  CA        19.6610   13.2680   28.1870 C.3   183  ILE183      0.1561
     63  C         20.8940   14.0010   28.7240 C.2   183  ILE183      0.2260
     64  O         20.7950   14.8420   29.6440 O.2   183  ILE183     -0.2867
     65  CB        18.7350   14.2940   27.5540 C.3   183  ILE183      0.0252
     66  CG1       17.4360   13.6200   27.0360 C.3   183  ILE183      0.0019
     67  CG2       19.4590   15.0500   26.4530 C.3   183  ILE183      0.0019
     68  CD1       16.4410   14.6590   26.5230 C.3   183  ILE183      0.0001
     69  N         23.7680   16.6750   28.6960 N.3   185  GLN185     -0.1245
     70  CA        23.9640   18.0390   28.1990 C.3   185  GLN185      0.1566
     71  C         25.3980   18.4600   28.5000 C.2   185  GLN185      0.2260
     72  O         26.2390   17.6220   28.8010 O.2   185  GLN185     -0.2867
     73  CB        22.9160   18.9830   28.8010 C.3   185  GLN185      0.0367
     74  CG        21.4770   18.7320   28.2820 C.3   185  GLN185      0.0905
     75  CD        21.2800   19.1250   26.8060 C.2   185  GLN185      0.2608
     76  OE1       22.1500   19.7480   26.2150 O.2   185  GLN185     -0.2717
     77  NE2       20.1510   18.7160   26.2060 N.am  185  GLN185     -0.0878
     78  N         22.3700   14.8570   24.1220 N.3   211  GLY211     -0.1210
     79  CA        21.6230   16.0250   23.6970 C.3   211  GLY211      0.1956
     80  C         22.4990   17.1840   23.3170 C.2   211  GLY211      0.2612
     81  O         23.6950   17.1460   23.5150 O.2   211  GLY211     -0.2717
     82  N         21.8860   18.2030   22.7250 N.am  212  GLY212     -0.1942
     83  CA        22.5640   19.4730   22.4600 C.3   212  GLY212      0.2014
     84  C         23.4990   19.5650   21.2590 C.2   212  GLY212      0.2639
     85  O         24.2020   20.5870   21.1340 O.2   212  GLY212     -0.2714
     86  N         23.5140   18.5430   20.3770 N.am  213  LEU213     -0.1963
     87  CA        24.3990   18.5590   19.2050 C.3   213  LEU213      0.1728
     88  C         23.5310   18.7480   17.9700 C.2   213  LEU213      0.2616
     89  O         22.3050   18.8340   18.0840 O.2   213  LEU213     -0.2715
     90  CB        25.2730   17.2950   19.1180 C.3   213  LEU213      0.0311
     91  CG        26.2450   17.1740   20.2950 C.3   213  LEU213      0.0022
     92  CD1       27.0400   15.8290   20.2550 C.3   213  LEU213      0.0001
     93  CD2       27.2200   18.3630   20.3060 C.3   213  LEU213      0.0001
     94  N         24.1490   18.8380   16.8010 N.am  214  ALA214     -0.1977
     95  CA        23.3910   19.1000   15.5730 C.3   214  ALA214      0.1597
     96  C         22.6500   20.4460   15.6940 C.2   214  ALA214      0.2287
     97  O         21.4800   20.5790   15.3300 O.2   214  ALA214     -0.2864
     98  CB        22.4050   17.9690   15.2980 C.3   214  ALA214      0.0319
     99  N         20.3030   12.5510   19.4270 N.3   242  MET242     -0.1230
    100  CA        19.0760   13.2020   19.1030 C.3   242  MET242      0.1702
    101  C         19.2570   14.1730   17.9300 C.2   242  MET242      0.2592
    102  O         20.1690   14.9950   17.9010 O.2   242  MET242     -0.2718
    103  CB        18.5720   13.9710   20.3390 C.3   242  MET242      0.0401
    104  CG        18.3130   13.0320   21.4990 C.3   242  MET242      0.0596
    105  SD        17.5990   13.9200   22.9460 S.3   242  MET242     -0.1393
    106  CE        15.9350   13.8540   22.3410 C.3   242  MET242      0.0692
    107  N         18.3870   14.0130   16.9620 N.am  243  GLY243     -0.1957
    108  CA        18.2950   14.9650   15.8660 C.3   243  GLY243      0.1869
    109  C         19.4110   14.8180   14.8320 C.2   243  GLY243      0.2309
    110  O         19.6930   15.7680   14.1090 O.2   243  GLY243     -0.2863
@<TRIPOS>BOND
     1   110   109    2
     2   109   108    1
     3    98    95    1
     4    97    96    2
     5    95    96    1
     6    95    94    1
     7   108   107    1
     8    94    88   am
     9   107   101   am
    10    28    29   ar
    11    28    26   ar
    12   102   101    2
    13   101   100    1
    14    88    89    2
    15    88    87    1
    16    29    27   ar
    17    35    36    1
    18    35    34    1
    19    38    36   am
    20    26    24   ar
    21   100    99    1
    22   100   103    1
    23    90    87    1
    24    90    91    1
    25    87    86    1
    26    36    37    2
    27    27    25   ar
    28    34    31    1
    29     8     6   ar
    30    33    32    2
    31    31    32    1
    32    31    30    1
    33    24    25   ar
    34    24    23    1
    35    92    91    1
    36    91    93    1
    37   103   104    1
    38    86    84   am
    39    30    21   am
    40     6     7   ar
    41     6     5    1
    42    22    21    2
    43    85    84    2
    44    21    20    1
    45    84    83    1
    46    23    20    1
    47   104   105    1
    48     5     2    1
    49    20    19    1
    50     1     2    1
    51   106   105    1
    52    83    82    1
    53    82    80   am
    54     2     3    1
    55    80    81    2
    56    80    79    1
    57    18    17    2
    58    79    78    1
    59    60    59    1
    60     3     4    2
    61     3     9   am
    62    16    17    1
    63    16    15    1
    64    15    11   am
    65    59    56    1
    66     9    10    1
    67    44    45    1
    68    44    43    1
    69    45    46    1
    70    11    10    1
    71    11    12    2
    72    56    57    1
    73    56    55    1
    74    10    13    1
    75    57    58    2
    76    43    40    1
    77    77    75   am
    78    76    75    2
    79    14    13    1
    80    67    65    1
    81    68    66    1
    82    54    52   ar
    83    75    74    1
    84    53    52   ar
    85    39    40    1
    86    66    65    1
    87    40    41    1
    88    52    51    1
    89    65    62    1
    90    62    63    1
    91    62    61    1
    92    70    71    1
    93    70    69    1
    94    70    73    1
    95    74    73    1
    96    41    42    2
    97    71    72    2
    98    50    49    2
    99    63    64    2
   100    51    48    1
   101    49    48    1
   102    47    48    1
