@<TRIPOS>MOLECULE
tmp/4hsjA00.pdb
 154 142 0 0 0
SMALL
GASTEIGER

@<TRIPOS>ATOM
      1  N         -6.1640  -32.2370    7.9480 N.3    41  VAL41      -0.1245
      2  CA        -5.8790  -31.8190    6.5820 C.3    41  VAL41       0.1561
      3  C         -4.4460  -32.1880    6.2360 C.2    41  VAL41       0.2260
      4  O         -3.5270  -31.8850    6.9980 O.2    41  VAL41      -0.2867
      5  CB        -6.0770  -30.3050    6.3910 C.3    41  VAL41       0.0252
      6  CG1       -5.9960  -29.9510    4.9140 C.3    41  VAL41       0.0019
      7  CG2       -7.4340  -29.8640    6.9680 C.3    41  VAL41       0.0019
      8  N         -3.6640  -23.2600   -3.0130 N.3    47  ARG47      -0.1245
      9  CA        -4.9330  -22.6690   -3.4440 C.3    47  ARG47       0.1563
     10  C         -4.8600  -21.1550   -3.4790 C.2    47  ARG47       0.2260
     11  O         -3.9800  -20.5620   -2.8520 O.2    47  ARG47      -0.2867
     12  CB        -6.0720  -23.1210   -2.5280 C.3    47  ARG47       0.0307
     13  CG        -5.8510  -22.7650   -1.0760 C.3    47  ARG47       0.0489
     14  CD        -6.6810  -23.6640   -0.1570 C.3    47  ARG47       0.2205
     15  NE        -8.1150  -23.3620   -0.2080 N.pl3  47  ARG47      -0.0865
     16  CZ        -9.0310  -23.9860    0.5270 C.cat  47  ARG47       0.5346
     17  NH1       -8.6570  -24.9430    1.3590 N.pl3  47  ARG47       0.1354
     18  NH2      -10.3160  -23.6580    0.4330 N.pl3  47  ARG47       0.1354
     19  N         -7.9150  -19.1400   -3.1440 N.3    49  ASP49      -0.1239
     20  CA        -9.0570  -18.5220   -2.4830 C.3    49  ASP49       0.1674
     21  C         -8.7070  -18.0910   -1.0620 C.2    49  ASP49       0.2266
     22  O         -7.9450  -18.7780   -0.3760 O.2    49  ASP49      -0.2867
     23  CB       -10.2600  -19.4810   -2.4570 C.3    49  ASP49       0.1410
     24  CG        -9.9910  -20.7410   -1.6480 C.2    49  ASP49       0.3668
     25  OD1      -10.5140  -20.8560   -0.5160 O.co2  49  ASP49      -0.2456
     26  OD2       -9.2570  -21.6200   -2.1420 O.co2  49  ASP49      -0.2456
     27  N        -10.4820  -17.4180    2.6670 N.3    51  HIS51      -0.1241
     28  CA       -11.6990  -17.7420    3.4290 C.3    51  HIS51       0.1621
     29  C        -11.9760  -16.6580    4.4580 C.2    51  HIS51       0.2264
     30  O        -11.0720  -16.2610    5.1980 O.2    51  HIS51      -0.2867
     31  CB       -11.5460  -19.1010    4.1570 C.3    51  HIS51       0.0745
     32  CG       -12.7810  -19.5550    4.8860 C.ar   51  HIS51       0.0817
     33  ND1      -12.7420  -20.4940    5.9010 N.ar   51  HIS51      -0.2268
     34  CD2      -14.0850  -19.2230    4.7330 C.ar   51  HIS51       0.1154
     35  CE1      -13.9650  -20.7010    6.3550 C.ar   51  HIS51       0.1986
     36  NE2      -14.8020  -19.9470    5.6610 N.ar   51  HIS51      -0.2212
     37  N        -11.0080  -20.2360   14.0130 N.3    57  GLU57      -0.1245
     38  CA       -10.4560  -21.5100   13.5540 C.3    57  GLU57       0.1567
     39  C         -9.2150  -21.8460   14.3760 C.2    57  GLU57       0.2260
     40  O         -8.3010  -21.0310   14.4990 O.2    57  GLU57      -0.2867
     41  CB       -10.1140  -21.4850   12.0390 C.3    57  GLU57       0.0388
     42  CG       -11.3320  -21.2530   11.1270 C.3    57  GLU57       0.1160
     43  CD       -11.0370  -21.4030    9.6150 C.2    57  GLU57       0.3649
     44  OE1       -9.9530  -21.8550    9.2350 O.co2  57  GLU57      -0.2457
     45  OE2      -11.8990  -21.0750    8.7710 O.co2  57  GLU57      -0.2457
     46  N         -5.8640  -24.3060   14.9250 N.3    59  PHE59      -0.1241
     47  CA        -4.9470  -25.1320   14.1340 C.3    59  PHE59       0.1605
     48  C         -3.9030  -25.7580   15.0340 C.2    59  PHE59       0.2264
     49  O         -3.3730  -25.0990   15.9270 O.2    59  PHE59      -0.2867
     50  CB        -4.1660  -24.2830   13.1170 C.3    59  PHE59       0.0534
     51  CG        -5.0190  -23.6460   12.0560 C.ar   59  PHE59      -0.0203
     52  CD1       -5.1330  -24.2270   10.8020 C.ar   59  PHE59      -0.0042
     53  CD2       -5.6700  -22.4490   12.3060 C.ar   59  PHE59      -0.0042
     54  CE1       -5.9160  -23.6140    9.7900 C.ar   59  PHE59      -0.0003
     55  CE2       -6.4520  -21.8390   11.3290 C.ar   59  PHE59      -0.0003
     56  CZ        -6.5730  -22.4240   10.0640 C.ar   59  PHE59      -0.0000
     57  N         -0.2990  -19.9960    6.1830 N.3    68  LEU68      -0.1245
     58  CA        -1.5330  -19.3320    5.8020 C.3    68  LEU68       0.1561
     59  C         -1.1930  -17.9870    5.1730 C.2    68  LEU68       0.2260
     60  O         -0.5640  -17.1400    5.8160 O.2    68  LEU68      -0.2867
     61  CB        -2.4090  -19.0870    7.0350 C.3    68  LEU68       0.0270
     62  CG        -2.7930  -20.2850    7.8960 C.3    68  LEU68       0.0019
     63  CD1       -3.5850  -19.8380    9.1130 C.3    68  LEU68       0.0001
     64  CD2       -3.6150  -21.2460    7.0950 C.3    68  LEU68       0.0001
     65  N         -7.8950  -15.7670    5.0110 N.3    95  HIS95      -0.1241
     66  CA        -6.7880  -16.7210    5.0410 C.3    95  HIS95       0.1621
     67  C         -6.8590  -17.6970    3.8800 C.2    95  HIS95       0.2264
     68  O         -7.9320  -18.2040    3.5400 O.2    95  HIS95      -0.2867
     69  CB        -6.7540  -17.5050    6.3700 C.3    95  HIS95       0.0745
     70  CG        -8.0540  -18.1720    6.7090 C.ar   95  HIS95       0.0817
     71  ND1       -9.1540  -17.4790    7.1470 N.ar   95  HIS95      -0.2268
     72  CD2       -8.4320  -19.4730    6.6640 C.ar   95  HIS95       0.1154
     73  CE1      -10.1630  -18.3140    7.3460 C.ar   95  HIS95       0.1986
     74  NE2       -9.7460  -19.5340    7.0650 N.ar   95  HIS95      -0.2212
     75  N         -4.9190  -21.1520    3.1090 N.3    97  PRO97      -0.2116
     76  CA        -3.9210  -22.1110    3.5880 C.3    97  PRO97       0.1372
     77  C         -3.1740  -22.7870    2.4460 C.2    97  PRO97       0.2244
     78  O         -3.7810  -23.2080    1.4520 O.2    97  PRO97      -0.2868
     79  CB        -4.7700  -23.1620    4.3190 C.3    97  PRO97       0.0268
     80  CG        -6.0300  -23.1970    3.5220 C.3    97  PRO97       0.0207
     81  CD        -6.2660  -21.7400    3.0640 C.3    97  PRO97       0.0892
     82  N         -0.4150  -25.9280    1.6920 N.3    99  ARG99      -0.1245
     83  CA         0.1000  -27.1270    2.3420 C.3    99  ARG99       0.1563
     84  C          1.0220  -27.8650    1.3950 C.2    99  ARG99       0.2260
     85  O          0.6280  -28.8530    0.7840 O.2    99  ARG99      -0.2867
     86  CB        -1.0620  -28.0170    2.8120 C.3    99  ARG99       0.0307
     87  CG        -1.9120  -27.2860    3.8670 C.3    99  ARG99       0.0489
     88  CD        -2.9980  -28.1240    4.5270 C.3    99  ARG99       0.2205
     89  NE        -3.6930  -27.3280    5.5450 N.pl3  99  ARG99      -0.0865
     90  CZ        -3.1950  -27.0690    6.7500 C.cat  99  ARG99       0.5346
     91  NH1       -1.9990  -27.5560    7.0990 N.pl3  99  ARG99       0.1354
     92  NH2       -3.8840  -26.3190    7.6060 N.pl3  99  ARG99       0.1354
     93  N         -7.5140  -29.2040   12.4800 N.3   108  VAL108     -0.1245
     94  CA        -8.2260  -27.9420   12.3620 C.3   108  VAL108      0.1561
     95  C         -9.5940  -28.1110   13.0180 C.2   108  VAL108      0.2260
     96  O        -10.3290  -29.0600   12.7090 O.2   108  VAL108     -0.2867
     97  CB        -8.4070  -27.5100   10.8890 C.3   108  VAL108      0.0252
     98  CG1       -9.0920  -26.1490   10.8230 C.3   108  VAL108      0.0019
     99  CG2       -7.0420  -27.4410   10.1640 C.3   108  VAL108      0.0019
    100  N        -13.2330  -26.1130   13.9370 N.3   110  GLU110     -0.1245
    101  CA       -14.1590  -25.0090   13.6950 C.3   110  GLU110      0.1567
    102  C        -15.4920  -25.3540   14.3750 C.2   110  GLU110      0.2260
    103  O        -15.6410  -26.4520   14.9190 O.2   110  GLU110     -0.2867
    104  CB       -14.3950  -24.8610   12.1780 C.3   110  GLU110      0.0388
    105  CG       -13.1510  -24.4770   11.3880 C.3   110  GLU110      0.1160
    106  CD       -13.3890  -24.4770    9.8840 C.2   110  GLU110      0.3649
    107  OE1      -12.3920  -24.6250    9.1400 O.co2 110  GLU110     -0.2457
    108  OE2      -14.5610  -24.3220    9.4460 O.co2 110  GLU110     -0.2457
    109  N        -21.8050  -23.3420   11.7240 N.3   113  ARG113     -0.1245
    110  CA       -22.3550  -21.9950   11.6450 C.3   113  ARG113      0.1563
    111  C        -23.8770  -22.0420   11.7980 C.2   113  ARG113      0.2260
    112  O        -24.5440  -22.8530   11.1420 O.2   113  ARG113     -0.2867
    113  CB       -21.9910  -21.3310   10.3020 C.3   113  ARG113      0.0307
    114  CG       -20.6380  -20.6360   10.2690 C.3   113  ARG113      0.0489
    115  CD       -19.4990  -21.6310   10.4690 C.3   113  ARG113      0.2205
    116  NE       -18.5280  -21.6250    9.3790 N.pl3 113  ARG113     -0.0865
    117  CZ       -17.4690  -22.4280    9.3160 C.cat 113  ARG113      0.5346
    118  NH1      -17.2370  -23.3040   10.2870 N.pl3 113  ARG113      0.1354
    119  NH2      -16.6340  -22.3460    8.2880 N.pl3 113  ARG113      0.1354
    120  N        -15.9940  -16.5710    0.5200 N.3   121  PHE121     -0.1241
    121  CA       -14.7780  -16.9890   -0.1780 C.3   121  PHE121      0.1605
    122  C        -14.4480  -15.9410   -1.2190 C.2   121  PHE121      0.2264
    123  O        -15.3250  -15.5110   -1.9680 O.2   121  PHE121     -0.2867
    124  CB       -14.9230  -18.3900   -0.7810 C.3   121  PHE121      0.0534
    125  CG       -15.0140  -19.4680    0.2610 C.ar  121  PHE121     -0.0203
    126  CD1      -13.8640  -20.1140    0.7140 C.ar  121  PHE121     -0.0042
    127  CD2      -16.2400  -19.7970    0.8240 C.ar  121  PHE121     -0.0042
    128  CE1      -13.9430  -21.1020    1.7120 C.ar  121  PHE121     -0.0003
    129  CE2      -16.3330  -20.7760    1.8120 C.ar  121  PHE121     -0.0003
    130  CZ       -15.1860  -21.4330    2.2520 C.ar  121  PHE121     -0.0000
    131  N        -22.7800  -22.5270    5.0310 N.3   139  LEU139     -0.1245
    132  CA       -21.9750  -23.7360    4.9110 C.3   139  LEU139      0.1561
    133  C        -22.5530  -24.8450    5.7840 C.2   139  LEU139      0.2260
    134  O        -22.3950  -24.8340    7.0010 O.2   139  LEU139     -0.2867
    135  CB       -20.5210  -23.4300    5.2960 C.3   139  LEU139      0.0270
    136  CG       -19.4350  -24.3720    4.7800 C.3   139  LEU139      0.0019
    137  CD1      -19.7140  -24.7560    3.3420 C.3   139  LEU139      0.0001
    138  CD2      -18.0740  -23.6900    4.8840 C.3   139  LEU139      0.0001
    139  N        -19.3600  -29.1430    3.6640 N.3   142  ILE142     -0.1245
    140  CA       -18.1610  -28.8100    2.9090 C.3   142  ILE142      0.1561
    141  C        -18.1060  -29.5490    1.5770 C.2   142  ILE142      0.2260
    142  O        -17.7780  -28.9680    0.5390 O.2   142  ILE142     -0.2867
    143  CB       -16.8940  -29.1840    3.7180 C.3   142  ILE142      0.0252
    144  CG1      -17.0060  -28.6910    5.1680 C.3   142  ILE142      0.0019
    145  CG2      -15.6400  -28.6500    3.0370 C.3   142  ILE142      0.0019
    146  CD1      -17.7200  -29.6700    6.1430 C.3   142  ILE142      0.0001
    147  N        -19.1170  -26.5180   -1.2700 N.3   146  LEU146     -0.1245
    148  CA       -17.8880  -25.7640   -1.5360 C.3   146  LEU146      0.1561
    149  C        -17.2090  -25.9950   -2.8980 C.2   146  LEU146      0.2260
    150  O        -16.9110  -25.0270   -3.5990 O.2   146  LEU146     -0.2867
    151  CB       -16.8930  -25.9190   -0.3750 C.3   146  LEU146      0.0270
    152  CG       -16.4280  -24.6410    0.3230 C.3   146  LEU146      0.0019
    153  CD1      -17.6050  -23.7190    0.6210 C.3   146  LEU146      0.0001
    154  CD2      -15.6560  -24.9680    1.6070 C.3   146  LEU146      0.0001
@<TRIPOS>BOND
     1   150   149    2
     2    10     9    1
     3    10    11    2
     4     9     8    1
     5     9    12    1
     6    19    20    1
     7   149   148    1
     8    12    13    1
     9    20    23    1
    10    20    21    1
    11    23    24    1
    12    26    24   ar
    13   123   122    2
    14    24    25   ar
    15   148   147    1
    16   148   151    1
    17   122   121    1
    18    13    14    1
    19    21    22    2
    20   124   121    1
    21   124   125    1
    22   151   152    1
    23    15    14    1
    24    15    16    2
    25   121   120    1
    26   125   126   ar
    27   125   127   ar
    28   152   153    1
    29   152   154    1
    30    18    16    1
    31    16    17    1
    32   142   141    2
    33   126   128   ar
    34    85    84    2
    35   127   129   ar
    36    84    83    1
    37    78    77    2
    38   141   140    1
    39    82    83    1
    40   128   130   ar
    41   129   130   ar
    42    83    86    1
    43    77    76    1
    44    27    28    1
    45    86    87    1
    46   140   139    1
    47   140   143    1
    48   145   143    1
    49    81    75    1
    50    81    80    1
    51    75    76    1
    52   137   136    1
    53    28    31    1
    54    28    29    1
    55    80    79    1
    56    68    67    2
    57    76    79    1
    58   143   144    1
    59    87    88    1
    60    67    66    1
    61    31    32    1
    62    29    30    2
    63    88    89    1
    64    34    32   ar
    65    34    36   ar
    66   136   138    1
    67   136   135    1
    68    32    33   ar
    69   132   131    1
    70   132   135    1
    71   132   133    1
    72     6     5    1
    73    65    66    1
    74    66    69    1
    75   144   146    1
    76    59    58    1
    77    59    60    2
    78    89    90    2
    79    36    35   ar
    80   133   134    2
    81    58    57    1
    82    58    61    1
    83    33    35   ar
    84     3     2    1
    85     3     4    2
    86    69    70    1
    87     5     2    1
    88     5     7    1
    89     2     1    1
    90    72    70   ar
    91    72    74   ar
    92    70    71   ar
    93    90    91    1
    94    90    92    1
    95    61    62    1
    96    74    73   ar
    97    64    62    1
    98    71    73   ar
    99    62    63    1
   100   119   117    1
   101    45    43   ar
   102   107   106   ar
   103    44    43   ar
   104   117   116    2
   105   117   118    1
   106   116   115    1
   107   108   106   ar
   108    43    42    1
   109    54    56   ar
   110    54    52   ar
   111   106   105    1
   112    56    55   ar
   113    99    97    1
   114   114   113    1
   115   114   115    1
   116   113   110    1
   117    52    51   ar
   118    98    97    1
   119    97    94    1
   120    42    41    1
   121   112   111    2
   122    55    53   ar
   123   105   104    1
   124   110   109    1
   125   110   111    1
   126    41    38    1
   127    51    53   ar
   128    51    50    1
   129   104   101    1
   130    94    93    1
   131    94    95    1
   132    96    95    2
   133    50    47    1
   134    38    37    1
   135    38    39    1
   136   101   100    1
   137   101   102    1
   138    47    46    1
   139    47    48    1
   140   102   103    2
   141    39    40    2
   142    48    49    2
