@<TRIPOS>MOLECULE
tmp/4hstB00.pdb
 120 117 0 0 0
SMALL
GASTEIGER

@<TRIPOS>ATOM
      1  N         15.6570   48.5520  125.8540 N.3     1  SER1       -0.1273
      2  CA        14.4450   49.1270  126.5640 C.3     1  SER1        0.1575
      3  C         13.2980   48.1920  126.5050 C.3     1  SER1        0.2036
      4  O         13.3210   47.4640  125.4070 O.3     1  SER1       -0.2187
      5  CB        14.0630   50.4260  125.8370 C.3     1  SER1        0.2036
      6  OG        15.2270   51.2730  126.0190 O.3     1  SER1       -0.2187
      7  N         13.3570   52.1780  130.0900 N.3    22  PRO22      -0.2102
      8  CA        14.3610   52.4380  129.0080 C.3    22  PRO22       0.1504
      9  C         15.7210   52.0340  129.4730 C.2    22  PRO22       0.2576
     10  O         16.0870   52.3120  130.6150 O.2    22  PRO22      -0.2718
     11  CB        14.2410   53.9360  128.7890 C.3    22  PRO22       0.0282
     12  CG        13.8250   54.4400  130.1620 C.3    22  PRO22       0.0208
     13  CD        12.8430   53.4150  130.7350 C.3    22  PRO22       0.0893
     14  N         16.5290   51.4870  128.5280 N.am   23  HIS23      -0.1962
     15  CA        17.9080   51.0160  128.8900 C.3    23  HIS23       0.1787
     16  C         18.9020   51.8390  128.1630 C.2    23  HIS23       0.2620
     17  O         18.8530   51.9280  126.9130 O.2    23  HIS23      -0.2715
     18  CB        18.1270   49.5500  128.4470 C.3    23  HIS23       0.0785
     19  CG        17.1030   48.5900  128.9650 C.ar   23  HIS23       0.0821
     20  ND1       16.6960   47.4440  128.2130 N.ar   23  HIS23      -0.2267
     21  CD2       16.2950   48.6170  130.1110 C.ar   23  HIS23       0.1154
     22  CE1       15.7100   46.8070  128.9170 C.ar   23  HIS23       0.1986
     23  NE2       15.4690   47.5130  130.0720 N.ar   23  HIS23      -0.2212
     24  N         19.7730   52.5260  128.9170 N.am   24  ARG24      -0.1977
     25  CA        20.8810   53.2640  128.2960 C.3    24  ARG24       0.1597
     26  C         22.0830   53.1690  129.2150 C.2    24  ARG24       0.2287
     27  O         21.9950   52.6670  130.3490 O.2    24  ARG24      -0.2864
     28  CB        20.4890   54.7410  128.2090 C.3    24  ARG24       0.0334
     29  CG        19.2480   55.0210  127.3200 C.3    24  ARG24       0.0492
     30  CD        19.5850   54.9710  125.8230 C.3    24  ARG24       0.2205
     31  NE        20.8210   55.6910  125.3730 N.pl3  24  ARG24      -0.0865
     32  CZ        20.9460   56.9260  124.8350 C.cat  24  ARG24       0.5346
     33  NH1       19.9480   57.7840  124.7560 N.pl3  24  ARG24       0.1354
     34  NH2       22.1750   57.3370  124.4520 N.pl3  24  ARG24       0.1354
     35  N         17.3760   60.8350  132.0080 N.3    32  TYR32      -0.1241
     36  CA        15.9350   61.0980  132.1620 C.3    32  TYR32       0.1605
     37  C         15.7150   61.5490  133.6250 C.2    32  TYR32       0.2264
     38  O         16.2450   60.9010  134.5630 O.2    32  TYR32      -0.2867
     39  CB        15.0690   59.8810  131.9190 C.3    32  TYR32       0.0534
     40  CG        15.1020   59.4130  130.4750 C.ar   32  TYR32      -0.0201
     41  CD1       15.4580   58.1700  130.1510 C.ar   32  TYR32      -0.0009
     42  CD2       14.8040   60.3220  129.4570 C.ar   32  TYR32      -0.0009
     43  CE1       15.4950   57.7510  128.8240 C.ar   32  TYR32       0.0417
     44  CE2       14.8070   59.9360  128.1330 C.ar   32  TYR32       0.0417
     45  CZ        15.1590   58.6510  127.8260 C.ar   32  TYR32       0.1957
     46  OH        15.1810   58.3370  126.4660 O.3    32  TYR32      -0.2866
     47  N          8.8150   61.4640  125.4430 N.3    57  SER57      -0.1202
     48  CA         8.6960   60.0280  125.1810 C.3    57  SER57       0.2020
     49  C          8.0240   59.2460  126.2960 C.2    57  SER57       0.2618
     50  O          7.6020   58.1440  126.0040 O.2    57  SER57      -0.2717
     51  CB        10.1060   59.4750  125.0270 C.3    57  SER57       0.2103
     52  OG        10.6930   60.1410  123.8420 O.3    57  SER57      -0.2182
     53  N          7.9710   59.7550  127.5410 N.am   58  PHE58      -0.1975
     54  CA         7.4140   58.9490  128.6540 C.3    58  PHE58       0.1639
     55  C          6.5560   59.9250  129.4880 C.2    58  PHE58       0.2290
     56  O          7.1320   60.7890  130.1820 O.2    58  PHE58      -0.2864
     57  CB         8.5130   58.3850  129.5990 C.3    58  PHE58       0.0560
     58  CG         9.4480   57.4850  128.8800 C.ar   58  PHE58      -0.0200
     59  CD1        9.2580   56.0570  128.8710 C.ar   58  PHE58      -0.0042
     60  CD2       10.6180   58.0770  128.3290 C.ar   58  PHE58      -0.0042
     61  CE1       10.1710   55.2380  128.1710 C.ar   58  PHE58      -0.0003
     62  CE2       11.5360   57.2660  127.6220 C.ar   58  PHE58      -0.0003
     63  CZ        11.2850   55.8650  127.5550 C.ar   58  PHE58      -0.0000
     64  N          8.1630   54.5880  125.3730 N.3    68  VAL68      -0.1231
     65  CA         8.9150   54.1490  124.1280 C.3    68  VAL68       0.1692
     66  C          9.9750   53.1130  124.3560 C.2    68  VAL68       0.2593
     67  O         10.5270   52.9840  125.4890 O.2    68  VAL68      -0.2718
     68  CB         9.5750   55.3360  123.3430 C.3    68  VAL68       0.0266
     69  CG1        8.5390   56.4200  122.9840 C.3    68  VAL68       0.0020
     70  CG2       10.7450   55.9650  124.1380 C.3    68  VAL68       0.0020
     71  N         10.2320   52.2910  123.2910 N.am   69  THR69      -0.1939
     72  CA        11.5490   51.6500  123.2030 C.3    69  THR69       0.2028
     73  C         12.1860   51.9680  121.8670 C.2    69  THR69       0.2642
     74  O         11.4160   52.3310  120.8860 O.2    69  THR69      -0.2714
     75  CB        11.4570   50.1200  123.3010 C.3    69  THR69       0.1808
     76  OG1       10.7360   49.5680  122.1590 O.3    69  THR69      -0.2208
     77  CG2       10.7170   49.6480  124.5800 C.3    69  THR69       0.0379
     78  N         13.5140   51.9780  121.7650 N.am   70  SER70      -0.1949
     79  CA        14.1080   52.2460  120.4530 C.3    70  SER70       0.1924
     80  C         13.6160   51.1800  119.4220 C.2    70  SER70       0.2314
     81  O         13.5810   49.9510  119.6670 O.2    70  SER70      -0.2863
     82  CB        15.6360   52.1940  120.5770 C.3    70  SER70       0.2116
     83  OG        16.1130   53.3110  121.3000 O.3    70  SER70      -0.2180
     84  N         14.8250   50.5220  116.3660 N.3    72  PHE72      -0.1241
     85  CA        15.8340   49.8720  115.4310 C.3    72  PHE72       0.1605
     86  C         15.3690   49.9900  113.9790 C.2    72  PHE72       0.2264
     87  O         15.6000   49.1150  113.1520 O.2    72  PHE72      -0.2867
     88  CB        16.2120   48.4700  115.8780 C.3    72  PHE72       0.0534
     89  CG        17.1990   48.5240  117.0400 C.ar   72  PHE72      -0.0203
     90  CD1       18.6150   48.4770  116.8280 C.ar   72  PHE72      -0.0042
     91  CD2       16.7260   48.7480  118.3520 C.ar   72  PHE72      -0.0042
     92  CE1       19.5400   48.6140  117.9280 C.ar   72  PHE72      -0.0003
     93  CE2       17.6560   48.8660  119.4320 C.ar   72  PHE72      -0.0003
     94  CZ        19.0300   48.8300  119.2010 C.ar   72  PHE72      -0.0000
     95  N         14.6170   60.6580  116.4250 N.3   176  ILE176     -0.1245
     96  CA        14.9510   59.3350  117.0640 C.3   176  ILE176      0.1561
     97  C         13.8120   58.4200  116.6990 C.2   176  ILE176      0.2260
     98  O         12.6360   58.8440  116.7520 O.2   176  ILE176     -0.2867
     99  CB        14.8350   59.2810  118.6010 C.3   176  ILE176      0.0252
    100  CG1       15.3020   60.5190  119.2960 C.3   176  ILE176      0.0019
    101  CG2       15.6350   58.0900  119.1200 C.3   176  ILE176      0.0019
    102  CD1       16.7180   60.3630  119.6700 C.3   176  ILE176      0.0001
    103  N         11.2790   55.4930  117.5020 N.3   178  HIS178     -0.1241
    104  CA        10.7310   54.8770  118.6910 C.3   178  HIS178      0.1621
    105  C          9.5470   54.0280  118.4090 C.2   178  HIS178      0.2264
    106  O          8.6940   54.3190  117.5590 O.2   178  HIS178     -0.2867
    107  CB        10.1930   55.9610  119.6070 C.3   178  HIS178      0.0745
    108  CG        11.2760   56.7150  120.3140 C.ar  178  HIS178      0.0817
    109  ND1       11.0900   57.9860  120.7170 N.ar  178  HIS178     -0.2268
    110  CD2       12.5470   56.3400  120.7370 C.ar  178  HIS178      0.1154
    111  CE1       12.1650   58.4160  121.4030 C.ar  178  HIS178      0.1986
    112  NE2       13.0760   57.4440  121.4470 N.ar  178  HIS178     -0.2212
    113  N         12.8060   46.2900  121.5220 N.3   242  ASN242     -0.1240
    114  CA        13.8880   46.5100  120.4820 C.3   242  ASN242      0.1653
    115  C         13.9910   45.3420  119.5030 C.2   242  ASN242      0.2266
    116  O         15.0240   45.2270  118.7670 O.2   242  ASN242     -0.2867
    117  CB        15.2860   46.6430  121.1460 C.3   242  ASN242      0.1155
    118  CG        15.3340   47.6840  122.2490 C.2   242  ASN242      0.2627
    119  OD1       15.8780   47.3260  123.3320 O.2   242  ASN242     -0.2716
    120  ND2       14.8180   48.9040  122.0610 N.am  242  ASN242     -0.0877
@<TRIPOS>BOND
     1    87    86    2
     2    86    85    1
     3    85    88    1
     4    85    84    1
     5    88    89    1
     6    95    96    1
     7    97    98    2
     8    97    96    1
     9    90    89   ar
    10    90    92   ar
    11    89    91   ar
    12    96    99    1
    13   103   104    1
    14   106   105    2
    15    92    94   ar
    16    91    93   ar
    17   105   104    1
    18    99   101    1
    19    99   100    1
    20   104   107    1
    21   116   115    2
    22    94    93   ar
    23   100   102    1
    24    80    81    2
    25    80    79    1
    26   115   114    1
    27   107   108    1
    28   108   109   ar
    29   108   110   ar
    30    79    82    1
    31    79    78    1
    32   114   117    1
    33   114   113    1
    34    82    83    1
    35   109   111   ar
    36   110   112   ar
    37    74    73    2
    38   117   118    1
    39   111   112   ar
    40    78    73   am
    41    73    72    1
    42   120   118   am
    43    76    75    1
    44   118   119    2
    45    69    68    1
    46    72    71    1
    47    72    75    1
    48    71    66   am
    49    75    77    1
    50    68    65    1
    51    68    70    1
    52    52    51    1
    53    65    66    1
    54    65    64    1
    55    66    67    2
    56    34    32    1
    57    33    32    1
    58    32    31    2
    59    51    48    1
    60    48    47    1
    61    48    49    1
    62    31    30    1
    63     4     3    1
    64    30    29    1
    65     5     6    1
    66     5     2    1
    67     1     2    1
    68    50    49    2
    69    49    53   am
    70    46    45    1
    71     3     2    1
    72    17    16    2
    73    29    28    1
    74    53    54    1
    75    63    62   ar
    76    63    61   ar
    77    62    60   ar
    78    45    44   ar
    79    45    43   ar
    80    44    42   ar
    81    16    15    1
    82    16    24   am
    83    61    59   ar
    84    28    25    1
    85    20    22   ar
    86    20    19   ar
    87    25    24    1
    88    25    26    1
    89    60    58   ar
    90    18    15    1
    91    18    19    1
    92    14    15    1
    93    14     9   am
    94    54    55    1
    95    54    57    1
    96    11     8    1
    97    11    12    1
    98    43    41   ar
    99    59    58   ar
   100    58    57    1
   101    22    23   ar
   102    19    21   ar
   103     8     9    1
   104     8     7    1
   105    26    27    2
   106    42    40   ar
   107     9    10    2
   108    55    56    2
   109    23    21   ar
   110     7    13    1
   111    41    40   ar
   112    12    13    1
   113    40    39    1
   114    39    36    1
   115    35    36    1
   116    36    37    1
   117    37    38    2
