@<TRIPOS>MOLECULE
tmp/4ht0A01.pdb
 142 139 0 0 0
SMALL
GASTEIGER

@<TRIPOS>ATOM
      1  N        -12.3470    6.1030   11.1290 N.3    89  GLN89      -0.1245
      2  CA       -12.1170    4.9580   10.2350 C.3    89  GLN89       0.1566
      3  C        -12.3250    3.6910   11.0440 C.2    89  GLN89       0.2260
      4  O        -12.3080    3.7120   12.2590 O.2    89  GLN89      -0.2867
      5  CB       -10.7430    4.9090    9.5720 C.3    89  GLN89       0.0367
      6  CG        -9.5500    5.0930   10.6040 C.3    89  GLN89       0.0905
      7  CD        -8.8750    3.8300   11.1310 C.2    89  GLN89       0.2608
      8  OE1       -9.4130    2.7480   11.0040 O.2    89  GLN89      -0.2717
      9  NE2       -7.7000    4.0230   11.7740 N.am   89  GLN89      -0.0878
     10  N        -10.9790   -0.5930   10.7820 N.3    91  HIS91      -0.1241
     11  CA       -10.1230   -1.5500   10.2040 C.3    91  HIS91       0.1621
     12  C        -10.2010   -2.8140   11.0650 C.2    91  HIS91       0.2264
     13  O        -10.8400   -2.8240   12.1140 O.2    91  HIS91      -0.2867
     14  CB        -8.5900   -1.0790   10.1110 C.3    91  HIS91       0.0745
     15  CG        -8.0430   -0.7600   11.4900 C.ar   91  HIS91       0.0817
     16  ND1       -8.2440    0.4770   12.1250 N.ar   91  HIS91      -0.2268
     17  CD2       -7.4330   -1.5550   12.4020 C.ar   91  HIS91       0.1154
     18  CE1       -7.7300    0.4030   13.3480 C.ar   91  HIS91       0.1986
     19  NE2       -7.2620   -0.8320   13.5460 N.ar   91  HIS91      -0.2212
     20  N         -7.8350   -6.5160   12.3410 N.3    93  HIS93      -0.1241
     21  CA        -6.6400   -7.3250   12.5070 C.3    93  HIS93       0.1621
     22  C         -7.0720   -8.7610   12.3780 C.2    93  HIS93       0.2264
     23  O         -8.1090   -9.1390   12.9520 O.2    93  HIS93      -0.2867
     24  CB        -5.9690   -7.0900   13.8620 C.3    93  HIS93       0.0745
     25  CG        -5.7140   -5.6450   14.1660 C.ar   93  HIS93       0.0817
     26  ND1       -4.4670   -5.0780   13.9250 N.ar   93  HIS93      -0.2268
     27  CD2       -6.5260   -4.6240   14.5690 C.ar   93  HIS93       0.1154
     28  CE1       -4.4940   -3.8050   14.3460 C.ar   93  HIS93       0.1986
     29  NE2       -5.7330   -3.4700   14.6270 N.ar   93  HIS93      -0.2212
     30  N        -11.7380   -2.7190   14.7460 N.3   116  HIS116     -0.1241
     31  CA       -11.5290   -1.5160   15.5410 C.3   116  HIS116      0.1621
     32  C        -12.2320   -0.3710   14.8260 C.2   116  HIS116      0.2264
     33  O        -11.8070    0.0000   13.7090 O.2   116  HIS116     -0.2867
     34  CB       -10.0440   -1.2360   15.6030 C.3   116  HIS116      0.0745
     35  CG        -9.3560   -2.1790   16.5210 C.ar  116  HIS116      0.0817
     36  ND1       -7.9990   -2.4050   16.4250 N.ar  116  HIS116     -0.2268
     37  CD2       -9.8530   -3.0040   17.4590 C.ar  116  HIS116      0.1154
     38  CE1       -7.6570   -3.3010   17.3240 C.ar  116  HIS116      0.1986
     39  NE2       -8.7720   -3.6790   17.9950 N.ar  116  HIS116     -0.2212
     40  N        -12.5340    3.4060   15.0660 N.3   118  VAL118     -0.1245
     41  CA       -11.6740    4.4220   15.7460 C.3   118  VAL118      0.1561
     42  C        -12.3420    5.7390   15.7850 C.2   118  VAL118      0.2260
     43  O        -12.7500    6.2440   14.7020 O.2   118  VAL118     -0.2867
     44  CB       -10.3660    4.5170   15.0020 C.3   118  VAL118      0.0252
     45  CG1       -9.4740    5.6390   15.5660 C.3   118  VAL118      0.0019
     46  CG2       -9.6790    3.1250   14.8570 C.3   118  VAL118      0.0019
     47  N         -8.1610   14.4840   14.5970 N.3   127  PHE127     -0.1227
     48  CA        -7.4780   13.2570   14.9930 C.3   127  PHE127      0.1736
     49  C         -6.0500   13.4800   15.4240 C.2   127  PHE127      0.2596
     50  O         -5.5950   12.8950   16.4030 O.2   127  PHE127     -0.2718
     51  CB        -7.5770   12.2330   13.8240 C.3   127  PHE127      0.0547
     52  CG        -6.8910   10.9050   14.1140 C.ar  127  PHE127     -0.0202
     53  CD1       -7.5920    9.8590   14.8270 C.ar  127  PHE127     -0.0042
     54  CD2       -5.5630   10.7050   13.7480 C.ar  127  PHE127     -0.0042
     55  CE1       -6.9410    8.7200   15.1240 C.ar  127  PHE127     -0.0003
     56  CE2       -4.9610    9.5050   14.0290 C.ar  127  PHE127     -0.0003
     57  CZ        -5.7010    8.5070   14.7370 C.ar  127  PHE127     -0.0000
     58  N         -5.2990   14.2850   14.6340 N.am  128  GLY128     -0.1957
     59  CA        -3.8860   14.4390   14.9040 C.3   128  GLY128      0.1869
     60  C         -3.6400   15.0830   16.2630 C.2   128  GLY128      0.2309
     61  O         -2.6530   14.7510   16.9370 O.2   128  GLY128     -0.2863
     62  N         -4.7640   12.3930   19.2720 N.3   131  VAL131     -0.1231
     63  CA        -3.8040   11.2590   19.6760 C.3   131  VAL131      0.1692
     64  C         -2.6910   11.7080   20.6320 C.2   131  VAL131      0.2591
     65  O         -1.9970   10.8960   21.2350 O.2   131  VAL131     -0.2718
     66  CB        -3.1560   10.5100   18.4860 C.3   131  VAL131      0.0266
     67  CG1       -4.2290    9.8550   17.6680 C.3   131  VAL131      0.0020
     68  CG2       -2.2600   11.4800   17.6370 C.3   131  VAL131      0.0020
     69  N         -2.5290   13.0250   20.7740 N.am  132  GLN132     -0.1979
     70  CA        -1.4990   13.4720   21.7120 C.3   132  GLN132      0.1601
     71  C         -2.0620   13.5420   23.1340 C.2   132  GLN132      0.2287
     72  O         -1.3210   13.8970   24.0520 O.2   132  GLN132     -0.2864
     73  CB        -0.8730   14.8180   21.2020 C.3   132  GLN132      0.0394
     74  CG         0.0310   14.6250   19.9180 C.3   132  GLN132      0.0908
     75  CD         1.2750   13.7640   20.1580 C.2   132  GLN132      0.2608
     76  OE1        1.8320   13.7670   21.2370 O.2   132  GLN132     -0.2717
     77  NE2        1.7190   13.0170   19.1170 N.am  132  GLN132     -0.0878
     78  N        -11.7130    3.6780   21.0210 N.3   139  VAL139     -0.1245
     79  CA       -11.7690    2.6410   20.0290 C.3   139  VAL139      0.1561
     80  C        -12.7560    1.5790   20.4840 C.2   139  VAL139      0.2260
     81  O        -12.6040    1.0470   21.5640 O.2   139  VAL139     -0.2867
     82  CB       -10.3850    2.0410   19.6690 C.3   139  VAL139      0.0252
     83  CG1      -10.5110    1.0630   18.5160 C.3   139  VAL139      0.0019
     84  CG2       -9.4000    3.1760   19.2630 C.3   139  VAL139      0.0019
     85  N         -2.8540    3.0610   21.1330 N.3   194  LEU194     -0.1231
     86  CA        -2.9440    2.5170   19.7440 C.3   194  LEU194      0.1693
     87  C         -2.1470    1.2280   19.7550 C.2   194  LEU194      0.2593
     88  O         -1.1370    1.0480   20.4960 O.2   194  LEU194     -0.2718
     89  CB        -2.2800    3.5060   18.7770 C.3   194  LEU194      0.0284
     90  CG        -2.9390    4.8610   18.7290 C.3   194  LEU194      0.0019
     91  CD1       -2.0190    5.7280   17.8550 C.3   194  LEU194      0.0001
     92  CD2       -4.2730    4.7820   18.1630 C.3   194  LEU194      0.0001
     93  N         -2.6400    0.2510   18.9780 N.am  195  THR195     -0.1939
     94  CA        -1.9250   -1.0790   18.9190 C.3   195  THR195      0.2028
     95  C         -0.9230   -1.1680   17.7600 C.2   195  THR195      0.2643
     96  O         -0.3000   -2.2310   17.6230 O.2   195  THR195     -0.2714
     97  CB        -2.9480   -2.2230   18.7790 C.3   195  THR195      0.1808
     98  OG1       -3.5670   -2.1590   17.5240 O.3   195  THR195     -0.2208
     99  CG2       -3.8600   -2.2630   20.0150 C.3   195  THR195      0.0379
    100  N         -0.8100   -0.0730   16.9650 N.am  196  THR196     -0.1937
    101  CA         0.2750    0.0070   15.9590 C.3   196  THR196      0.2013
    102  C          1.0900    1.2640   16.2790 C.2   196  THR196      0.2484
    103  O          0.5730    2.2520   16.8440 O.2   196  THR196     -0.2729
    104  CB        -0.2470    0.2230   14.5720 C.3   196  THR196      0.1807
    105  OG1       -1.1820    1.2870   14.5720 O.3   196  THR196     -0.2208
    106  CG2       -0.9700   -1.0690   14.1530 C.3   196  THR196      0.0379
    107  N          2.3570    1.2460   15.8300 N.am  197  PRO197     -0.2715
    108  CA         3.0730    2.5010   15.9680 C.3   197  PRO197      0.1521
    109  C          2.2130    3.6430   15.4050 C.2   197  PRO197      0.2440
    110  O          1.5670    3.5120   14.3180 O.2   197  PRO197     -0.2731
    111  CB         4.3340    2.1840   15.1020 C.3   197  PRO197      0.0310
    112  CG         4.5980    0.8010   15.2400 C.3   197  PRO197      0.0237
    113  CD         3.1710    0.1470   15.2820 C.3   197  PRO197      0.0939
    114  N          2.2580    4.8280   16.0130 N.am  198  PRO198     -0.2727
    115  CA         3.1580    5.2490   17.1300 C.3   198  PRO198      0.1402
    116  C          2.8310    4.7880   18.5680 C.2   198  PRO198      0.2269
    117  O          3.4630    5.2190   19.5590 O.2   198  PRO198     -0.2865
    118  CB         3.1170    6.7850   17.0300 C.3   198  PRO198      0.0296
    119  CG         1.6940    7.0920   16.5830 C.3   198  PRO198      0.0237
    120  CD         1.3950    5.9480   15.5410 C.3   198  PRO198      0.0939
    121  N          0.6100    5.3630   20.7180 N.3   200  LEU200     -0.1301
    122  CA         0.3910    6.4870   21.6790 C.3   200  LEU200      0.1247
    123  C         -0.6740    6.1120   22.6770 C.3   200  LEU200      0.2009
    124  O         -1.6730    5.3700   22.3410 O.3   200  LEU200     -0.2188
    125  CB        -0.1050    7.7230   20.8960 C.3   200  LEU200      0.0217
    126  CG         0.9810    8.2990   19.9500 C.3   200  LEU200      0.0015
    127  CD1        0.3940    9.3990   19.0310 C.3   200  LEU200      0.0000
    128  CD2        2.1290    8.8080   20.7920 C.3   200  LEU200      0.0000
    129  N        -10.3030    2.1770   25.5460 N.3   205  TRP205     -0.1241
    130  CA       -10.7730    0.9800   24.8380 C.3   205  TRP205      0.1605
    131  C        -12.1460    0.5620   25.3460 C.2   205  TRP205      0.2264
    132  O        -12.3400    0.4770   26.5640 O.2   205  TRP205     -0.2867
    133  CB        -9.7790   -0.2460   25.0500 C.3   205  TRP205      0.0550
    134  CG        -8.6700   -0.0850   24.1040 C.ar  205  TRP205      0.0003
    135  CD1       -7.3900    0.4920   24.2980 C.ar  205  TRP205      0.0946
    136  CD2       -8.7080   -0.5020   22.7460 C.ar  205  TRP205      0.0152
    137  NE1       -6.7170    0.4880   23.1250 N.ar  205  TRP205     -0.2442
    138  CE2       -7.4440   -0.1510   22.1490 C.ar  205  TRP205      0.0810
    139  CE3       -9.6950   -1.1330   21.9550 C.ar  205  TRP205      0.0012
    140  CZ2       -7.1510   -0.3590   20.8320 C.ar  205  TRP205      0.0191
    141  CZ3       -9.4180   -1.3970   20.6670 C.ar  205  TRP205      0.0001
    142  CH2       -8.1530   -1.0270   20.0240 C.ar  205  TRP205      0.0015
@<TRIPOS>BOND
     1     5     2    1
     2     5     6    1
     3    14    11    1
     4    14    15    1
     5    11    10    1
     6    11    12    1
     7     2     3    1
     8     2     1    1
     9     6     7    1
    10     8     7    2
    11     3     4    2
    12    12    13    2
    13     7     9   am
    14    15    16   ar
    15    15    17   ar
    16    16    18   ar
    17    20    21    1
    18    22    21    1
    19    22    23    2
    20    17    19   ar
    21    21    24    1
    22    18    19   ar
    23    33    32    2
    24    54    56   ar
    25    54    52   ar
    26    51    52    1
    27    51    48    1
    28    24    25    1
    29    26    25   ar
    30    26    28   ar
    31    56    57   ar
    32    52    53   ar
    33   106   104    1
    34    25    27   ar
    35   110   109    2
    36    28    29   ar
    37    27    29   ar
    38   105   104    1
    39   104   101    1
    40    47    48    1
    41    58    59    1
    42    58    49   am
    43    43    42    2
    44    57    55   ar
    45    30    31    1
    46    32    31    1
    47    53    55   ar
    48    46    44    1
    49    59    60    1
    50    48    49    1
    51    44    45    1
    52    44    41    1
    53    40    41    1
    54   111   112    1
    55   111   108    1
    56   112   113    1
    57   113   107    1
    58   109   108    1
    59   109   114   am
    60    49    50    2
    61    31    34    1
    62   120   114    1
    63   120   119    1
    64    34    35    1
    65    41    42    1
    66   107   108    1
    67   107   102   am
    68   101   102    1
    69   101   100    1
    70   114   115    1
    71    60    61    2
    72   102   103    2
    73    36    35   ar
    74    36    38   ar
    75    35    37   ar
    76   119   118    1
    77   100    95   am
    78   118   115    1
    79   115   116    1
    80    38    39   ar
    81    37    39   ar
    82    98    97    1
    83    96    95    2
    84    68    66    1
    85    67    66    1
    86    95    94    1
    87    91    90    1
    88    92    90    1
    89    66    63    1
    90    83    82    1
    91   116   117    2
    92    90    89    1
    93    89    86    1
    94    97    94    1
    95    97    99    1
    96    94    93    1
    97    93    87   am
    98   127   126    1
    99    77    75   am
   100    84    82    1
   101    62    63    1
   102    82    79    1
   103    63    64    1
   104    86    87    1
   105    86    85    1
   106    87    88    2
   107    74    75    1
   108    74    73    1
   109   126   128    1
   110   126   125    1
   111   142   141   ar
   112   142   140   ar
   113    79    80    1
   114    79    78    1
   115    75    76    2
   116    80    81    2
   117    64    69   am
   118    64    65    2
   119   141   139   ar
   120   121   122    1
   121    69    70    1
   122   140   138   ar
   123   125   122    1
   124    73    70    1
   125   122   123    1
   126    70    71    1
   127   139   136   ar
   128   138   136   ar
   129   138   137   ar
   130   124   123    1
   131   136   134   ar
   132   137   135   ar
   133    71    72    2
   134   134   135   ar
   135   134   133    1
   136   130   133    1
   137   130   131    1
   138   130   129    1
   139   131   132    2
