@<TRIPOS>MOLECULE
tmp/4ht2A00.pdb
 151 142 0 0 0
SMALL
GASTEIGER

@<TRIPOS>ATOM
      1  N          5.8690   24.1610   -4.2930 N.3    62  ASN62      -0.1240
      2  CA         5.0930   24.5420   -3.1550 C.3    62  ASN62       0.1653
      3  C          5.4770   23.7870   -1.8730 C.2    62  ASN62       0.2266
      4  O          4.7480   23.7960   -0.8960 O.2    62  ASN62      -0.2867
      5  CB         3.6060   24.4350   -3.4180 C.3    62  ASN62       0.1155
      6  CG         3.1390   23.0000   -3.5500 C.2    62  ASN62       0.2627
      7  OD1        3.8880   22.0180   -3.4150 O.2    62  ASN62      -0.2716
      8  ND2        1.7840   22.8510   -3.6980 N.am   62  ASN62      -0.0877
      9  N         -7.6550   23.9140  -12.8600 N.3    86  THR86      -0.1203
     10  CA        -7.0770   24.8420  -11.9240 C.3    86  THR86       0.1994
     11  C         -5.5470   24.7080  -11.8240 C.2    86  THR86       0.2617
     12  O         -4.8600   25.7540  -11.5680 O.2    86  THR86      -0.2717
     13  CB        -7.6970   24.7150  -10.5420 C.3    86  THR86       0.1784
     14  OG1       -7.1050   25.7060   -9.6940 O.3    86  THR86      -0.2211
     15  CG2       -7.5360   23.3040   -9.9780 C.3    86  THR86       0.0376
     16  N         -4.9920   23.4690  -12.0020 N.am   87  GLN87      -0.1979
     17  CA        -3.5280   23.3010  -11.8800 C.3    87  GLN87       0.1601
     18  C         -3.2380   21.8460  -12.2670 C.2    87  GLN87       0.2287
     19  O         -4.1500   20.9940  -12.2320 O.2    87  GLN87      -0.2864
     20  CB        -2.9980   23.5970  -10.4870 C.3    87  GLN87       0.0394
     21  CG        -3.7560   22.8040   -9.3480 C.3    87  GLN87       0.0908
     22  CD        -2.8030   21.7600   -8.7840 C.2    87  GLN87       0.2608
     23  OE1       -2.2530   20.9570   -9.5250 O.2    87  GLN87      -0.2717
     24  NE2       -2.6160   21.7890   -7.5020 N.am   87  GLN87      -0.0878
     25  N          0.1210   18.8780  -11.4280 N.3    89  HIS89      -0.1241
     26  CA         1.3450   18.6490  -10.6350 C.3    89  HIS89       0.1621
     27  C          1.6680   17.1510  -10.7310 C.2    89  HIS89       0.2264
     28  O          0.9540   16.3490  -11.3980 O.2    89  HIS89      -0.2867
     29  CB         1.0730   19.0270   -9.1300 C.3    89  HIS89       0.0745
     30  CG        -0.0530   18.1610   -8.5410 C.ar   89  HIS89       0.0817
     31  ND1       -1.3890   18.5110   -8.6090 N.ar   89  HIS89      -0.2268
     32  CD2       -0.0210   16.9050   -7.9620 C.ar   89  HIS89       0.1154
     33  CE1       -2.1180   17.4860   -8.1460 C.ar   89  HIS89       0.1986
     34  NE2       -1.2960   16.5030   -7.7490 N.ar   89  HIS89      -0.2212
     35  N          3.7060   13.3790   -8.9270 N.3    91  HIS91      -0.1241
     36  CA         4.1530   12.5520   -7.7620 C.3    91  HIS91       0.1621
     37  C          5.1980   11.5520   -8.2870 C.2    91  HIS91       0.2264
     38  O          5.0670   11.1040   -9.4150 O.2    91  HIS91      -0.2867
     39  CB         2.9380   11.7520   -7.2390 C.3    91  HIS91       0.0745
     40  CG         1.7820   12.6140   -6.7970 C.ar   91  HIS91       0.0817
     41  ND1        1.7020   13.1060   -5.4970 N.ar   91  HIS91      -0.2268
     42  CD2        0.7140   13.1190   -7.4380 C.ar   91  HIS91       0.1154
     43  CE1        0.5810   13.8380   -5.3660 C.ar   91  HIS91       0.1986
     44  NE2       -0.0100   13.8940   -6.5350 N.ar   91  HIS91      -0.2212
     45  N         -1.2050   14.5910  -12.3180 N.3   115  HIS115     -0.1241
     46  CA        -2.6120   14.9420  -12.0130 C.3   115  HIS115      0.1621
     47  C         -3.0200   16.3180  -12.6040 C.2   115  HIS115      0.2264
     48  O         -2.2330   17.2840  -12.3900 O.2   115  HIS115     -0.2867
     49  CB        -2.8200   14.9990  -10.4950 C.3   115  HIS115      0.0745
     50  CG        -2.7190   13.6530   -9.8460 C.ar  115  HIS115      0.0817
     51  ND1       -2.4100   13.3920   -8.5260 N.ar  115  HIS115     -0.2268
     52  CD2       -2.8540   12.4400  -10.4610 C.ar  115  HIS115      0.1154
     53  CE1       -2.4040   12.0630   -8.3140 C.ar  115  HIS115      0.1986
     54  NE2       -2.6780   11.4720   -9.4720 N.ar  115  HIS115     -0.2212
     55  N         -5.9350   18.8260  -12.2550 N.3   117  VAL117     -0.1245
     56  CA        -7.0460   19.0620  -11.3290 C.3   117  VAL117      0.1561
     57  C         -8.0850   20.0000  -11.9330 C.2   117  VAL117      0.2260
     58  O         -7.7120   21.0650  -12.4900 O.2   117  VAL117     -0.2867
     59  CB        -6.4730   19.7210  -10.0400 C.3   117  VAL117      0.0252
     60  CG1       -7.6310   20.0430   -9.0140 C.3   117  VAL117      0.0019
     61  CG2       -5.3760   18.8120   -9.4030 C.3   117  VAL117      0.0019
     62  N        -12.7290   26.4940   -6.7900 N.3   127  ALA127     -0.1231
     63  CA       -12.2640   25.1350   -6.4040 C.3   127  ALA127      0.1694
     64  C        -12.3120   24.8610   -4.8930 C.2   127  ALA127      0.2592
     65  O        -12.7090   23.7260   -4.4570 O.2   127  ALA127     -0.2718
     66  CB       -10.9220   24.9540   -6.9260 C.3   127  ALA127      0.0304
     67  N        -12.0950   25.9240   -4.0750 N.am  128  SER128     -0.1952
     68  CA       -12.2530   25.7990   -2.6080 C.3   128  SER128      0.1924
     69  C        -13.6810   25.4250   -2.2260 C.2   128  SER128      0.2314
     70  O        -13.8930   24.4520   -1.4820 O.2   128  SER128     -0.2863
     71  CB       -11.8600   27.1210   -1.9120 C.3   128  SER128      0.2116
     72  OG       -11.8800   26.8260   -0.5430 O.3   128  SER128     -0.2180
     73  N        -14.5150   21.8840   -3.3440 N.3   131  SER131     -0.1217
     74  CA       -13.7050   20.8260   -2.7390 C.3   131  SER131      0.1889
     75  C        -14.4250   20.1590   -1.5620 C.2   131  SER131      0.2288
     76  O        -14.0290   19.0160   -1.2050 O.2   131  SER131     -0.2866
     77  CB       -12.3080   21.3360   -2.3590 C.3   131  SER131      0.2089
     78  OG       -12.3730   22.2060   -1.2270 O.3   131  SER131     -0.2183
     79  N        -14.8790   17.9670   -7.4840 N.3   137  LEU137     -0.1245
     80  CA       -13.5680   17.9860   -8.1880 C.3   137  LEU137      0.1561
     81  C        -13.5460   16.8300   -9.1610 C.2   137  LEU137      0.2260
     82  O        -14.1730   15.7660   -8.8790 O.2   137  LEU137     -0.2867
     83  CB       -12.4570   17.7980   -7.1450 C.3   137  LEU137      0.0270
     84  CG       -12.4260   18.9270   -6.0550 C.3   137  LEU137      0.0019
     85  CD1      -11.3150   18.5570   -4.9520 C.3   137  LEU137      0.0001
     86  CD2      -12.1310   20.3370   -6.6530 C.3   137  LEU137      0.0001
     87  N        -10.3120   14.8710  -11.2330 N.3   139  VAL139     -0.1245
     88  CA        -8.8630   14.8620  -11.4990 C.3   139  VAL139      0.1561
     89  C         -8.5730   13.8260  -12.5750 C.2   139  VAL139      0.2260
     90  O         -9.1560   12.7230  -12.5350 O.2   139  VAL139     -0.2867
     91  CB        -8.0060   14.5120  -10.2610 C.3   139  VAL139      0.0252
     92  CG1       -6.4940   14.5840  -10.5360 C.3   139  VAL139      0.0019
     93  CG2       -8.3540   15.5440   -9.1290 C.3   139  VAL139      0.0019
     94  N         -9.0230   13.4680   -2.5550 N.3   195  LEU195     -0.1231
     95  CA        -7.6930   14.0460   -2.7320 C.3   195  LEU195      0.1693
     96  C         -6.6400   13.0950   -2.0840 C.2   195  LEU195      0.2593
     97  O         -6.8810   12.5560   -0.9630 O.2   195  LEU195     -0.2718
     98  CB        -7.6400   15.4160   -2.0110 C.3   195  LEU195      0.0284
     99  CG        -8.5370   16.5170   -2.6380 C.3   195  LEU195      0.0019
    100  CD1       -8.7480   17.7180   -1.6780 C.3   195  LEU195      0.0001
    101  CD2       -8.1840   16.9050   -4.0410 C.3   195  LEU195      0.0001
    102  N         -5.5070   12.8880   -2.7570 N.am  196  THR196     -0.1939
    103  CA        -4.5080   11.9770   -2.1990 C.3   196  THR196      0.2028
    104  C         -3.4890   12.6270   -1.2680 C.2   196  THR196      0.2642
    105  O         -2.5300   12.0090   -0.8000 O.2   196  THR196     -0.2714
    106  CB        -3.6670   11.3640   -3.3320 C.3   196  THR196      0.1808
    107  OG1       -2.9660   12.4300   -3.9840 O.3   196  THR196     -0.2208
    108  CG2       -4.5030   10.6330   -4.3860 C.3   196  THR196      0.0379
    109  N         -3.6890   13.9620   -1.1340 N.am  197  THR197     -0.1950
    110  CA        -2.9740   14.7740   -0.1340 C.3   197  THR197      0.1897
    111  C         -3.9560   15.2980    0.9200 C.2   197  THR197      0.2313
    112  O         -5.1630   15.2980    0.7200 O.2   197  THR197     -0.2863
    113  CB        -2.2600   16.0280   -0.8350 C.3   197  THR197      0.1794
    114  OG1       -3.2640   16.7440   -1.5910 O.3   197  THR197     -0.2208
    115  CG2       -1.4200   15.5000   -2.0700 C.3   197  THR197      0.0378
    116  N         -6.1550   18.0880    2.4430 N.3   199  PRO199     -0.2116
    117  CA        -7.0570   17.5380    3.4620 C.3   199  PRO199      0.1372
    118  C         -7.8260   16.2520    3.1510 C.2   199  PRO199      0.2244
    119  O         -8.6430   15.8560    4.0030 O.2   199  PRO199     -0.2868
    120  CB        -8.0880   18.7070    3.6500 C.3   199  PRO199      0.0268
    121  CG        -7.6900   19.7290    2.8270 C.3   199  PRO199      0.0207
    122  CD        -6.7110   19.2910    1.7930 C.3   199  PRO199      0.0892
    123  N        -10.0650   15.3380    1.0330 N.3   201  ASN201     -0.1240
    124  CA       -11.5250   15.4560    0.9170 C.3   201  ASN201      0.1653
    125  C        -12.0680   14.3340    0.0310 C.2   201  ASN201      0.2266
    126  O        -11.5110   14.1030   -1.0500 O.2   201  ASN201     -0.2867
    127  CB       -11.8640   16.7890    0.1960 C.3   201  ASN201      0.1155
    128  CG       -11.1930   17.9970    0.8020 C.2   201  ASN201      0.2627
    129  OD1       -9.9550   18.0900    0.9350 O.2   201  ASN201     -0.2716
    130  ND2      -12.0320   18.9580    1.1900 N.am  201  ASN201     -0.0877
    131  N        -13.5630   13.7470   -5.0180 N.3   204  VAL204     -0.1245
    132  CA       -12.9550   13.6750   -6.3590 C.3   204  VAL204      0.1561
    133  C        -13.5820   12.5990   -7.2110 C.2   204  VAL204      0.2260
    134  O        -13.6040   11.4370   -6.7880 O.2   204  VAL204     -0.2867
    135  CB       -11.4350   13.4040   -6.2710 C.3   204  VAL204      0.0252
    136  CG1      -10.7880   13.3630   -7.6350 C.3   204  VAL204      0.0019
    137  CG2      -10.7450   14.5490   -5.4530 C.3   204  VAL204      0.0019
    138  N        -12.4060   10.4780  -10.0460 N.3   206  TRP206     -0.1241
    139  CA       -11.1180   10.1750  -10.6650 C.3   206  TRP206      0.1605
    140  C        -11.2990    9.6150  -12.0790 C.2   206  TRP206      0.2264
    141  O        -12.2150    8.7670  -12.2840 O.2   206  TRP206     -0.2867
    142  CB       -10.3630    9.0910   -9.8330 C.3   206  TRP206      0.0550
    143  CG        -9.6630    9.7370   -8.6640 C.ar  206  TRP206      0.0003
    144  CD1      -10.1340    9.8300   -7.3760 C.ar  206  TRP206      0.0946
    145  CD2       -8.3880   10.4260   -8.7100 C.ar  206  TRP206      0.0152
    146  NE1       -9.2250   10.6210   -6.5940 N.ar  206  TRP206     -0.2442
    147  CE2       -8.1400   10.9200   -7.3990 C.ar  206  TRP206      0.0810
    148  CE3       -7.4470   10.7020   -9.7080 C.ar  206  TRP206      0.0012
    149  CZ2       -6.9940   11.6940   -7.0900 C.ar  206  TRP206      0.0191
    150  CZ3       -6.2990   11.4590   -9.3740 C.ar  206  TRP206      0.0001
    151  CH2       -6.1140   11.9600   -8.0960 C.ar  206  TRP206      0.0015
@<TRIPOS>BOND
     1     9    10    1
     2    47    48    2
     3    47    46    1
     4    89    90    2
     5    89    88    1
     6    58    57    2
     7    45    46    1
     8   141   140    2
     9    18    19    2
    10    18    17    1
    11    55    56    1
    12   140   139    1
    13    46    49    1
    14    16    17    1
    15    16    11   am
    16    57    56    1
    17    10    11    1
    18    10    13    1
    19    17    20    1
    20    11    12    2
    21    88    87    1
    22    88    91    1
    23    25    26    1
    24    28    27    2
    25    56    59    1
    26    27    26    1
    27   139   138    1
    28   139   142    1
    29    26    29    1
    30    13    15    1
    31    13    14    1
    32    92    91    1
    33    49    50    1
    34    20    21    1
    35    52    50   ar
    36    52    54   ar
    37    91    93    1
    38    59    61    1
    39    59    60    1
    40    50    51   ar
    41   142   143    1
    42   148   150   ar
    43   148   145   ar
    44    23    22    2
    45    54    53   ar
    46    38    37    2
    47   150   151   ar
    48    21    22    1
    49    81    82    2
    50    81    80    1
    51    29    30    1
    52    35    36    1
    53    22    24   am
    54   145   143   ar
    55   145   147   ar
    56   143   144   ar
    57    31    30   ar
    58    31    33   ar
    59    30    32   ar
    60    51    53   ar
    61    37    36    1
    62    80    79    1
    63    80    83    1
    64    33    34   ar
    65   151   149   ar
    66    32    34   ar
    67    36    39    1
    68   136   135    1
    69    42    40   ar
    70    42    44   ar
    71   147   149   ar
    72   147   146   ar
    73   144   146   ar
    74    39    40    1
    75   133   134    2
    76   133   132    1
    77    83    84    1
    78    66    63    1
    79    40    41   ar
    80    62    63    1
    81    86    84    1
    82    44    43   ar
    83    63    64    1
    84   132   135    1
    85   132   131    1
    86   135   137    1
    87    84    85    1
    88    41    43   ar
    89    64    65    2
    90    64    67   am
    91   108   106    1
    92     1     2    1
    93    67    68    1
    94   101    99    1
    95   107   106    1
    96     8     6   am
    97     6     5    1
    98     6     7    2
    99     5     2    1
   100    73    74    1
   101   106   103    1
   102     2     3    1
   103   102   103    1
   104   102    96   am
   105    74    77    1
   106    74    75    1
   107    95    94    1
   108    95    96    1
   109    95    98    1
   110    99    98    1
   111    99   100    1
   112    68    69    1
   113    68    71    1
   114    77    78    1
   115    69    70    2
   116   103   104    1
   117    96    97    2
   118   115   113    1
   119    71    72    1
   120     3     4    2
   121   114   113    1
   122    75    76    2
   123   104   109   am
   124   104   105    2
   125   109   110    1
   126   126   125    2
   127   113   110    1
   128   110   111    1
   129   125   124    1
   130   127   128    1
   131   127   124    1
   132   112   111    2
   133   128   129    2
   134   128   130   am
   135   124   123    1
   136   122   116    1
   137   122   121    1
   138   116   117    1
   139   121   120    1
   140   118   117    1
   141   118   119    2
   142   117   120    1
