@<TRIPOS>MOLECULE
tmp/4ht3B01.pdb
 77 74 0 0 0
SMALL
GASTEIGER

@<TRIPOS>ATOM
      1  N         24.9380   19.2990  -26.4640 N.3    11  PHE11      -0.1241
      2  CA        24.5350   20.2350  -25.4220 C.3    11  PHE11       0.1605
      3  C         25.0590   19.8270  -24.0550 C.2    11  PHE11       0.2264
      4  O         25.1420   18.6410  -23.7420 O.2    11  PHE11      -0.2867
      5  CB        23.0040   20.3240  -25.3960 C.3    11  PHE11       0.0534
      6  CG        22.4060   20.6740  -26.7410 C.ar   11  PHE11      -0.0203
      7  CD1       22.5070   21.9790  -27.2290 C.ar   11  PHE11      -0.0042
      8  CD2       21.7710   19.6990  -27.5030 C.ar   11  PHE11      -0.0042
      9  CE1       21.9420   22.2940  -28.4780 C.ar   11  PHE11      -0.0003
     10  CE2       21.2370   20.0150  -28.7520 C.ar   11  PHE11      -0.0003
     11  CZ        21.3150   21.3090  -29.2270 C.ar   11  PHE11      -0.0000
     12  N         13.8180   30.2420  -25.2590 N.3   269  PRO269     -0.2102
     13  CA        15.0730   30.0830  -25.9700 C.3   269  PRO269      0.1504
     14  C         15.2100   28.7600  -26.7070 C.2   269  PRO269      0.2576
     15  O         15.9380   28.7050  -27.7140 O.2   269  PRO269     -0.2718
     16  CB        16.1250   30.1320  -24.8500 C.3   269  PRO269      0.0282
     17  CG        15.4010   29.6870  -23.6260 C.3   269  PRO269      0.0208
     18  CD        14.0100   30.2580  -23.8020 C.3   269  PRO269      0.0893
     19  N         14.5900   27.6740  -26.2380 N.am  270  LEU270     -0.1966
     20  CA        14.7930   26.4140  -26.9220 C.3   270  LEU270      0.1728
     21  C         14.3160   26.4960  -28.3620 C.2   270  LEU270      0.2616
     22  O         15.0130   26.0670  -29.2650 O.2   270  LEU270     -0.2715
     23  CB        14.1450   25.2450  -26.1790 C.3   270  LEU270      0.0311
     24  CG        14.6200   23.8260  -26.5520 C.3   270  LEU270      0.0022
     25  CD1       14.4500   22.8130  -25.4310 C.3   270  LEU270      0.0001
     26  CD2       13.8640   23.3330  -27.7840 C.3   270  LEU270      0.0001
     27  N         13.1550   27.1050  -28.5950 N.am  271  LYS271     -0.1977
     28  CA        12.6430   27.1630  -29.9500 C.3   271  LYS271      0.1596
     29  C         12.9690   28.4830  -30.6620 C.2   271  LYS271      0.2287
     30  O         12.9560   28.5290  -31.8870 O.2   271  LYS271     -0.2864
     31  CB        11.1410   26.8830  -30.0010 C.3   271  LYS271      0.0298
     32  CG        10.8060   25.4230  -29.6330 C.3   271  LYS271      0.0038
     33  CD        11.5240   24.3310  -30.4460 C.3   271  LYS271      0.0206
     34  CE        11.0140   24.1380  -31.8850 C.3   271  LYS271      0.1093
     35  NZ         9.6080   23.7680  -31.9400 N.3   271  LYS271     -0.1314
     36  N         15.5990   30.9560  -29.3540 N.3   273  GLY273     -0.1210
     37  CA        16.9010   31.5220  -29.0060 C.3   273  GLY273      0.1956
     38  C         17.9800   31.0080  -29.9360 C.2   273  GLY273      0.2612
     39  O         17.7020   30.5500  -31.0410 O.2   273  GLY273     -0.2717
     40  N         19.2170   31.0770  -29.4690 N.am  274  ARG274     -0.1965
     41  CA        20.3760   30.6990  -30.2430 C.3   274  ARG274      0.1729
     42  C         21.3300   29.9830  -29.2990 C.2   274  ARG274      0.2616
     43  O         21.4880   30.4180  -28.1620 O.2   274  ARG274     -0.2715
     44  CB        21.0590   31.9840  -30.7390 C.3   274  ARG274      0.0348
     45  CG        22.0040   31.8160  -31.8790 C.3   274  ARG274      0.0492
     46  CD        21.9830   33.1090  -32.7180 C.3   274  ARG274      0.2205
     47  NE        22.2870   34.3320  -31.9630 N.pl3 274  ARG274     -0.0865
     48  CZ        23.5100   34.6010  -31.5480 C.cat 274  ARG274      0.5346
     49  NH1       23.7760   35.7000  -30.8440 N.pl3 274  ARG274      0.1354
     50  NH2       24.4940   33.7330  -31.8010 N.pl3 274  ARG274      0.1354
     51  N         21.9440   28.8800  -29.7260 N.am  275  VAL275     -0.1977
     52  CA        22.8960   28.1870  -28.8510 C.3   275  VAL275      0.1596
     53  C         24.0390   29.1060  -28.4270 C.2   275  VAL275      0.2287
     54  O         24.5710   29.8830  -29.2480 O.2   275  VAL275     -0.2864
     55  CB        23.4480   26.9110  -29.5160 C.3   275  VAL275      0.0276
     56  CG1       24.4850   26.2450  -28.6220 C.3   275  VAL275      0.0022
     57  CG2       22.3210   25.9240  -29.8280 C.3   275  VAL275      0.0022
     58  N         20.6910   26.3770  -25.8590 N.3   284  PRO284     -0.2116
     59  CA        19.9900   27.5390  -26.4090 C.3   284  PRO284      0.1372
     60  C         19.8010   28.6290  -25.3600 C.2   284  PRO284      0.2244
     61  O         19.4340   28.3040  -24.2270 O.2   284  PRO284     -0.2868
     62  CB        18.6230   26.9840  -26.8150 C.3   284  PRO284      0.0268
     63  CG        18.7660   25.5160  -26.8070 C.3   284  PRO284      0.0207
     64  CD        19.9070   25.1340  -25.9450 C.3   284  PRO284      0.0892
     65  N         17.2650   20.4500  -24.8570 N.3   313  ALA313     -0.1245
     66  CA        17.7700   20.7820  -26.1810 C.3   313  ALA313      0.1562
     67  C         18.0840   19.5230  -26.9720 C.2   313  ALA313      0.2260
     68  O         17.8080   19.4360  -28.1590 O.2   313  ALA313     -0.2867
     69  CB        18.9650   21.7110  -26.0500 C.3   313  ALA313      0.0290
     70  N         14.8240   17.6090  -27.9710 N.3   316  ASN316     -0.1240
     71  CA        14.2580   18.3130  -29.1050 C.3   316  ASN316      0.1653
     72  C         15.0110   17.9560  -30.3920 C.2   316  ASN316      0.2266
     73  O         14.3990   17.6470  -31.4240 O.2   316  ASN316     -0.2867
     74  CB        14.3320   19.8100  -28.8970 C.3   316  ASN316      0.1155
     75  CG        13.7020   20.5460  -30.0300 C.2   316  ASN316      0.2627
     76  OD1       12.5850   20.2600  -30.4130 O.2   316  ASN316     -0.2716
     77  ND2       14.4230   21.5240  -30.5640 N.am  316  ASN316     -0.0877
@<TRIPOS>BOND
     1    46    47    1
     2    46    45    1
     3    47    48    2
     4    35    34    1
     5    30    29    2
     6    34    33    1
     7    45    44    1
     8    50    48    1
     9    48    49    1
    10    73    72    2
    11    39    38    2
    12    44    41    1
    13    29    28    1
    14    77    75   am
    15    33    32    1
    16    76    75    2
    17    72    71    1
    18    41    40    1
    19    41    42    1
    20    75    74    1
    21    31    28    1
    22    31    32    1
    23    28    27    1
    24    38    40   am
    25    38    37    1
    26    57    55    1
    27    51    42   am
    28    51    52    1
    29    55    52    1
    30    55    56    1
    31    36    37    1
    32    42    43    2
    33    22    21    2
    34    54    53    2
    35    11    10   ar
    36    11     9   ar
    37    71    74    1
    38    71    70    1
    39    52    53    1
    40    10     8   ar
    41    27    21   am
    42     9     7   ar
    43    21    20    1
    44    68    67    2
    45    26    24    1
    46    15    14    2
    47     8     6   ar
    48     7     6   ar
    49    67    66    1
    50    20    19    1
    51    20    23    1
    52    62    63    1
    53    62    59    1
    54    63    64    1
    55     6     5    1
    56    14    19   am
    57    14    13    1
    58    24    23    1
    59    24    25    1
    60     1     2    1
    61    59    58    1
    62    59    60    1
    63    66    69    1
    64    66    65    1
    65    13    12    1
    66    13    16    1
    67    64    58    1
    68     2     5    1
    69     2     3    1
    70    60    61    2
    71    12    18    1
    72    16    17    1
    73     3     4    2
    74    18    17    1
