@<TRIPOS>MOLECULE
tmp/4ht3A03.pdb
 106 104 0 0 0
SMALL
GASTEIGER

@<TRIPOS>ATOM
      1  N         46.0020   28.9030  -20.4040 N.3   152  PHE152     -0.1241
      2  CA        45.3330   28.0780  -19.4120 C.3   152  PHE152      0.1605
      3  C         45.7850   28.3640  -18.0240 C.2   152  PHE152      0.2264
      4  O         46.8090   29.0100  -17.7690 O.2   152  PHE152     -0.2867
      5  CB        45.4630   26.6220  -19.7630 C.3   152  PHE152      0.0534
      6  CG        44.7600   26.3340  -21.0330 C.ar  152  PHE152     -0.0203
      7  CD1       43.3500   26.4060  -21.0930 C.ar  152  PHE152     -0.0042
      8  CD2       45.4820   26.0980  -22.2080 C.ar  152  PHE152     -0.0042
      9  CE1       42.6810   26.2090  -22.3040 C.ar  152  PHE152     -0.0003
     10  CE2       44.8170   25.8630  -23.4160 C.ar  152  PHE152     -0.0003
     11  CZ        43.4100   25.9290  -23.4660 C.ar  152  PHE152     -0.0000
     12  N         50.4510   18.7160  -16.3190 N.3   164  ARG164     -0.1245
     13  CA        50.8620   18.1680  -17.6110 C.3   164  ARG164      0.1563
     14  C         50.0170   18.7230  -18.7510 C.2   164  ARG164      0.2260
     15  O         50.5420   19.0550  -19.8190 O.2   164  ARG164     -0.2867
     16  CB        50.8600   16.6470  -17.5880 C.3   164  ARG164      0.0307
     17  CG        52.0830   16.1130  -16.8870 C.3   164  ARG164      0.0489
     18  CD        52.0440   14.5990  -16.8040 C.3   164  ARG164      0.2205
     19  NE        53.0350   14.0740  -15.8650 N.pl3 164  ARG164     -0.0865
     20  CZ        54.2610   13.6830  -16.2070 C.cat 164  ARG164      0.5346
     21  NH1       54.6590   13.7580  -17.4700 N.pl3 164  ARG164      0.1354
     22  NH2       55.0940   13.2240  -15.2870 N.pl3 164  ARG164      0.1354
     23  N         48.1120   21.5620  -18.7640 N.3   166  VAL166     -0.1231
     24  CA        48.3280   22.9950  -18.9450 C.3   166  VAL166      0.1692
     25  C         49.6680   23.2230  -19.6570 C.2   166  VAL166      0.2592
     26  O         49.7640   24.0600  -20.5340 O.2   166  VAL166     -0.2718
     27  CB        48.2300   23.7400  -17.5880 C.3   166  VAL166      0.0266
     28  CG1       48.6900   25.1800  -17.6920 C.3   166  VAL166      0.0020
     29  CG2       46.7930   23.6850  -17.0930 C.3   166  VAL166      0.0020
     30  N         50.6990   22.4800  -19.2470 N.am  167  ALA167     -0.1966
     31  CA        52.0050   22.6060  -19.8770 C.3   167  ALA167      0.1728
     32  C         51.9650   22.2500  -21.3650 C.2   167  ALA167      0.2616
     33  O         52.5890   22.9600  -22.1770 O.2   167  ALA167     -0.2715
     34  CB        53.0430   21.7700  -19.1590 C.3   167  ALA167      0.0334
     35  N         51.2290   21.1990  -21.7260 N.am  168  SER168     -0.1950
     36  CA        51.1660   20.7390  -23.1250 C.3   168  SER168      0.1924
     37  C         50.3110   21.6520  -23.9960 C.2   168  SER168      0.2314
     38  O         50.6580   21.9610  -25.1580 O.2   168  SER168     -0.2863
     39  CB        50.5480   19.3340  -23.1960 C.3   168  SER168      0.2116
     40  OG        50.5010   18.8910  -24.5330 O.3   168  SER168     -0.2180
     41  N         48.9140   24.8860  -23.3630 N.3   170  GLY170     -0.1210
     42  CA        49.0110   26.3400  -23.3770 C.3   170  GLY170      0.1956
     43  C         50.1760   26.8500  -24.1950 C.2   170  GLY170      0.2611
     44  O         51.0840   26.0770  -24.5220 O.2   170  GLY170     -0.2717
     45  N         50.1860   28.1480  -24.4840 N.am  171  ARG171     -0.1979
     46  CA        51.3110   28.7770  -25.1590 C.3   171  ARG171      0.1597
     47  C         51.3860   30.1800  -24.6450 C.2   171  ARG171      0.2287
     48  O         50.4280   30.6630  -24.0490 O.2   171  ARG171     -0.2864
     49  CB        51.1020   28.8310  -26.6860 C.3   171  ARG171      0.0334
     50  CG        50.9900   27.4950  -27.3900 C.3   171  ARG171      0.0492
     51  CD        52.3530   26.8190  -27.4690 C.3   171  ARG171      0.2205
     52  NE        52.3280   25.7880  -28.4920 N.pl3 171  ARG171     -0.0865
     53  CZ        51.6810   24.6480  -28.3510 C.cat 171  ARG171      0.5346
     54  NH1       51.0390   24.3850  -27.2160 N.pl3 171  ARG171      0.1354
     55  NH2       51.6830   23.7820  -29.3420 N.pl3 171  ARG171      0.1354
     56  N         52.1020   32.2200  -22.1960 N.3   173  TYR173     -0.1227
     57  CA        52.4250   32.1540  -20.7770 C.3   173  TYR173      0.1736
     58  C         51.4370   31.2150  -20.1290 C.2   173  TYR173      0.2596
     59  O         50.3560   30.9480  -20.6900 O.2   173  TYR173     -0.2718
     60  CB        52.4310   33.5360  -20.1060 C.3   173  TYR173      0.0548
     61  CG        51.0640   34.1930  -19.9360 C.ar  173  TYR173     -0.0200
     62  CD1       50.4950   34.9850  -20.9370 C.ar  173  TYR173     -0.0009
     63  CD2       50.3350   33.9700  -18.7790 C.ar  173  TYR173     -0.0009
     64  CE1       49.2420   35.5530  -20.7460 C.ar  173  TYR173      0.0417
     65  CE2       49.1000   34.5280  -18.5670 C.ar  173  TYR173      0.0417
     66  CZ        48.5390   35.3070  -19.5500 C.ar  173  TYR173      0.1957
     67  OH        47.2930   35.8370  -19.2940 O.3   173  TYR173     -0.2866
     68  N         51.8100   30.7240  -18.9490 N.am  174  THR174     -0.1953
     69  CA        50.9340   29.8900  -18.1280 C.3   174  THR174      0.1897
     70  C         50.3890   30.7710  -17.0230 C.2   174  THR174      0.2313
     71  O         51.1530   31.4670  -16.3230 O.2   174  THR174     -0.2863
     72  CB        51.7120   28.7190  -17.4900 C.3   174  THR174      0.1794
     73  OG1       52.2980   27.9160  -18.5100 O.3   174  THR174     -0.2208
     74  CG2       50.8070   27.8770  -16.5990 C.3   174  THR174      0.0378
     75  N         57.9840   20.4120  -16.9990 N.3   203  TYR203     -0.1227
     76  CA        57.1510   20.0190  -18.1260 C.3   203  TYR203      0.1736
     77  C         57.2370   20.9560  -19.3340 C.2   203  TYR203      0.2595
     78  O         56.4610   20.8160  -20.2820 O.2   203  TYR203     -0.2718
     79  CB        55.6880   19.7810  -17.6940 C.3   203  TYR203      0.0548
     80  CG        55.5060   18.7370  -16.6040 C.ar  203  TYR203     -0.0200
     81  CD1       56.2950   17.5810  -16.5650 C.ar  203  TYR203     -0.0009
     82  CD2       54.5210   18.8920  -15.6240 C.ar  203  TYR203     -0.0009
     83  CE1       56.1210   16.6220  -15.5780 C.ar  203  TYR203      0.0417
     84  CE2       54.3240   17.9210  -14.6440 C.ar  203  TYR203      0.0417
     85  CZ        55.1380   16.8050  -14.6180 C.ar  203  TYR203      0.1957
     86  OH        54.9870   15.8270  -13.6640 O.3   203  TYR203     -0.2866
     87  N         58.1930   21.8840  -19.3130 N.am  204  HIS204     -0.1961
     88  CA        58.4260   22.8340  -20.4180 C.3   204  HIS204      0.1787
     89  C         57.2130   23.6700  -20.7530 C.2   204  HIS204      0.2620
     90  O         56.9410   23.9760  -21.9220 O.2   204  HIS204     -0.2715
     91  CB        58.9340   22.0980  -21.6630 C.3   204  HIS204      0.0785
     92  CG        60.1940   21.3100  -21.4260 C.ar  204  HIS204      0.0821
     93  ND1       60.2120   19.9680  -21.3950 N.ar  204  HIS204     -0.2267
     94  CD2       61.4990   21.7290  -21.2020 C.ar  204  HIS204      0.1154
     95  CE1       61.4690   19.5420  -21.1720 C.ar  204  HIS204      0.1986
     96  NE2       62.2580   20.6240  -21.0540 N.ar  204  HIS204     -0.2212
     97  N         56.4630   24.0450  -19.7180 N.am  205  ALA205     -0.1963
     98  CA        55.3320   24.9470  -19.8850 C.3   205  ALA205      0.1728
     99  C         55.7880   26.3350  -20.3450 C.2   205  ALA205      0.2616
    100  O         56.9310   26.7730  -20.1000 O.2   205  ALA205     -0.2715
    101  CB        54.5730   25.1020  -18.5770 C.3   205  ALA205      0.0334
    102  N         54.8680   27.0830  -20.9320 N.am  206  ALA206     -0.1977
    103  CA        55.1300   28.4790  -21.1740 C.3   206  ALA206      0.1597
    104  C         55.3990   29.1780  -19.8330 C.2   206  ALA206      0.2287
    105  O         54.8880   28.7430  -18.7780 O.2   206  ALA206     -0.2864
    106  CB        53.9420   29.1020  -21.8850 C.3   206  ALA206      0.0319
@<TRIPOS>BOND
     1    55    53    1
     2    52    53    2
     3    52    51    1
     4    53    54    1
     5    51    50    1
     6    50    49    1
     7    49    46    1
     8    46    47    1
     9    46    45    1
    10    38    37    2
    11    47    48    2
    12    40    39    1
    13    44    43    2
    14    45    43   am
    15    43    42    1
    16    37    36    1
    17    11    10   ar
    18    11     9   ar
    19    10     8   ar
    20    42    41    1
    21    39    36    1
    22    36    35    1
    23     9     7   ar
    24     8     6   ar
    25    56    57    1
    26    33    32    2
    27    90    89    2
    28   106   103    1
    29    35    32   am
    30    91    92    1
    31    91    88    1
    32    92    93   ar
    33    92    94   ar
    34    93    95   ar
    35    32    31    1
    36    94    96   ar
    37   103   102    1
    38   103   104    1
    39    95    96   ar
    40     7     6   ar
    41     6     5    1
    42    62    64   ar
    43    62    61   ar
    44   102    99   am
    45    57    58    1
    46    57    60    1
    47    89    88    1
    48    89    97   am
    49    64    66   ar
    50    59    58    2
    51    26    25    2
    52    88    87    1
    53     1     2    1
    54    99   100    2
    55    99    98    1
    56    78    77    2
    57    58    68   am
    58    60    61    1
    59    61    63   ar
    60    98    97    1
    61    98   101    1
    62    31    30    1
    63    31    34    1
    64   104   105    2
    65    15    14    2
    66     5     2    1
    67    25    30   am
    68    25    24    1
    69    66    67    1
    70    66    65   ar
    71     2     3    1
    72    77    87   am
    73    77    76    1
    74    68    69    1
    75    24    23    1
    76    24    27    1
    77    63    65   ar
    78    14    13    1
    79    73    72    1
    80    69    72    1
    81    69    70    1
    82    76    79    1
    83    76    75    1
    84     3     4    2
    85    79    80    1
    86    28    27    1
    87    13    16    1
    88    13    12    1
    89    27    29    1
    90    16    17    1
    91    72    74    1
    92    21    20    1
    93    70    71    2
    94    17    18    1
    95    18    19    1
    96    80    81   ar
    97    80    82   ar
    98    81    83   ar
    99    20    19    2
   100    20    22    1
   101    82    84   ar
   102    83    85   ar
   103    84    85   ar
   104    85    86    1
