@<TRIPOS>MOLECULE
tmp/4htfB00.pdb
 164 159 0 0 0
SMALL
GASTEIGER

@<TRIPOS>ATOM
      1  N         43.1180   26.4980   10.8010 N.3    25  ARG25      -0.1245
      2  CA        42.6000   27.6650   11.4810 C.3    25  ARG25       0.1563
      3  C         42.7730   28.8860   10.6140 C.2    25  ARG25       0.2260
      4  O         41.8150   29.6230   10.3610 O.2    25  ARG25      -0.2867
      5  CB        43.3070   27.8100   12.8330 C.3    25  ARG25       0.0307
      6  CG        43.0900   29.0960   13.6000 C.3    25  ARG25       0.0489
      7  CD        43.5140   28.8850   15.0630 C.3    25  ARG25       0.2205
      8  NE        43.7940   30.1540   15.6790 N.pl3  25  ARG25      -0.0865
      9  CZ        44.2050   30.3090   16.9320 C.cat  25  ARG25       0.5346
     10  NH1       44.3730   29.2730   17.7520 N.pl3  25  ARG25       0.1354
     11  NH2       44.4740   31.5340   17.3450 N.pl3  25  ARG25       0.1354
     12  N         44.2740   44.7350   16.1720 N.3    48  ASP48      -0.1239
     13  CA        44.3580   43.3090   16.4870 C.3    48  ASP48       0.1674
     14  C         44.6610   43.2760   17.9760 C.2    48  ASP48       0.2266
     15  O         45.8130   43.4330   18.3890 O.2    48  ASP48      -0.2867
     16  CB        45.4380   42.5760   15.6730 C.3    48  ASP48       0.1410
     17  CG        45.3970   41.0530   15.8700 C.2    48  ASP48       0.3668
     18  OD1       44.7250   40.6200   16.8310 O.co2  48  ASP48      -0.2456
     19  OD2       46.0430   40.3000   15.0870 O.co2  48  ASP48      -0.2456
     20  N         45.2140   41.6170   21.4430 N.3    50  GLY50      -0.1210
     21  CA        45.7200   40.3400   21.8910 C.3    50  GLY50       0.1956
     22  C         46.3020   39.6100   20.6800 C.2    50  GLY50       0.2612
     23  O         46.1380   38.4040   20.5250 O.2    50  GLY50      -0.2717
     24  N         47.0150   40.3660   19.8390 N.am   51  GLY51      -0.1942
     25  CA        47.6360   39.8670   18.5980 C.3    51  GLY51       0.2014
     26  C         48.7340   38.8210   18.6780 C.2    51  GLY51       0.2639
     27  O         49.0570   38.1660   17.6610 O.2    51  GLY51      -0.2714
     28  N         49.3130   38.6480   19.8660 N.am   52  GLY52      -0.1939
     29  CA        50.3680   37.6550   20.0700 C.3    52  GLY52       0.2014
     30  C         51.5970   37.9380   19.2210 C.2    52  GLY52       0.2638
     31  O         51.9950   39.0780   19.1080 O.2    52  GLY52      -0.2714
     32  N         52.1400   36.8870   18.6100 N.am   53  GLU53      -0.1977
     33  CA        53.3350   36.9940   17.7550 C.3    53  GLU53       0.1602
     34  C         53.0180   37.6880   16.4320 C.2    53  GLU53       0.2287
     35  O         53.8820   37.7920   15.5690 O.2    53  GLU53      -0.2864
     36  CB        53.9030   35.6070   17.4610 C.3    53  GLU53       0.0415
     37  CG        54.3680   34.8380   18.6830 C.3    53  GLU53       0.1163
     38  CD        54.8090   33.4280   18.3430 C.2    53  GLU53       0.3649
     39  OE1       54.6840   33.0240   17.1600 O.co2  53  GLU53      -0.2457
     40  OE2       55.2800   32.7260   19.2620 O.co2  53  GLU53      -0.2457
     41  N         51.0740   36.8050   13.6140 N.3    55  GLN55      -0.1231
     42  CA        50.8550   36.1270   12.3280 C.3    55  GLN55       0.1698
     43  C         49.6880   36.7480   11.5060 C.2    55  GLN55       0.2592
     44  O         49.8650   37.1320   10.3430 O.2    55  GLN55      -0.2718
     45  CB        50.6040   34.6220   12.5150 C.3    55  GLN55       0.0381
     46  CG        50.2330   33.9160   11.2060 C.3    55  GLN55       0.0905
     47  CD        49.8070   32.4490   11.3100 C.2    55  GLN55       0.2608
     48  OE1       49.3710   31.9590   12.3640 O.2    55  GLN55      -0.2717
     49  NE2       49.8730   31.7540   10.1770 N.am   55  GLN55      -0.0878
     50  N         48.5070   36.8690   12.1080 N.am   56  THR56      -0.1953
     51  CA        47.3130   37.4160   11.4080 C.3    56  THR56       0.1897
     52  C         47.4340   38.8920   11.1270 C.2    56  THR56       0.2313
     53  O         47.0670   39.3930   10.0490 O.2    56  THR56      -0.2863
     54  CB        46.0260   37.0930   12.2200 C.3    56  THR56       0.1794
     55  OG1       45.9350   35.6790   12.3790 O.3    56  THR56      -0.2208
     56  CG2       44.7530   37.6040   11.5360 C.3    56  THR56       0.0378
     57  N         48.2130   44.8780   19.8040 N.3    69  CYS69      -0.1221
     58  CA        48.2280   45.1390   21.2220 C.3    69  CYS69       0.1808
     59  C         48.3300   43.7810   21.9040 C.2    69  CYS69       0.2601
     60  O         47.8060   42.7920   21.4060 O.2    69  CYS69      -0.2717
     61  CB        46.9590   45.9260   21.5600 C.3    69  CYS69       0.0970
     62  SG        46.0080   45.3440   22.9820 S.3    69  CYS69      -0.0800
     63  N         49.0850   43.7110   22.9810 N.am   70  ASP70      -0.1959
     64  CA        49.2100   42.4750   23.7070 C.3    70  ASP70       0.1840
     65  C         49.7660   42.7580   25.0980 C.2    70  ASP70       0.2622
     66  O         50.4860   43.7210   25.3100 O.2    70  ASP70      -0.2715
     67  CB        50.0690   41.4560   22.9360 C.3    70  ASP70       0.1450
     68  CG        49.9220   40.0350   23.4710 C.2    70  ASP70       0.3671
     69  OD1       49.3310   39.1820   22.7400 O.co2  70  ASP70      -0.2456
     70  OD2       50.3410   39.7720   24.6240 O.co2  70  ASP70      -0.2456
     71  N         49.3280   41.9460   26.0540 N.am   71  LEU71      -0.1963
     72  CA        49.7960   42.0740   27.4290 C.3    71  LEU71       0.1728
     73  C         51.2320   41.6130   27.6360 C.2    71  LEU71       0.2616
     74  O         51.8560   41.9880   28.6180 O.2    71  LEU71      -0.2715
     75  CB        48.9360   41.2330   28.3770 C.3    71  LEU71       0.0311
     76  CG        47.7100   41.8270   29.0650 C.3    71  LEU71       0.0022
     77  CD1       47.0970   40.7540   29.9340 C.3    71  LEU71       0.0001
     78  CD2       48.1240   43.0200   29.9080 C.3    71  LEU71       0.0001
     79  N         51.7160   40.7550   26.7490 N.am   72  SER72      -0.1950
     80  CA        53.0250   40.1680   26.8870 C.3    72  SER72       0.1924
     81  C         54.0180   40.9680   26.1170 C.2    72  SER72       0.2314
     82  O         53.8270   41.2170   24.9240 O.2    72  SER72      -0.2863
     83  CB        53.0190   38.7130   26.3890 C.3    72  SER72       0.2116
     84  OG        54.3230   38.1500   26.4130 O.3    72  SER72      -0.2180
     85  N         50.0440   46.6160   26.1990 N.3    95  CYS95      -0.1221
     86  CA        48.9710   46.8830   27.1760 C.3    95  CYS95       0.1808
     87  C         47.8490   45.8440   27.0700 C.2    95  CYS95       0.2601
     88  O         47.8090   45.0180   26.1390 O.2    95  CYS95      -0.2717
     89  CB        48.3130   48.2470   26.9310 C.3    95  CYS95       0.0970
     90  SG        47.3570   48.3600   25.4000 S.3    95  CYS95      -0.0800
     91  N         46.9250   45.9430   28.0180 N.am   96  ALA96      -0.1965
     92  CA        45.7670   45.0790   28.0510 C.3    96  ALA96       0.1728
     93  C         44.7330   45.6480   27.0820 C.2    96  ALA96       0.2616
     94  O         44.5900   46.8590   26.9400 O.2    96  ALA96      -0.2715
     95  CB        45.2010   45.0090   29.4510 C.3    96  ALA96       0.0334
     96  N         43.9820   44.7580   26.4430 N.am   97  ALA97      -0.1963
     97  CA        42.9380   45.1800   25.5260 C.3    97  ALA97       0.1728
     98  C         41.9520   46.0960   26.2530 C.2    97  ALA97       0.2616
     99  O         41.3430   46.9870   25.6470 O.2    97  ALA97      -0.2715
    100  CB        42.2330   43.9550   24.9730 C.3    97  ALA97       0.0334
    101  N         41.7670   45.8480   27.5520 N.am   98  GLN98      -0.1977
    102  CA        40.8300   46.6360   28.3610 C.3    98  GLN98       0.1601
    103  C         41.2410   48.0870   28.4690 C.2    98  GLN98       0.2287
    104  O         40.4000   48.9310   28.7530 O.2    98  GLN98      -0.2864
    105  CB        40.6880   46.1050   29.8040 C.3    98  GLN98       0.0394
    106  CG        40.0560   44.7280   30.0060 C.3    98  GLN98       0.0908
    107  CD        40.9810   43.5610   29.6870 C.2    98  GLN98       0.2608
    108  OE1       41.9050   43.6960   28.9070 O.2    98  GLN98      -0.2717
    109  NE2       40.7420   42.4090   30.3200 N.am   98  GLN98      -0.0878
    110  N         41.0080   37.5690   18.4150 N.3   114  HIS114     -0.1226
    111  CA        41.1140   36.1490   18.1580 C.3   114  HIS114      0.1752
    112  C         41.8210   35.3640   19.2360 C.2   114  HIS114      0.2596
    113  O         42.9930   35.5950   19.5620 O.2   114  HIS114     -0.2718
    114  CB        41.8330   35.9040   16.8100 C.3   114  HIS114      0.0759
    115  CG        41.1820   36.5690   15.6370 C.ar  114  HIS114      0.0818
    116  ND1       41.8170   36.7230   14.4320 N.ar  114  HIS114     -0.2268
    117  CD2       39.9720   37.1350   15.4930 C.ar  114  HIS114      0.1154
    118  CE1       40.9980   37.3140   13.5800 C.ar  114  HIS114      0.1986
    119  NE2       39.8630   37.5610   14.2060 N.ar  114  HIS114     -0.2212
    120  N         41.0690   34.4420   19.8310 N.am  115  ALA115     -0.1966
    121  CA        41.5680   33.5630   20.8430 C.3   115  ALA115      0.1728
    122  C         42.0350   34.2960   22.0940 C.2   115  ALA115      0.2616
    123  O         43.0160   33.8970   22.7380 O.2   115  ALA115     -0.2715
    124  CB        42.6160   32.6080   20.2870 C.3   115  ALA115      0.0334
    125  N         41.2670   35.3110   22.4570 N.am  116  VAL116     -0.1977
    126  CA        41.5350   36.1000   23.6360 C.3   116  VAL116      0.1596
    127  C         40.3080   36.0960   24.5770 C.2   116  VAL116      0.2287
    128  O         40.4850   36.1810   25.7900 O.2   116  VAL116     -0.2864
    129  CB        41.9700   37.5390   23.3130 C.3   116  VAL116      0.0276
    130  CG1       42.4230   38.2700   24.5740 C.3   116  VAL116      0.0022
    131  CG2       43.1130   37.5170   22.3010 C.3   116  VAL116      0.0022
    132  N         40.4220   34.0860   27.6910 N.3   119  TRP119     -0.1227
    133  CA        41.5190   34.4180   28.6280 C.3   119  TRP119      0.1737
    134  C         41.2240   35.6110   29.5010 C.2   119  TRP119      0.2595
    135  O         42.1070   36.0660   30.2190 O.2   119  TRP119     -0.2718
    136  CB        42.7890   34.6960   27.8560 C.3   119  TRP119      0.0564
    137  CG        43.4030   33.4440   27.2300 C.ar  119  TRP119      0.0003
    138  CD1       43.4330   33.1200   25.9000 C.ar  119  TRP119      0.0946
    139  CD2       44.0360   32.3570   27.9170 C.ar  119  TRP119      0.0152
    140  NE1       44.0810   31.9250   25.7200 N.ar  119  TRP119     -0.2442
    141  CE2       44.4710   31.4390   26.9410 C.ar  119  TRP119      0.0810
    142  CE3       44.3340   32.1000   29.2610 C.ar  119  TRP119      0.0012
    143  CZ2       45.1540   30.2540   27.2760 C.ar  119  TRP119      0.0191
    144  CZ3       45.0150   30.9220   29.5870 C.ar  119  TRP119      0.0001
    145  CH2       45.4320   30.0380   28.6080 C.ar  119  TRP119      0.0015
    146  N         40.0420   36.1780   29.3850 N.am  120  VAL120     -0.1980
    147  CA        39.6890   37.3530   30.1740 C.3   120  VAL120      0.1595
    148  C         38.5520   37.0470   31.1130 C.2   120  VAL120      0.2287
    149  O         37.5840   36.3280   30.7750 O.2   120  VAL120     -0.2864
    150  CB        39.3160   38.5920   29.3330 C.3   120  VAL120      0.0276
    151  CG1       40.4690   38.9260   28.4050 C.3   120  VAL120      0.0022
    152  CG2       38.0350   38.4410   28.5270 C.3   120  VAL120      0.0022
    153  N         37.2370   26.3580   17.8170 N.3   229  TYR229     -0.1241
    154  CA        36.9620   27.7730   17.9290 C.3   229  TYR229      0.1605
    155  C         35.7390   28.0930   17.0950 C.2   229  TYR229      0.2264
    156  O         35.3450   27.3390   16.1850 O.2   229  TYR229     -0.2867
    157  CB        38.1100   28.6350   17.4190 C.3   229  TYR229      0.0534
    158  CG        39.3680   28.5470   18.2370 C.ar  229  TYR229     -0.0201
    159  CD1       39.6110   29.4380   19.2760 C.ar  229  TYR229     -0.0009
    160  CD2       40.2490   27.5050   18.0430 C.ar  229  TYR229     -0.0009
    161  CE1       40.7390   29.3500   20.0220 C.ar  229  TYR229      0.0417
    162  CE2       41.3940   27.3830   18.8140 C.ar  229  TYR229      0.0417
    163  CZ        41.6060   28.2880   19.8460 C.ar  229  TYR229      0.1957
    164  OH        42.7340   28.2370   20.5950 O.3   229  TYR229     -0.2866
@<TRIPOS>BOND
     1    53    52    2
     2    49    47   am
     3    44    43    2
     4     4     3    2
     5     3     2    1
     6     1     2    1
     7    52    51    1
     8    46    47    1
     9    46    45    1
    10    47    48    2
    11    51    50    1
    12    51    54    1
    13     2     5    1
    14    43    50   am
    15    43    42    1
    16    56    54    1
    17    54    55    1
    18    42    45    1
    19    42    41    1
    20     5     6    1
    21   118   119   ar
    22   118   116   ar
    23     6     7    1
    24   119   117   ar
    25   116   115   ar
    26     7     8    1
    27    19    17   ar
    28   117   115   ar
    29    35    34    2
    30   115   114    1
    31    16    17    1
    32    16    13    1
    33     8     9    2
    34    17    18   ar
    35    12    13    1
    36   156   155    2
    37    34    33    1
    38    13    14    1
    39   114   111    1
    40     9    11    1
    41     9    10    1
    42   155   154    1
    43    39    38   ar
    44   157   154    1
    45   157   158    1
    46    36    33    1
    47    36    37    1
    48    27    26    2
    49    33    32    1
    50   153   154    1
    51    14    15    2
    52   160   158   ar
    53   160   162   ar
    54   111   110    1
    55   111   112    1
    56   158   159   ar
    57    38    37    1
    58    38    40   ar
    59    25    26    1
    60    25    24    1
    61    32    30   am
    62    26    28   am
    63   162   163   ar
    64    31    30    2
    65    30    29    1
    66   112   113    2
    67   112   120   am
    68   159   161   ar
    69    57    58    1
    70   120   121    1
    71    24    22   am
    72   163   161   ar
    73   163   164    1
    74    28    29    1
    75   124   121    1
    76    23    22    2
    77    22    21    1
    78   121   122    1
    79    58    61    1
    80    58    59    1
    81    60    59    2
    82    20    21    1
    83    61    62    1
    84    59    63   am
    85   122   125   am
    86   122   123    2
    87   131   129    1
    88   125   126    1
    89    69    68   ar
    90    67    68    1
    91    67    64    1
    92    63    64    1
    93   129   126    1
    94   129   130    1
    95    68    70   ar
    96   126   127    1
    97    64    65    1
    98   127   128    2
    99    82    81    2
   100   100    97    1
   101    65    66    2
   102    65    71   am
   103    90    89    1
   104    97    98    1
   105    97    96    1
   106    99    98    2
   107   140   138   ar
   108   140   141   ar
   109   138   137   ar
   110    71    72    1
   111    81    80    1
   112    88    87    2
   113    85    86    1
   114    98   101   am
   115    83    84    1
   116    83    80    1
   117    96    93   am
   118    79    80    1
   119    79    73   am
   120    89    86    1
   121    94    93    2
   122   141   143   ar
   123   141   139   ar
   124    87    86    1
   125    87    91   am
   126    93    92    1
   127   137   136    1
   128   137   139   ar
   129   143   145   ar
   130    72    73    1
   131    72    75    1
   132   101   102    1
   133    73    74    2
   134   132   133    1
   135   136   133    1
   136   139   142   ar
   137    91    92    1
   138    92    95    1
   139   102   103    1
   140   102   105    1
   141    75    76    1
   142   151   150    1
   143   103   104    2
   144   152   150    1
   145   145   144   ar
   146   133   134    1
   147   108   107    2
   148    76    78    1
   149    76    77    1
   150   142   144   ar
   151   150   147    1
   152   146   134   am
   153   146   147    1
   154   134   135    2
   155   107   106    1
   156   107   109   am
   157   105   106    1
   158   147   148    1
   159   149   148    2
