@<TRIPOS>MOLECULE
tmp/4htgA00.pdb
 182 170 0 0 0
SMALL
GASTEIGER

@<TRIPOS>ATOM
      1  N        -40.9300   -5.2340   20.1510 N.3     9  ARG9       -0.1245
      2  CA       -41.1710   -5.0490   21.5640 C.3     9  ARG9        0.1563
      3  C        -41.6520   -3.6020   21.8840 C.2     9  ARG9        0.2260
      4  O        -41.4650   -2.7060   21.1140 O.2     9  ARG9       -0.2867
      5  CB       -39.9260   -5.3830   22.3630 C.3     9  ARG9        0.0307
      6  CG       -39.6770   -6.9030   22.3920 C.3     9  ARG9        0.0489
      7  CD       -38.4160   -7.1950   23.1720 C.3     9  ARG9        0.2205
      8  NE       -38.4380   -6.5540   24.4960 N.pl3   9  ARG9       -0.0865
      9  CZ       -37.7360   -5.4960   24.9190 C.cat   9  ARG9        0.5346
     10  NH1      -36.9360   -4.8630   24.1200 N.pl3   9  ARG9        0.1354
     11  NH2      -37.9130   -5.0730   26.1980 N.pl3   9  ARG9        0.1354
     12  N        -40.6630   -1.5090   24.4790 N.3    11  SER11      -0.1203
     13  CA       -39.8470   -0.5820   25.2710 C.3    11  SER11       0.2005
     14  C        -39.4830    0.6720   24.4890 C.2    11  SER11       0.2461
     15  O        -39.4950    0.6620   23.2520 O.2    11  SER11      -0.2732
     16  CB       -38.5360   -1.2600   25.7040 C.3    11  SER11       0.2103
     17  OG       -37.6930   -1.4730   24.5620 O.3    11  SER11      -0.2182
     18  N        -39.0840    1.7260   25.1510 N.am   12  PRO12      -0.2717
     19  CA       -38.5910    2.9070   24.3850 C.3    12  PRO12       0.1535
     20  C        -37.4670    2.5560   23.3900 C.2    12  PRO12       0.2598
     21  O        -37.5040    3.0910   22.2770 O.2    12  PRO12      -0.2715
     22  CB       -38.0740    3.8410   25.5350 C.3    12  PRO12       0.0310
     23  CG       -38.9870    3.5050   26.6870 C.3    12  PRO12       0.0237
     24  CD       -39.1520    2.0000   26.6090 C.3    12  PRO12       0.0939
     25  N        -36.5150    1.7040   23.7640 N.am   13  LEU13      -0.1978
     26  CA       -35.4640    1.3860   22.8160 C.3    13  LEU13       0.1596
     27  C        -35.9720    0.5700   21.6260 C.2    13  LEU13       0.2287
     28  O        -35.6150    0.8630   20.4970 O.2    13  LEU13      -0.2864
     29  CB       -34.3480    0.5490   23.5420 C.3    13  LEU13       0.0297
     30  CG       -33.1400    0.2060   22.6560 C.3    13  LEU13       0.0022
     31  CD1      -32.5010    1.4120   21.9950 C.3    13  LEU13       0.0001
     32  CD2      -32.1150   -0.5550   23.4760 C.3    13  LEU13       0.0001
     33  N        -38.3730  -10.6820   34.9290 N.3    51  LEU51      -0.1245
     34  CA       -37.4230   -9.5810   35.1810 C.3    51  LEU51       0.1561
     35  C        -36.8780   -9.6060   36.5960 C.2    51  LEU51       0.2260
     36  O        -36.1990   -8.6780   36.9740 O.2    51  LEU51      -0.2867
     37  CB       -38.0940   -8.2120   34.9730 C.3    51  LEU51       0.0270
     38  CG       -38.4650   -7.9900   33.5120 C.3    51  LEU51       0.0019
     39  CD1      -39.4600   -6.8380   33.4840 C.3    51  LEU51       0.0001
     40  CD2      -37.2090   -7.6630   32.7070 C.3    51  LEU51       0.0001
     41  N        -30.5050  -13.0300   34.0140 N.3    55  LEU55      -0.1245
     42  CA       -30.7190  -13.5810   32.7050 C.3    55  LEU55       0.1561
     43  C        -30.0550  -14.9740   32.5670 C.2    55  LEU55       0.2260
     44  O        -30.6190  -15.9030   31.9200 O.2    55  LEU55      -0.2867
     45  CB       -30.1740  -12.5780   31.6810 C.3    55  LEU55       0.0270
     46  CG       -30.4970  -12.7430   30.2510 C.3    55  LEU55       0.0019
     47  CD1      -31.9930  -12.6130   30.0860 C.3    55  LEU55       0.0001
     48  CD2      -29.7950  -11.5110   29.7070 C.3    55  LEU55       0.0001
     49  N        -36.6620  -12.8260   23.9970 N.3    64  PHE64      -0.1241
     50  CA       -37.0800  -11.4920   23.5060 C.3    64  PHE64       0.1605
     51  C        -37.6580  -11.4880   22.1030 C.2    64  PHE64       0.2264
     52  O        -38.0300  -10.4080   21.5760 O.2    64  PHE64      -0.2867
     53  CB       -35.9150  -10.5210   23.6230 C.3    64  PHE64       0.0534
     54  CG       -35.6040  -10.1800   25.0440 C.ar   64  PHE64      -0.0203
     55  CD1      -36.3710   -9.2460   25.7770 C.ar   64  PHE64      -0.0042
     56  CD2      -34.5630  -10.8090   25.6400 C.ar   64  PHE64      -0.0042
     57  CE1      -36.0490   -8.9600   27.0750 C.ar   64  PHE64      -0.0003
     58  CE2      -34.2120  -10.5130   26.9470 C.ar   64  PHE64      -0.0003
     59  CZ       -34.9550   -9.5940   27.6720 C.ar   64  PHE64      -0.0000
     60  N        -33.3210   -6.2090   18.1460 N.3    83  SER83      -0.1217
     61  CA       -31.9480   -6.0030   18.4390 C.3    83  SER83       0.1889
     62  C        -31.2270   -7.3100   18.0710 C.2    83  SER83       0.2288
     63  O        -31.5590   -8.3880   18.5790 O.2    83  SER83      -0.2866
     64  CB       -31.7780   -5.6110   19.9340 C.3    83  SER83       0.2089
     65  OG       -30.4120   -5.4990   20.1900 O.3    83  SER83      -0.2183
     66  N        -28.4720   -8.7180   18.8110 N.3    85  LYS85      -0.1231
     67  CA       -27.8260   -9.4990   19.8740 C.3    85  LYS85       0.1696
     68  C        -28.8000  -10.4110   20.6480 C.2    85  LYS85       0.2592
     69  O        -28.3610  -11.3620   21.2650 O.2    85  LYS85      -0.2718
     70  CB       -27.0130   -8.6290   20.8530 C.3    85  LYS85       0.0331
     71  CG       -27.8200   -7.7750   21.8060 C.3    85  LYS85       0.0295
     72  CD       -26.8130   -7.0480   22.7340 C.2    85  LYS85      -0.0067
     73  CE       -27.2810   -6.6090   24.1110 C.2    85  LYS85       0.1012
     74  NZ       -26.2090   -6.0450   25.0330 N.pl3  85  LYS85      -0.1270
     75  N        -30.1090  -10.1210   20.5540 N.am   86  ASP86      -0.1974
     76  CA       -31.1220  -10.8990   21.2070 C.3    86  ASP86       0.1709
     77  C        -31.7640  -11.9330   20.2770 C.2    86  ASP86       0.2293
     78  O        -32.6450  -12.7350   20.7230 O.2    86  ASP86      -0.2864
     79  CB       -32.2050   -9.9120   21.6610 C.3    86  ASP86       0.1436
     80  CG       -31.7400   -8.9800   22.7400 C.2    86  ASP86       0.3671
     81  OD1      -31.2600   -9.4410   23.7550 O.co2  86  ASP86      -0.2456
     82  OD2      -31.8640   -7.7460   22.5300 O.co2  86  ASP86      -0.2456
     83  N        -24.9400   -5.8020   36.4240 N.3   129  THR129     -0.1203
     84  CA       -25.0950   -6.3040   35.0310 C.3   129  THR129      0.1994
     85  C        -25.5410   -7.7390   35.1170 C.2   129  THR129      0.2618
     86  O        -24.9800   -8.5460   35.8900 O.2   129  THR129     -0.2717
     87  CB       -23.8270   -6.2010   34.1720 C.3   129  THR129      0.1784
     88  OG1      -24.0290   -6.9600   32.9510 O.3   129  THR129     -0.2211
     89  CG2      -22.6390   -6.8070   34.8130 C.3   129  THR129      0.0376
     90  N        -26.5180   -8.0770   34.2790 N.am  130  ALA130     -0.1965
     91  CA       -26.9690   -9.4810   34.1930 C.3   130  ALA130      0.1728
     92  C        -26.2410  -10.2270   33.0550 C.2   130  ALA130      0.2616
     93  O        -26.6240  -11.3330   32.7200 O.2   130  ALA130     -0.2715
     94  CB       -28.4770   -9.5700   33.9130 C.3   130  ALA130      0.0334
     95  N        -25.2330   -9.6010   32.4440 N.am  131  SER131     -0.1950
     96  CA       -24.4940  -10.2470   31.3760 C.3   131  SER131      0.1924
     97  C        -23.2600  -10.9870   31.9370 C.2   131  SER131      0.2314
     98  O        -22.4080  -10.3370   32.5520 O.2   131  SER131     -0.2863
     99  CB       -23.9470   -9.1500   30.4090 C.3   131  SER131      0.2116
    100  OG       -23.0070   -9.6850   29.5390 O.3   131  SER131     -0.2180
    101  N        -20.9850  -12.1180   30.0040 N.3   133  ARG133     -0.1231
    102  CA       -19.9210  -11.5470   29.1990 C.3   133  ARG133      0.1694
    103  C        -19.2900  -10.3180   29.8790 C.2   133  ARG133      0.2591
    104  O        -18.0920  -10.1600   29.9210 O.2   133  ARG133     -0.2718
    105  CB       -20.4740  -11.2420   27.8030 C.3   133  ARG133      0.0321
    106  CG       -19.5100  -10.2980   27.0980 C.3   133  ARG133      0.0489
    107  CD       -19.9850   -9.5430   25.9620 C.3   133  ARG133      0.2205
    108  NE       -21.1690   -8.7310   26.2120 N.pl3 133  ARG133     -0.0865
    109  CZ       -21.2180   -7.3910   26.2610 C.cat 133  ARG133      0.5346
    110  NH1      -20.0950   -6.6270   26.1750 N.pl3 133  ARG133      0.1354
    111  NH2      -22.4080   -6.8100   26.3380 N.pl3 133  ARG133      0.1354
    112  N        -20.1360   -9.4470   30.4030 N.am  134  ARG134     -0.1980
    113  CA       -19.6670   -8.2180   31.0220 C.3   134  ARG134      0.1597
    114  C        -19.1250   -8.5260   32.3790 C.2   134  ARG134      0.2287
    115  O        -18.0220   -8.0360   32.7270 O.2   134  ARG134     -0.2864
    116  CB       -20.7670   -7.1870   31.1340 C.3   134  ARG134      0.0334
    117  CG       -21.1860   -6.5690   29.8270 C.3   134  ARG134      0.0492
    118  CD       -22.3760   -5.6300   30.0560 C.3   134  ARG134      0.2205
    119  NE       -22.5760   -4.8700   28.8370 N.pl3 134  ARG134     -0.0865
    120  CZ       -23.7420   -4.4850   28.3260 C.cat 134  ARG134      0.5346
    121  NH1      -24.9070   -4.8250   28.8670 N.pl3 134  ARG134      0.1354
    122  NH2      -23.7470   -3.8450   27.1460 N.pl3 134  ARG134      0.1354
    123  N        -31.8160   -6.0160   36.1760 N.3   152  ARG152     -0.1231
    124  CA       -32.6240   -6.2810   34.9770 C.3   152  ARG152      0.1694
    125  C        -33.5020   -5.1280   34.6470 C.2   152  ARG152      0.2593
    126  O        -33.7980   -4.2770   35.4870 O.2   152  ARG152     -0.2718
    127  CB       -33.5570   -7.4470   35.2460 C.3   152  ARG152      0.0321
    128  CG       -32.8860   -8.7670   35.4820 C.3   152  ARG152      0.0489
    129  CD       -32.0940   -9.3030   34.2870 C.3   152  ARG152      0.2205
    130  NE       -32.8350   -9.2030   33.0260 N.pl3 152  ARG152     -0.0865
    131  CZ       -33.8320  -10.0010   32.7450 C.cat 152  ARG152      0.5346
    132  NH1      -34.1520  -10.9640   33.6300 N.pl3 152  ARG152      0.1354
    133  NH2      -34.5170   -9.8700   31.5980 N.pl3 152  ARG152      0.1354
    134  N        -33.9660   -5.1240   33.4020 N.am  153  GLY153     -0.1942
    135  CA       -34.9790   -4.1500   32.9830 C.3   153  GLY153      0.2014
    136  C        -34.5850   -3.4000   31.7270 C.2   153  GLY153      0.2639
    137  O        -33.4880   -3.5580   31.1980 O.2   153  GLY153     -0.2714
    138  N        -35.5100   -2.6210   31.2250 N.am  154  ASN154     -0.1958
    139  CA       -35.2230   -1.7750   30.0770 C.3   154  ASN154      0.1819
    140  C        -34.1790   -0.7550   30.3920 C.2   154  ASN154      0.2621
    141  O        -33.8910   -0.5400   31.5760 O.2   154  ASN154     -0.2715
    142  CB       -36.4680   -1.0560   29.5870 C.3   154  ASN154      0.1195
    143  CG       -37.5230   -2.0020   29.0780 C.2   154  ASN154      0.2630
    144  OD1      -37.2650   -3.1580   28.6940 O.2   154  ASN154     -0.2716
    145  ND2      -38.7680   -1.4870   29.0480 N.am  154  ASN154     -0.0877
    146  N        -33.5950   -0.1550   29.3720 N.am  155  VAL155     -0.1977
    147  CA       -32.5630    0.8540   29.6040 C.3   155  VAL155      0.1596
    148  C        -32.9200    1.8700   30.6880 C.2   155  VAL155      0.2287
    149  O        -32.1180    2.0730   31.6190 O.2   155  VAL155     -0.2864
    150  CB       -32.2020    1.6000   28.2860 C.3   155  VAL155      0.0276
    151  CG1      -31.2140    2.7580   28.5560 C.3   155  VAL155      0.0022
    152  CG2      -31.5820    0.6380   27.2650 C.3   155  VAL155      0.0022
    153  N        -32.8460    0.3770   34.2120 N.3   158  ARG158     -0.1245
    154  CA       -31.4740    0.2010   34.7170 C.3   158  ARG158      0.1563
    155  C        -30.8690    1.5610   35.1370 C.2   158  ARG158      0.2260
    156  O        -30.2670    1.6400   36.2220 O.2   158  ARG158     -0.2867
    157  CB       -30.5870   -0.4790   33.6640 C.3   158  ARG158      0.0307
    158  CG       -30.9780   -1.9210   33.4370 C.3   158  ARG158      0.0489
    159  CD       -30.5020   -2.3820   32.1050 C.3   158  ARG158      0.2205
    160  NE       -30.7420   -3.8300   31.9710 N.pl3 158  ARG158     -0.0865
    161  CZ       -29.7890   -4.7420   32.1540 C.cat 158  ARG158      0.5346
    162  NH1      -28.5490   -4.3520   32.4650 N.pl3 158  ARG158      0.1354
    163  NH2      -30.0750   -6.0340   31.9730 N.pl3 158  ARG158      0.1354
    164  N        -23.2300   -0.9560   33.2920 N.3   171  LEU171     -0.1245
    165  CA       -22.6900   -0.8580   31.9220 C.3   171  LEU171      0.1561
    166  C        -23.7900   -1.1120   30.9600 C.2   171  LEU171      0.2260
    167  O        -24.4990   -2.1140   31.1300 O.2   171  LEU171     -0.2867
    168  CB       -21.6200   -1.9100   31.6520 C.3   171  LEU171      0.0270
    169  CG       -20.1890   -1.6490   32.0840 C.3   171  LEU171      0.0019
    170  CD1      -20.0890   -1.5000   33.5770 C.3   171  LEU171      0.0001
    171  CD2      -19.2930   -2.7930   31.6550 C.3   171  LEU171      0.0001
    172  N        -20.8550   -7.8560   23.0550 N.3   198  ALA198     -0.1245
    173  CA       -21.6690   -9.0430   22.7760 C.3   198  ALA198      0.1562
    174  C        -21.6990   -9.2270   21.2480 C.2   198  ALA198      0.2260
    175  O        -21.6760   -8.2310   20.4680 O.2   198  ALA198     -0.2867
    176  CB       -23.1060   -8.7900   23.2340 C.3   198  ALA198      0.0290
    177  N        -27.3270  -15.1120   25.2010 N.3   245  CYS245     -0.1235
    178  CA       -27.1630  -13.9280   26.0820 C.3   245  CYS245      0.1677
    179  C        -26.7090  -14.3670   27.5070 C.2   245  CYS245      0.2270
    180  O        -26.3470  -13.5370   28.3090 O.2   245  CYS245     -0.2867
    181  CB       -28.4850  -13.0920   26.1750 C.3   245  CYS245      0.0956
    182  SG       -28.8310  -12.3190   24.5690 S.3   245  CYS245     -0.0801
@<TRIPOS>BOND
     1    62    61    1
     2    62    63    2
     3    60    61    1
     4    61    64    1
     5    66    67    1
     6    67    68    1
     7    67    70    1
     8    64    65    1
     9     1     2    1
    10    77    78    2
    11    77    76    1
    12   175   174    2
    13    28    27    2
    14    75    68   am
    15    75    76    1
    16    68    69    2
    17    70    71    1
    18     4     3    2
    19    76    79    1
    20   174   173    1
    21     2     3    1
    22     2     5    1
    23    52    51    2
    24    27    26    1
    25    79    80    1
    26    71    72    1
    27    31    30    1
    28    51    50    1
    29    21    20    2
    30     5     6    1
    31     6     7    1
    32    82    80   ar
    33    30    32    1
    34    30    29    1
    35    72    73    2
    36    80    81   ar
    37   173   172    1
    38   173   176    1
    39    26    29    1
    40    26    25    1
    41     7     8    1
    42    15    14    2
    43    20    25   am
    44    20    19    1
    45    50    53    1
    46    50    49    1
    47    53    54    1
    48    73    74    1
    49    10     9    1
    50    19    18    1
    51    19    22    1
    52    12    13    1
    53    14    18   am
    54    14    13    1
    55     8     9    2
    56    17    16    1
    57   182   181    1
    58     9    11    1
    59    54    56   ar
    60    54    55   ar
    61    18    24    1
    62   177   178    1
    63    13    16    1
    64    22    23    1
    65    56    58   ar
    66    55    57   ar
    67   107   108    1
    68   107   106    1
    69   178   181    1
    70   178   179    1
    71   110   109    1
    72   108   109    2
    73   109   111    1
    74    24    23    1
    75    58    59   ar
    76    57    59   ar
    77   106   105    1
    78   122   120    1
    79   152   150    1
    80   179   180    2
    81   105   102    1
    82   150   151    1
    83   150   147    1
    84   120   119    2
    85   120   121    1
    86   144   143    2
    87   119   118    1
    88   145   143   am
    89   143   142    1
    90   102   103    1
    91   102   101    1
    92   146   147    1
    93   146   140   am
    94   100    99    1
    95   142   139    1
    96   147   148    1
    97    48    46    1
    98   117   118    1
    99   117   116    1
   100   103   104    2
   101   103   112   am
   102   139   140    1
   103   139   138    1
   104    47    46    1
   105    46    45    1
   106   140   141    2
   107   112   113    1
   108    99    96    1
   109   148   149    2
   110   166   167    2
   111   166   165    1
   112   113   116    1
   113   113   114    1
   114   137   136    2
   115   138   136   am
   116    96    97    1
   117    96    95    1
   118   133   131    1
   119   168   165    1
   120   168   169    1
   121   171   169    1
   122    45    42    1
   123   136   135    1
   124    44    43    2
   125   165   164    1
   126    97    98    2
   127   160   159    1
   128   160   161    2
   129   163   161    1
   130   169   170    1
   131   159   158    1
   132   161   162    1
   133   114   115    2
   134    95    92   am
   135    43    42    1
   136    42    41    1
   137    40    38    1
   138    93    92    2
   139   131   130    2
   140   131   132    1
   141    88    87    1
   142   135   134    1
   143   130   129    1
   144    92    91    1
   145   134   125   am
   146   158   157    1
   147    39    38    1
   148    38    37    1
   149   157   154    1
   150    94    91    1
   151    87    89    1
   152    87    84    1
   153    91    90    1
   154   153   154    1
   155    90    85   am
   156   129   128    1
   157   125   124    1
   158   125   126    2
   159   154   155    1
   160    33    34    1
   161    37    34    1
   162   124   127    1
   163   124   123    1
   164    84    85    1
   165    84    83    1
   166    85    86    2
   167   155   156    2
   168    34    35    1
   169   127   128    1
   170    35    36    2
