@<TRIPOS>MOLECULE
tmp/4htpA00.pdb
 164 159 0 0 0
SMALL
GASTEIGER

@<TRIPOS>ATOM
      1  N         -1.2050    4.3450    0.6400 N.3     2  GLN2       -0.1245
      2  CA        -0.5930    3.0150    0.7390 C.3     2  GLN2        0.1566
      3  C          0.0900    2.5550   -0.5510 C.2     2  GLN2        0.2260
      4  O         -0.2910    2.9570   -1.6590 O.2     2  GLN2       -0.2867
      5  CB        -1.6110    1.9720    1.1980 C.3     2  GLN2        0.0367
      6  CG        -2.9540    2.1070    0.5180 C.3     2  GLN2        0.0905
      7  CD        -3.9700    1.1010    1.0180 C.2     2  GLN2        0.2608
      8  OE1       -5.0300    0.9290    0.4120 O.2     2  GLN2       -0.2717
      9  NE2       -3.6520    0.4270    2.1240 N.am    2  GLN2       -0.0878
     10  N          2.2110   -0.8120   -2.6120 N.3     4  VAL4       -0.1245
     11  CA         2.5370   -2.2250   -2.7640 C.3     4  VAL4        0.1561
     12  C          3.8910   -2.5240   -2.1210 C.2     4  VAL4        0.2260
     13  O          4.0420   -3.5310   -1.4310 O.2     4  VAL4       -0.2867
     14  CB         2.5490   -2.6470   -4.2570 C.3     4  VAL4        0.0252
     15  CG1        2.8870   -4.1150   -4.3970 C.3     4  VAL4        0.0019
     16  CG2        1.1920   -2.3630   -4.9130 C.3     4  VAL4        0.0019
     17  N          4.3430   -3.7910    1.4030 N.3     7  HIS7       -0.1226
     18  CA         3.8120   -5.1240    1.7030 C.3     7  HIS7        0.1752
     19  C          4.7000   -6.2500    1.2050 C.2     7  HIS7        0.2596
     20  O          4.4570   -7.4110    1.5270 O.2     7  HIS7       -0.2718
     21  CB         2.4490   -5.3080    1.0580 C.3     7  HIS7        0.0759
     22  CG         1.3630   -4.5420    1.7300 C.ar    7  HIS7        0.0818
     23  ND1        1.1230   -3.2100    1.4690 N.ar    7  HIS7       -0.2268
     24  CD2        0.4590   -4.9150    2.6660 C.ar    7  HIS7        0.1154
     25  CE1        0.1150   -2.7950    2.2160 C.ar    7  HIS7        0.1986
     26  NE2       -0.3060   -3.8110    2.9490 N.ar    7  HIS7       -0.2212
     27  N          5.7040   -5.9160    0.3960 N.am    8  VAL8       -0.1966
     28  CA         6.5270   -6.9370   -0.2370 C.3     8  VAL8        0.1712
     29  C          7.9010   -7.0440    0.4300 C.2     8  VAL8        0.2458
     30  O          8.6680   -6.0830    0.4410 O.2     8  VAL8       -0.2730
     31  CB         6.7270   -6.6560   -1.7510 C.3     8  VAL8        0.0289
     32  CG1        7.4770   -7.8030   -2.4030 C.3     8  VAL8        0.0023
     33  CG2        5.3910   -6.4150   -2.4620 C.3     8  VAL8        0.0023
     34  N          8.2230   -8.2240    0.9810 N.am    9  PRO9       -0.2727
     35  CA         9.5700   -8.4020    1.5310 C.3     9  PRO9        0.1402
     36  C         10.6340   -8.1650    0.4730 C.2     9  PRO9        0.2269
     37  O         10.5150   -8.6790   -0.6390 O.2     9  PRO9       -0.2865
     38  CB         9.5960   -9.8830    1.9430 C.3     9  PRO9        0.0296
     39  CG         8.1530  -10.2880    2.0490 C.3     9  PRO9        0.0237
     40  CD         7.4260   -9.4590    1.0330 C.3     9  PRO9        0.0939
     41  N         11.8540  -11.2410   -1.2710 N.3    12  ASP12      -0.1239
     42  CA        11.1730  -11.8200   -2.4300 C.3    12  ASP12       0.1674
     43  C         11.6750  -11.1880   -3.7310 C.2    12  ASP12       0.2266
     44  O         11.6510  -11.8100   -4.7960 O.2    12  ASP12      -0.2867
     45  CB         9.6540  -11.6170   -2.3480 C.3    12  ASP12       0.1410
     46  CG         8.9770  -12.5430   -1.3490 C.2    12  ASP12       0.3668
     47  OD1        9.6370  -13.4450   -0.7790 O.co2  12  ASP12      -0.2456
     48  OD2        7.7520  -12.3700   -1.1630 O.co2  12  ASP12      -0.2456
     49  N         15.2160  -12.9420   -3.9790 N.3    15  SER15      -0.1202
     50  CA        15.1480  -14.3410   -4.3950 C.3    15  SER15       0.2020
     51  C         14.7720  -14.4380   -5.8910 C.2    15  SER15       0.2619
     52  O         15.1320  -15.3900   -6.5810 O.2    15  SER15      -0.2717
     53  CB        14.1760  -15.1350   -3.5040 C.3    15  SER15       0.2103
     54  OG        12.8060  -14.9730   -3.8940 O.3    15  SER15      -0.2182
     55  N         14.0570  -13.4380   -6.3890 N.am   16  THR16      -0.1952
     56  CA        13.7210  -13.3810   -7.8050 C.3    16  THR16       0.1897
     57  C         14.9710  -13.0610   -8.6330 C.2    16  THR16       0.2313
     58  O         15.2610  -13.7180   -9.6390 O.2    16  THR16      -0.2863
     59  CB        12.6340  -12.3180   -8.0700 C.3    16  THR16       0.1794
     60  OG1       11.3910  -12.7810   -7.5410 O.3    16  THR16      -0.2208
     61  CG2       12.4600  -12.0930   -9.5450 C.3    16  THR16       0.0378
     62  N         17.3330  -16.0800   -8.7770 N.3    19  ARG19      -0.1245
     63  CA        16.9120  -17.0790   -9.7590 C.3    19  ARG19       0.1563
     64  C         17.1300  -16.5820  -11.1850 C.2    19  ARG19       0.2260
     65  O         17.3390  -17.3800  -12.0810 O.2    19  ARG19      -0.2867
     66  CB        15.4390  -17.4790   -9.5590 C.3    19  ARG19       0.0307
     67  CG        15.1810  -18.3120   -8.3080 C.3    19  ARG19       0.0489
     68  CD        13.7400  -18.8130   -8.2090 C.3    19  ARG19       0.2205
     69  NE        12.7560  -17.7330   -8.2220 N.pl3  19  ARG19      -0.0865
     70  CZ        12.2810  -17.1240   -7.1360 C.cat  19  ARG19       0.5346
     71  NH1       12.6900  -17.4900   -5.9290 N.pl3  19  ARG19       0.1354
     72  NH2       11.3880  -16.1490   -7.2610 N.pl3  19  ARG19       0.1354
     73  N         11.0980  -15.8320  -14.5460 N.3    32  HIS32      -0.1241
     74  CA        11.2270  -15.4700  -13.1440 C.3    32  HIS32       0.1621
     75  C         10.8250  -14.0180  -12.8990 C.2    32  HIS32       0.2264
     76  O         10.1550  -13.6990  -11.9080 O.2    32  HIS32      -0.2867
     77  CB        12.6590  -15.6870  -12.6770 C.3    32  HIS32       0.0745
     78  CG        13.0740  -17.1240  -12.6540 C.ar   32  HIS32       0.0817
     79  ND1       12.5000  -18.0500  -11.8120 N.ar   32  HIS32      -0.2268
     80  CD2       14.0150  -17.7910  -13.3600 C.ar   32  HIS32       0.1154
     81  CE1       13.0650  -19.2280  -12.0030 C.ar   32  HIS32       0.1986
     82  NE2       13.9870  -19.0960  -12.9390 N.ar   32  HIS32      -0.2212
     83  N          6.8760  -13.4660  -13.4320 N.3    35  GLU35      -0.1231
     84  CA         6.1470  -13.9660  -12.2690 C.3    35  GLU35       0.1699
     85  C          6.0490  -12.9200  -11.1450 C.2    35  GLU35       0.2592
     86  O          4.9690  -12.6840  -10.6050 O.2    35  GLU35      -0.2718
     87  CB         6.8420  -15.2190  -11.7660 C.3    35  GLU35       0.0402
     88  CG         6.0140  -16.0890  -10.8750 C.3    35  GLU35       0.1161
     89  CD         6.7240  -17.3860  -10.5350 C.2    35  GLU35       0.3649
     90  OE1        7.9730  -17.3550  -10.4380 O.co2  35  GLU35      -0.2457
     91  OE2        6.0370  -18.4310  -10.3820 O.co2  35  GLU35      -0.2457
     92  N          7.1670  -12.2700  -10.8250 N.am   36  PHE36      -0.1976
     93  CA         7.2000  -11.2540   -9.7760 C.3    36  PHE36       0.1639
     94  C          6.4230  -10.0100  -10.2200 C.2    36  PHE36       0.2290
     95  O          5.6020   -9.4760   -9.4700 O.2    36  PHE36      -0.2864
     96  CB         8.6500  -10.9120   -9.4030 C.3    36  PHE36       0.0560
     97  CG         8.7810   -9.8510   -8.3430 C.ar   36  PHE36      -0.0200
     98  CD1        8.7640  -10.1890   -7.0010 C.ar   36  PHE36      -0.0042
     99  CD2        8.9360   -8.5100   -8.6890 C.ar   36  PHE36      -0.0042
    100  CE1        8.8820   -9.1990   -6.0140 C.ar   36  PHE36      -0.0003
    101  CE2        9.0750   -7.5210   -7.7150 C.ar   36  PHE36      -0.0003
    102  CZ         9.0440   -7.8640   -6.3760 C.ar   36  PHE36      -0.0000
    103  N          2.5960  -10.8290  -10.1680 N.3    39  SER39      -0.1202
    104  CA         2.0610  -10.8440   -8.8030 C.3    39  SER39       0.2020
    105  C          1.9210   -9.4220   -8.2800 C.2    39  SER39       0.2618
    106  O          0.9060   -9.0730   -7.6740 O.2    39  SER39      -0.2717
    107  CB         2.9520  -11.6430   -7.8510 C.3    39  SER39       0.2103
    108  OG         2.9630  -13.0180   -8.1770 O.3    39  SER39      -0.2182
    109  N          2.9500   -8.6130   -8.5200 N.am   40  TRP40      -0.1975
    110  CA         2.9330   -7.2150   -8.1250 C.3    40  TRP40       0.1640
    111  C          1.7030   -6.4990   -8.6970 C.2    40  TRP40       0.2290
    112  O          1.0760   -5.7190   -8.0010 O.2    40  TRP40      -0.2864
    113  CB         4.2360   -6.5110   -8.5370 C.3    40  TRP40       0.0576
    114  CG         4.3930   -5.1250   -7.9770 C.ar   40  TRP40       0.0006
    115  CD1        3.6400   -4.0290   -8.2730 C.ar   40  TRP40       0.0946
    116  CD2        5.3960   -4.6830   -7.0520 C.ar   40  TRP40       0.0152
    117  NE1        4.0980   -2.9370   -7.5750 N.ar   40  TRP40      -0.2442
    118  CE2        5.1780   -3.3150   -6.8210 C.ar   40  TRP40       0.0810
    119  CE3        6.4510   -5.3190   -6.3870 C.ar   40  TRP40       0.0012
    120  CZ2        5.9740   -2.5660   -5.9490 C.ar   40  TRP40       0.0191
    121  CZ3        7.2460   -4.5710   -5.5250 C.ar   40  TRP40       0.0001
    122  CH2        7.0000   -3.2150   -5.3100 C.ar   40  TRP40       0.0015
    123  N         -1.2420   -7.9610   -9.7700 N.3    42  LYS42      -0.1231
    124  CA        -2.4430   -8.5220   -9.1530 C.3    42  LYS42       0.1693
    125  C         -2.6620   -7.9030   -7.7750 C.2    42  LYS42       0.2592
    126  O         -3.7720   -7.5120   -7.4400 O.2    42  LYS42      -0.2718
    127  CB        -2.3320  -10.0420   -9.0050 C.3    42  LYS42       0.0285
    128  CG        -2.3630  -10.8370  -10.3120 C.3    42  LYS42       0.0035
    129  CD        -3.7720  -10.9920  -10.8750 C.3    42  LYS42       0.0206
    130  CE        -3.7270  -11.5340  -12.3100 C.3    42  LYS42       0.1093
    131  NZ        -2.6300  -12.5520  -12.4760 N.3    42  LYS42      -0.1314
    132  N         -1.5970   -7.8280   -6.9800 N.am   43  PHE43      -0.1976
    133  CA        -1.6680   -7.2830   -5.6230 C.3    43  PHE43       0.1639
    134  C         -2.0160   -5.8010   -5.6420 C.2    43  PHE43       0.2290
    135  O         -2.7740   -5.3260   -4.7960 O.2    43  PHE43      -0.2864
    136  CB        -0.3480   -7.5170   -4.8780 C.3    43  PHE43       0.0560
    137  CG        -0.4100   -7.2280   -3.3960 C.ar   43  PHE43      -0.0200
    138  CD1        0.0630   -6.0310   -2.8870 C.ar   43  PHE43      -0.0042
    139  CD2       -0.9220   -8.1610   -2.5130 C.ar   43  PHE43      -0.0042
    140  CE1        0.0230   -5.7660   -1.5230 C.ar   43  PHE43      -0.0003
    141  CE2       -0.9650   -7.9050   -1.1460 C.ar   43  PHE43      -0.0003
    142  CZ        -0.4880   -6.7090   -0.6510 C.ar   43  PHE43      -0.0000
    143  N         -5.7240   -5.5330   -5.9630 N.3    46  ALA46      -0.1231
    144  CA        -6.4190   -5.9000   -4.7290 C.3    46  ALA46       0.1694
    145  C         -6.2460   -4.8290   -3.6790 C.2    46  ALA46       0.2591
    146  O         -7.1870   -4.5040   -2.9690 O.2    46  ALA46      -0.2718
    147  CB        -5.9390   -7.2600   -4.1810 C.3    46  ALA46       0.0304
    148  N         -5.0400   -4.2810   -3.5850 N.am   47  LEU47      -0.1980
    149  CA        -4.7360   -3.2610   -2.5870 C.3    47  LEU47       0.1596
    150  C         -5.4560   -1.9430   -2.8570 C.2    47  LEU47       0.2287
    151  O         -6.0440   -1.3520   -1.9570 O.2    47  LEU47      -0.2864
    152  CB        -3.2270   -3.0240   -2.5160 C.3    47  LEU47       0.0297
    153  CG        -2.6540   -2.1720   -1.3790 C.3    47  LEU47       0.0022
    154  CD1       -2.6700   -2.9270   -0.0530 C.3    47  LEU47       0.0001
    155  CD2       -1.2370   -1.7090   -1.7210 C.3    47  LEU47       0.0001
    156  N         -8.0400   -1.4020   -4.6820 N.3    49  LYS49      -0.1197
    157  CA        -9.3110   -1.7970   -5.3000 C.3    49  LYS49       0.1778
    158  C        -10.2360   -0.6210   -5.6340 C.2    49  LYS49       0.2305
    159  O        -10.4030   -0.2600   -6.8050 O.2    49  LYS49      -0.2863
    160  CB       -10.0290   -2.8640   -4.4490 C.2    49  LYS49      -0.0042
    161  CG       -11.4170   -3.3540   -4.8080 C.2    49  LYS49      -0.0273
    162  CD       -12.2180   -4.1380   -3.7700 C.3    49  LYS49       0.0462
    163  CE       -13.7100   -4.3640   -3.9420 C.3    49  LYS49       0.1140
    164  NZ       -14.3850   -3.0950   -4.2320 N.3    49  LYS49      -0.1310
@<TRIPOS>BOND
     1    73    74    1
     2    83    84    1
     3    80    82   ar
     4    80    78   ar
     5    74    75    1
     6    74    77    1
     7    82    81   ar
     8    75    76    2
     9    77    78    1
    10    78    79   ar
    11   131   130    1
    12   130   129    1
    13    84    87    1
    14    84    85    1
    15    65    64    2
    16    81    79   ar
    17    87    88    1
    18    64    63    1
    19    85    92   am
    20    85    86    2
    21    88    89    1
    22   129   128    1
    23    92    93    1
    24    89    90   ar
    25    89    91   ar
    26   128   127    1
    27    94    93    1
    28    94    95    2
    29   103   104    1
    30    93    96    1
    31   123   124    1
    32    63    66    1
    33    63    62    1
    34    58    57    2
    35    66    67    1
    36    61    59    1
    37    96    97    1
    38   124   127    1
    39   124   125    1
    40   104   105    1
    41   104   107    1
    42   111   110    1
    43   111   112    2
    44    99    97   ar
    45    99   101   ar
    46    57    56    1
    47   113   110    1
    48   113   114    1
    49   109   105   am
    50   109   110    1
    51    97    98   ar
    52    67    68    1
    53   105   106    2
    54   115   114   ar
    55   115   117   ar
    56    69    68    1
    57    69    70    2
    58   108   107    1
    59    59    56    1
    60    59    60    1
    61   114   116   ar
    62    56    55    1
    63   125   126    2
    64   125   132   am
    65   101   102   ar
    66   117   118   ar
    67    72    70    1
    68    70    71    1
    69   116   118   ar
    70   116   119   ar
    71    98   100   ar
    72   132   133    1
    73   118   120   ar
    74   159   158    2
    75    52    51    2
    76    55    51   am
    77   119   121   ar
    78   102   100   ar
    79   143   144    1
    80   120   122   ar
    81    51    50    1
    82   134   133    1
    83   134   135    2
    84   158   157    1
    85   133   136    1
    86   121   122   ar
    87   157   156    1
    88   157   160    1
    89    16    14    1
    90   136   137    1
    91   161   160    2
    92   161   162    1
    93    44    43    2
    94   144   147    1
    95   144   145    1
    96    15    14    1
    97    50    49    1
    98    50    53    1
    99    14    11    1
   100   164   163    1
   101   163   162    1
   102    54    53    1
   103    43    42    1
   104   145   148   am
   105   145   146    2
   106   148   149    1
   107   137   138   ar
   108   137   139   ar
   109   138   140   ar
   110   150   149    1
   111   150   151    2
   112    11    10    1
   113    11    12    1
   114   149   152    1
   115   152   153    1
   116   139   141   ar
   117    33    31    1
   118    42    45    1
   119    42    41    1
   120    32    31    1
   121    45    46    1
   122    12    13    2
   123    31    28    1
   124   155   153    1
   125     4     3    2
   126   140   142   ar
   127   153   154    1
   128    46    48   ar
   129    46    47   ar
   130   141   142   ar
   131    37    36    2
   132     3     2    1
   133    28    27    1
   134    28    29    1
   135    27    19   am
   136     8     7    2
   137    29    30    2
   138    29    34   am
   139    36    35    1
   140     6     7    1
   141     6     5    1
   142     1     2    1
   143     2     5    1
   144    34    40    1
   145    34    35    1
   146     7     9   am
   147    40    39    1
   148    21    18    1
   149    21    22    1
   150    19    20    2
   151    19    18    1
   152    17    18    1
   153    23    22   ar
   154    23    25   ar
   155    35    38    1
   156    22    24   ar
   157    38    39    1
   158    25    26   ar
   159    24    26   ar
