@<TRIPOS>MOLECULE
tmp/4hu0A00.pdb
 235 235 0 0 0
SMALL
GASTEIGER

@<TRIPOS>ATOM
      1  N        -47.6510  -51.2310  -26.2980 N.3    78  HIS78      -0.1241
      2  CA       -48.1970  -50.0580  -26.9990 C.3    78  HIS78       0.1621
      3  C        -47.1600  -49.5300  -27.9900 C.2    78  HIS78       0.2264
      4  O        -46.0060  -49.3280  -27.5950 O.2    78  HIS78      -0.2867
      5  CB       -48.5750  -48.9540  -26.0040 C.3    78  HIS78       0.0745
      6  CG       -49.8020  -49.2640  -25.2180 C.ar   78  HIS78       0.0817
      7  ND1      -49.9190  -50.3840  -24.4100 N.ar   78  HIS78      -0.2268
      8  CD2      -51.0010  -48.6290  -25.1590 C.ar   78  HIS78       0.1154
      9  CE1      -51.1260  -50.3840  -23.8560 C.ar   78  HIS78       0.1986
     10  NE2      -51.8030  -49.3540  -24.3290 N.ar   78  HIS78      -0.2212
     11  N        -50.3700  -53.7800  -29.1300 N.3   113  HIS113     -0.1241
     12  CA       -51.5830  -53.1900  -28.5750 C.3   113  HIS113      0.1621
     13  C        -51.9580  -51.8710  -29.2470 C.2   113  HIS113      0.2264
     14  O        -51.7310  -50.7810  -28.7080 O.2   113  HIS113     -0.2867
     15  CB       -51.4490  -53.0080  -27.0700 C.3   113  HIS113      0.0745
     16  CG       -52.7690  -52.8040  -26.3730 C.ar  113  HIS113      0.0817
     17  ND1      -53.5920  -53.8660  -26.0320 N.ar  113  HIS113     -0.2268
     18  CD2      -53.4130  -51.6720  -25.9470 C.ar  113  HIS113      0.1154
     19  CE1      -54.6970  -53.4030  -25.4440 C.ar  113  HIS113      0.1986
     20  NE2      -54.6110  -52.0830  -25.3770 N.ar  113  HIS113     -0.2212
     21  N        -55.1620  -49.8630  -31.7990 N.3   115  ILE115     -0.1245
     22  CA       -56.6320  -49.8430  -31.9880 C.3   115  ILE115      0.1561
     23  C        -56.9420  -49.0150  -33.2480 C.2   115  ILE115      0.2260
     24  O        -56.5450  -47.8290  -33.3260 O.2   115  ILE115     -0.2867
     25  CB       -57.3730  -49.1060  -30.7950 C.3   115  ILE115      0.0252
     26  CG1      -56.9970  -49.7400  -29.4750 C.3   115  ILE115      0.0019
     27  CG2      -58.8900  -49.1990  -31.0270 C.3   115  ILE115      0.0019
     28  CD1      -57.8400  -49.3060  -28.1550 C.3   115  ILE115      0.0001
     29  N        -57.2100  -45.0140  -33.1390 N.3   123  GLN123     -0.1245
     30  CA       -58.0950  -44.3630  -32.2120 C.3   123  GLN123      0.1566
     31  C        -57.4270  -43.1520  -31.5880 C.2   123  GLN123      0.2260
     32  O        -58.1020  -42.1940  -31.3980 O.2   123  GLN123     -0.2867
     33  CB       -58.6220  -45.2750  -31.1110 C.3   123  GLN123      0.0367
     34  CG       -59.6120  -44.6110  -30.1780 C.3   123  GLN123      0.0905
     35  CD       -60.3170  -45.6730  -29.3080 C.2   123  GLN123      0.2608
     36  OE1      -61.1210  -46.4340  -29.8040 O.2   123  GLN123     -0.2717
     37  NE2      -59.9170  -45.7960  -28.0540 N.am  123  GLN123     -0.0878
     38  N        -51.3550  -42.5460  -29.1400 N.3   126  SER126     -0.1202
     39  CA       -50.8130  -43.5930  -28.3560 C.3   126  SER126      0.2020
     40  C        -50.7360  -44.9880  -29.1210 C.2   126  SER126      0.2618
     41  O        -49.8290  -45.9390  -28.8180 O.2   126  SER126     -0.2717
     42  CB       -51.7320  -43.6150  -27.1050 C.3   126  SER126      0.2103
     43  OG       -51.8950  -44.9060  -26.6230 O.3   126  SER126     -0.2182
     44  N        -51.6530  -45.1360  -30.0890 N.am  127  TYR127     -0.1975
     45  CA       -51.7220  -46.4130  -30.8040 C.3   127  TYR127      0.1639
     46  C        -51.0950  -46.3640  -32.2270 C.2   127  TYR127      0.2290
     47  O        -51.0910  -47.3940  -32.9360 O.2   127  TYR127     -0.2864
     48  CB       -53.1260  -46.8530  -30.9370 C.3   127  TYR127      0.0560
     49  CG       -53.8160  -46.9210  -29.6310 C.ar  127  TYR127     -0.0198
     50  CD1      -54.9130  -46.1010  -29.3610 C.ar  127  TYR127     -0.0009
     51  CD2      -53.3840  -47.8560  -28.6260 C.ar  127  TYR127     -0.0009
     52  CE1      -55.5580  -46.1360  -28.0530 C.ar  127  TYR127      0.0417
     53  CE2      -53.9980  -47.9630  -27.3850 C.ar  127  TYR127      0.0417
     54  CZ       -55.0850  -47.1070  -27.1000 C.ar  127  TYR127      0.1957
     55  OH       -55.6700  -47.2390  -25.9010 O.3   127  TYR127     -0.2866
     56  N        -54.2700  -55.7560  -31.4860 N.3   158  ASN158     -0.1225
     57  CA       -55.2420  -55.7420  -30.4090 C.3   158  ASN158      0.1785
     58  C        -56.7120  -55.5440  -30.8470 C.2   158  ASN158      0.2597
     59  O        -57.5010  -56.4470  -30.7260 O.2   158  ASN158     -0.2718
     60  CB       -54.8120  -54.6890  -29.4140 C.3   158  ASN158      0.1169
     61  CG       -55.9280  -54.3590  -28.3850 C.2   158  ASN158      0.2627
     62  OD1      -56.4860  -55.2770  -27.7810 O.2   158  ASN158     -0.2716
     63  ND2      -56.2310  -53.0480  -28.1730 N.am  158  ASN158     -0.0877
     64  N        -57.0850  -54.3790  -31.3530 N.am  159  GLU159     -0.1979
     65  CA       -58.4970  -54.1380  -31.7120 C.3   159  GLU159      0.1602
     66  C        -58.6850  -53.4830  -33.1090 C.2   159  GLU159      0.2287
     67  O        -58.6120  -52.2580  -33.2670 O.2   159  GLU159     -0.2864
     68  CB       -59.2060  -53.2490  -30.6400 C.3   159  GLU159      0.0415
     69  CG       -59.4390  -54.0020  -29.4020 C.3   159  GLU159      0.1163
     70  CD       -60.1010  -53.1600  -28.2930 C.2   159  GLU159      0.3649
     71  OE1      -60.1950  -51.8920  -28.3550 O.co2 159  GLU159     -0.2457
     72  OE2      -60.5320  -53.7790  -27.3040 O.co2 159  GLU159     -0.2457
     73  N        -64.4070  -47.7270  -36.8100 N.3   163  PHE163     -0.1241
     74  CA       -65.2460  -46.7770  -36.1190 C.3   163  PHE163      0.1605
     75  C        -66.2580  -46.1080  -37.0920 C.2   163  PHE163      0.2264
     76  O        -66.2850  -44.8600  -37.2190 O.2   163  PHE163     -0.2867
     77  CB       -64.2770  -45.7260  -35.5700 C.3   163  PHE163      0.0534
     78  CG       -64.7900  -44.9170  -34.4030 C.ar  163  PHE163     -0.0203
     79  CD1      -63.8760  -44.2910  -33.5700 C.ar  163  PHE163     -0.0042
     80  CD2      -66.2040  -44.8040  -34.1010 C.ar  163  PHE163     -0.0042
     81  CE1      -64.3300  -43.5760  -32.4590 C.ar  163  PHE163     -0.0003
     82  CE2      -66.6790  -44.0060  -33.0390 C.ar  163  PHE163     -0.0003
     83  CZ       -65.7380  -43.4120  -32.2070 C.ar  163  PHE163     -0.0000
     84  N        -65.2540  -54.1310  -35.0720 N.3   201  ASN201     -0.1225
     85  CA       -65.9920  -53.6210  -33.9110 C.3   201  ASN201      0.1785
     86  C        -65.1090  -53.8210  -32.6720 C.2   201  ASN201      0.2597
     87  O        -65.5330  -54.2930  -31.6260 O.2   201  ASN201     -0.2718
     88  CB       -67.3360  -54.3030  -33.8260 C.3   201  ASN201      0.1169
     89  CG       -68.2820  -53.6750  -32.7740 C.2   201  ASN201      0.2627
     90  OD1      -67.9950  -52.6190  -32.1020 O.2   201  ASN201     -0.2716
     91  ND2      -69.4210  -54.3600  -32.5900 N.am  201  ASN201     -0.0877
     92  N        -63.8550  -53.4130  -32.8180 N.am  202  TRP202     -0.1976
     93  CA       -62.8710  -53.4540  -31.7270 C.3   202  TRP202      0.1640
     94  C        -62.6720  -54.9080  -31.2880 C.2   202  TRP202      0.2290
     95  O        -62.9030  -55.2380  -30.1240 O.2   202  TRP202     -0.2864
     96  CB       -63.2990  -52.5560  -30.5380 C.3   202  TRP202      0.0576
     97  CG       -63.1930  -51.0530  -30.7880 C.ar  202  TRP202      0.0006
     98  CD1      -62.1610  -50.2530  -30.4090 C.ar  202  TRP202      0.0946
     99  CD2      -64.1950  -50.1700  -31.3190 C.ar  202  TRP202      0.0152
    100  NE1      -62.4040  -48.9620  -30.7410 N.ar  202  TRP202     -0.2442
    101  CE2      -63.6540  -48.8590  -31.2780 C.ar  202  TRP202      0.0810
    102  CE3      -65.4730  -50.3570  -31.8590 C.ar  202  TRP202      0.0012
    103  CZ2      -64.3360  -47.7030  -31.8120 C.ar  202  TRP202      0.0191
    104  CZ3      -66.1830  -49.2130  -32.3410 C.ar  202  TRP202      0.0001
    105  CH2      -65.5980  -47.8900  -32.2900 C.ar  202  TRP202      0.0015
    106  N        -63.5150  -59.4070  -27.7960 N.3   224  HIS224     -0.1241
    107  CA       -63.4150  -58.5360  -26.5990 C.3   224  HIS224      0.1621
    108  C        -64.8630  -58.2010  -26.2060 C.2   224  HIS224      0.2264
    109  O        -65.3070  -57.0730  -26.4770 O.2   224  HIS224     -0.2867
    110  CB       -62.5800  -57.2530  -26.8410 C.3   224  HIS224      0.0745
    111  CG       -61.1110  -57.4790  -26.8910 C.ar  224  HIS224      0.0817
    112  ND1      -60.2070  -56.4400  -26.9580 N.ar  224  HIS224     -0.2268
    113  CD2      -60.3680  -58.6290  -26.8610 C.ar  224  HIS224      0.1154
    114  CE1      -58.9860  -56.9240  -27.0430 C.ar  224  HIS224      0.1986
    115  NE2      -59.0540  -58.2530  -26.9480 N.ar  224  HIS224     -0.2212
    116  N        -66.8660  -56.9770  -23.9580 N.3   226  TYR226     -0.1241
    117  CA       -67.1990  -56.1180  -22.8200 C.3   226  TYR226      0.1605
    118  C        -68.6970  -55.9710  -22.5110 C.2   226  TYR226      0.2264
    119  O        -69.5670  -56.1510  -23.3980 O.2   226  TYR226     -0.2867
    120  CB       -66.6320  -54.7130  -23.1150 C.3   226  TYR226      0.0534
    121  CG       -65.1660  -54.6370  -22.7920 C.ar  226  TYR226     -0.0201
    122  CD1      -64.1850  -54.5430  -23.8220 C.ar  226  TYR226     -0.0009
    123  CD2      -64.7310  -54.7480  -21.4700 C.ar  226  TYR226     -0.0009
    124  CE1      -62.8030  -54.4850  -23.5000 C.ar  226  TYR226      0.0417
    125  CE2      -63.3780  -54.7180  -21.1580 C.ar  226  TYR226      0.0417
    126  CZ       -62.4090  -54.5570  -22.1600 C.ar  226  TYR226      0.1957
    127  OH       -61.0450  -54.4690  -21.7930 O.3   226  TYR226     -0.2866
    128  N        -71.0390  -53.6910  -22.3760 N.3   228  GLN228     -0.1231
    129  CA       -71.9900  -52.9320  -23.2400 C.3   228  GLN228      0.1698
    130  C        -71.8210  -53.1790  -24.7420 C.2   228  GLN228      0.2592
    131  O        -72.4570  -52.4830  -25.5540 O.2   228  GLN228     -0.2718
    132  CB       -71.8920  -51.4410  -22.9640 C.3   228  GLN228      0.0381
    133  CG       -72.1110  -51.1560  -21.5140 C.3   228  GLN228      0.0905
    134  CD       -71.7020  -49.7500  -21.0100 C.2   228  GLN228      0.2608
    135  OE1      -70.5150  -49.4080  -20.8820 O.2   228  GLN228     -0.2717
    136  NE2      -72.7230  -48.9520  -20.6330 N.am  228  GLN228     -0.0878
    137  N        -71.0380  -54.1620  -25.1690 N.am  229  LYS229     -0.1980
    138  CA       -71.0120  -54.4360  -26.6150 C.3   229  LYS229      0.1596
    139  C        -72.4300  -54.7320  -27.1330 C.2   229  LYS229      0.2287
    140  O        -72.7860  -54.3760  -28.2580 O.2   229  LYS229     -0.2864
    141  CB       -70.0200  -55.6000  -26.9330 C.3   229  LYS229      0.0298
    142  CG       -68.5480  -55.2840  -26.5190 C.3   229  LYS229      0.0038
    143  CD       -68.0450  -53.9510  -27.3100 C.3   229  LYS229      0.0206
    144  CE       -68.1210  -54.0890  -28.8350 C.3   229  LYS229      0.1093
    145  NZ       -67.1010  -53.2440  -29.4550 N.3   229  LYS229     -0.1314
    146  N        -59.7420  -59.6690  -23.7420 N.3   254  GLU254     -0.1245
    147  CA       -60.1250  -58.6870  -22.7460 C.3   254  GLU254      0.1567
    148  C        -61.5660  -58.9210  -22.3700 C.2   254  GLU254      0.2260
    149  O        -62.4250  -59.0260  -23.2830 O.2   254  GLU254     -0.2867
    150  CB       -60.0370  -57.2360  -23.2280 C.3   254  GLU254      0.0388
    151  CG       -58.6470  -56.8530  -23.5660 C.3   254  GLU254      0.1160
    152  CD       -58.5290  -55.3890  -23.9310 C.2   254  GLU254      0.3649
    153  OE1      -59.4570  -54.5960  -23.5990 O.co2 254  GLU254     -0.2457
    154  OE2      -57.4770  -55.0590  -24.4990 O.co2 254  GLU254     -0.2457
    155  N        -66.1430  -45.9960  -18.2710 N.3   266  HIS266     -0.1226
    156  CA       -66.4050  -45.4550  -19.6200 C.3   266  HIS266      0.1752
    157  C        -67.1120  -46.5710  -20.3780 C.2   266  HIS266      0.2596
    158  O        -66.9390  -47.7460  -20.0420 O.2   266  HIS266     -0.2718
    159  CB       -65.0470  -45.0910  -20.3240 C.3   266  HIS266      0.0759
    160  CG       -64.0640  -46.2390  -20.3750 C.ar  266  HIS266      0.0818
    161  ND1      -63.3350  -46.6580  -19.2640 N.ar  266  HIS266     -0.2268
    162  CD2      -63.7140  -47.0790  -21.3970 C.ar  266  HIS266      0.1154
    163  CE1      -62.5910  -47.7080  -19.6040 C.ar  266  HIS266      0.1986
    164  NE2      -62.8150  -47.9960  -20.8780 N.ar  266  HIS266     -0.2212
    165  N        -67.8410  -46.2470  -21.4380 N.am  267  ILE267     -0.1966
    166  CA       -68.4660  -47.2470  -22.2950 C.3   267  ILE267      0.1712
    167  C        -67.2780  -47.9250  -23.0050 C.2   267  ILE267      0.2458
    168  O        -66.2710  -47.2770  -23.3210 O.2   267  ILE267     -0.2730
    169  CB       -69.3640  -46.5060  -23.2790 C.3   267  ILE267      0.0289
    170  CG1      -70.6570  -46.0860  -22.5890 C.3   267  ILE267      0.0022
    171  CG2      -69.7040  -47.3270  -24.5620 C.3   267  ILE267      0.0023
    172  CD1      -71.5290  -45.0820  -23.5710 C.3   267  ILE267      0.0001
    173  N        -67.3270  -49.2520  -23.1940 N.am  268  PRO268     -0.2716
    174  CA       -68.3220  -50.2740  -22.9550 C.3   268  PRO268      0.1536
    175  C        -68.1520  -51.1280  -21.7060 C.2   268  PRO268      0.2598
    176  O        -68.6070  -52.2720  -21.7350 O.2   268  PRO268     -0.2715
    177  CB       -68.0950  -51.1740  -24.1770 C.3   268  PRO268      0.0310
    178  CG       -66.5880  -51.2140  -24.3030 C.3   268  PRO268      0.0237
    179  CD       -66.1290  -49.8150  -23.8530 C.3   268  PRO268      0.0939
    180  N        -67.5640  -50.6350  -20.6210 N.am  269  VAL269     -0.1978
    181  CA       -67.1780  -51.4680  -19.5060 C.3   269  VAL269      0.1596
    182  C        -68.0470  -51.2540  -18.2660 C.2   269  VAL269      0.2287
    183  O        -67.7710  -51.8210  -17.1860 O.2   269  VAL269     -0.2864
    184  CB       -65.6730  -51.3020  -19.0540 C.3   269  VAL269      0.0276
    185  CG1      -64.7330  -51.2010  -20.2260 C.3   269  VAL269      0.0022
    186  CG2      -65.4920  -50.0970  -18.1540 C.3   269  VAL269      0.0022
    187  N        -59.1560  -57.6190  -17.9750 N.3   293  TRP293     -0.1241
    188  CA       -58.4350  -56.3460  -18.1440 C.3   293  TRP293      0.1605
    189  C        -58.8040  -55.4630  -16.9350 C.2   293  TRP293      0.2264
    190  O        -60.0240  -55.2420  -16.7620 O.2   293  TRP293     -0.2867
    191  CB       -58.9930  -55.6230  -19.4130 C.3   293  TRP293      0.0550
    192  CG       -58.3580  -54.2560  -19.6120 C.ar  293  TRP293      0.0003
    193  CD1      -58.7750  -53.0540  -19.0680 C.ar  293  TRP293      0.0946
    194  CD2      -57.1550  -53.9600  -20.3760 C.ar  293  TRP293      0.0152
    195  NE1      -57.9280  -52.0380  -19.4610 N.ar  293  TRP293     -0.2442
    196  CE2      -56.9440  -52.5420  -20.2820 C.ar  293  TRP293      0.0810
    197  CE3      -56.2590  -54.7520  -21.1200 C.ar  293  TRP293      0.0012
    198  CZ2      -55.8230  -51.8920  -20.8500 C.ar  293  TRP293      0.0191
    199  CZ3      -55.1590  -54.1270  -21.7340 C.ar  293  TRP293      0.0001
    200  CH2      -54.9550  -52.6810  -21.6020 C.ar  293  TRP293      0.0015
    201  N        -54.3690  -48.1070  -11.9890 N.3   298  ASP298     -0.1225
    202  CA       -54.7780  -46.8550  -12.6710 C.3   298  ASP298      0.1805
    203  C        -55.6240  -47.1030  -13.9160 C.2   298  ASP298      0.2598
    204  O        -56.7090  -46.5250  -14.0330 O.2   298  ASP298     -0.2718
    205  CB       -53.5390  -45.9600  -12.9860 C.3   298  ASP298      0.1424
    206  CG       -52.6450  -45.8090  -11.7760 C.2   298  ASP298      0.3668
    207  OD1      -53.1450  -45.3280  -10.7250 O.co2 298  ASP298     -0.2456
    208  OD2      -51.4930  -46.2670  -11.7980 O.co2 298  ASP298     -0.2456
    209  N        -55.1460  -47.9110  -14.8770 N.am  299  TRP299     -0.1962
    210  CA       -55.9520  -48.1660  -16.0670 C.3   299  TRP299      0.1771
    211  C        -57.2940  -48.7850  -15.7050 C.2   299  TRP299      0.2620
    212  O        -57.4240  -49.5610  -14.7350 O.2   299  TRP299     -0.2715
    213  CB       -55.1940  -49.0350  -17.0280 C.3   299  TRP299      0.0590
    214  CG       -54.0020  -48.3120  -17.5860 C.ar  299  TRP299      0.0006
    215  CD1      -53.5150  -47.0410  -17.2260 C.ar  299  TRP299      0.0946
    216  CD2      -53.1100  -48.8040  -18.5810 C.ar  299  TRP299      0.0152
    217  NE1      -52.3920  -46.7300  -17.9810 N.ar  299  TRP299     -0.2442
    218  CE2      -52.1150  -47.7880  -18.8020 C.ar  299  TRP299      0.0810
    219  CE3      -53.0590  -49.9870  -19.3300 C.ar  299  TRP299      0.0012
    220  CZ2      -51.1500  -47.9250  -19.7490 C.ar  299  TRP299      0.0191
    221  CZ3      -52.0730  -50.1390  -20.2210 C.ar  299  TRP299      0.0001
    222  CH2      -51.1220  -49.1220  -20.4450 C.ar  299  TRP299      0.0015
    223  N        -58.2830  -48.4370  -16.4980 N.am  300  SER300     -0.1936
    224  CA       -59.6380  -48.7070  -16.1990 C.3   300  SER300      0.2040
    225  C        -60.1630  -49.8310  -17.1360 C.2   300  SER300      0.2485
    226  O        -59.9900  -49.7260  -18.3600 O.2   300  SER300     -0.2729
    227  CB       -60.4270  -47.3960  -16.4740 C.3   300  SER300      0.2129
    228  OG       -61.8210  -47.6860  -16.6850 O.3   300  SER300     -0.2179
    229  N        -60.8990  -50.8200  -16.6100 N.am  301  PRO301     -0.2726
    230  CA       -61.3090  -50.9430  -15.2410 C.3   301  PRO301      0.1402
    231  C        -60.2300  -51.6750  -14.4760 C.2   301  PRO301      0.2269
    232  O        -59.6110  -52.5940  -15.0430 O.2   301  PRO301     -0.2865
    233  CB       -62.5680  -51.8580  -15.3280 C.3   301  PRO301      0.0296
    234  CG       -62.4250  -52.6080  -16.5880 C.3   301  PRO301      0.0237
    235  CD       -61.7710  -51.5690  -17.5140 C.3   301  PRO301      0.0939
@<TRIPOS>BOND
     1    76    75    2
     2    75    74    1
     3    73    74    1
     4    74    77    1
     5    77    78    1
     6    84    85    1
     7    78    80   ar
     8    78    79   ar
     9    80    82   ar
    10    85    88    1
    11    85    86    1
    12    88    89    1
    13    79    81   ar
    14    24    23    2
    15    67    66    2
    16    23    22    1
    17    29    30    1
    18    66    65    1
    19    82    83   ar
    20    47    46    2
    21    92    86   am
    22    92    93    1
    23    89    91   am
    24    89    90    2
    25    86    87    2
    26    81    83   ar
    27   104   105   ar
    28   104   102   ar
    29   105   103   ar
    30    46    45    1
    31    30    31    1
    32    30    33    1
    33    22    21    1
    34    22    25    1
    35   102    99   ar
    36   103   101   ar
    37    93    94    1
    38    93    96    1
    39    65    64    1
    40    65    68    1
    41    31    32    2
    42    56    57    1
    43    64    58   am
    44    99   101   ar
    45    99    97   ar
    46    94    95    2
    47   101   100   ar
    48    33    34    1
    49    27    25    1
    50    48    45    1
    51    48    49    1
    52    58    59    2
    53    58    57    1
    54    45    44    1
    55    25    26    1
    56    97    96    1
    57    97    98   ar
    58   100    98   ar
    59    68    69    1
    60    57    60    1
    61    34    35    1
    62    44    40   am
    63    36    35    2
    64    49    50   ar
    65    49    51   ar
    66    26    28    1
    67   145   144    1
    68    60    61    1
    69    69    70    1
    70    50    52   ar
    71    35    37   am
    72    13    14    2
    73    13    12    1
    74    38    39    1
    75    11    12    1
    76    40    41    2
    77    40    39    1
    78   144   143    1
    79    51    53   ar
    80    12    15    1
    81    61    63   am
    82    61    62    2
    83    39    42    1
    84    71    70   ar
    85    70    72   ar
    86   140   139    2
    87    52    54   ar
    88     3     4    2
    89     3     2    1
    90   106   107    1
    91    53    54   ar
    92   143   142    1
    93   139   138    1
    94    42    43    1
    95    54    55    1
    96    15    16    1
    97   114   112   ar
    98   114   115   ar
    99     2     1    1
   100     2     5    1
   101   112   111   ar
   102   115   113   ar
   103   141   138    1
   104   141   142    1
   105   111   113   ar
   106   111   110    1
   107   110   107    1
   108   138   137    1
   109   107   108    1
   110   109   108    2
   111    16    17   ar
   112    16    18   ar
   113    17    19   ar
   114     5     6    1
   115    18    20   ar
   116   131   130    2
   117    19    20   ar
   118     6     8   ar
   119     6     7   ar
   120   137   130   am
   121     8    10   ar
   122   130   129    1
   123   171   169    1
   124   154   152   ar
   125     7     9   ar
   126    10     9   ar
   127   178   177    1
   128   178   179    1
   129   177   174    1
   130   116   117    1
   131   152   153   ar
   132   152   151    1
   133   179   173    1
   134   122   124   ar
   135   122   121   ar
   136   146   147    1
   137   172   170    1
   138   151   150    1
   139   124   126   ar
   140   119   118    2
   141   168   167    2
   142   149   148    2
   143   169   170    1
   144   169   166    1
   145   129   132    1
   146   129   128    1
   147   150   147    1
   148   173   167   am
   149   173   174    1
   150   120   117    1
   151   120   121    1
   152   167   166    1
   153   132   133    1
   154   174   175    1
   155   117   118    1
   156   121   123   ar
   157   147   148    1
   158   166   165    1
   159   126   127    1
   160   126   125   ar
   161   176   175    2
   162   199   200   ar
   163   199   197   ar
   164   175   180   am
   165   200   198   ar
   166   133   134    1
   167   123   125   ar
   168   165   157   am
   169   162   164   ar
   170   162   160   ar
   171   197   194   ar
   172   134   135    2
   173   134   136   am
   174   164   163   ar
   175   198   196   ar
   176   180   181    1
   177   222   221   ar
   178   222   220   ar
   179   157   158    2
   180   157   156    1
   181   194   196   ar
   182   194   192   ar
   183   160   159    1
   184   160   161   ar
   185   159   156    1
   186   196   195   ar
   187   185   184    1
   188   221   219   ar
   189   220   218   ar
   190   156   155    1
   191   192   191    1
   192   192   193   ar
   193   163   161   ar
   194   181   184    1
   195   181   182    1
   196   195   193   ar
   197   191   188    1
   198   219   216   ar
   199   184   186    1
   200   218   216   ar
   201   218   217   ar
   202   216   214   ar
   203   226   225    2
   204   182   183    2
   205   188   187    1
   206   188   189    1
   207   217   215   ar
   208   214   215   ar
   209   214   213    1
   210   235   229    1
   211   235   234    1
   212   225   229   am
   213   225   224    1
   214   213   210    1
   215   189   190    2
   216   228   227    1
   217   229   230    1
   218   234   233    1
   219   223   224    1
   220   223   211   am
   221   227   224    1
   222   210   211    1
   223   210   209    1
   224   211   212    2
   225   233   230    1
   226   230   231    1
   227   232   231    2
   228   209   203   am
   229   204   203    2
   230   203   202    1
   231   205   202    1
   232   205   206    1
   233   202   201    1
   234   208   206   ar
   235   206   207   ar
