@<TRIPOS>MOLECULE
tmp/4hu1B00.pdb
 158 154 0 0 0
SMALL
GASTEIGER

@<TRIPOS>ATOM
      1  N         -8.0280    5.4060    9.5810 N.3    62  HIS62      -0.1241
      2  CA        -7.1700    4.1950    9.5130 C.3    62  HIS62       0.1621
      3  C         -7.8790    2.8960    9.0140 C.2    62  HIS62       0.2264
      4  O         -7.1980    1.9010    8.6620 O.2    62  HIS62      -0.2867
      5  CB        -6.5870    3.9330   10.8990 C.3    62  HIS62       0.0745
      6  CG        -5.9940    5.1560   11.5200 C.ar   62  HIS62       0.0817
      7  ND1       -4.9620    5.8500   10.9210 N.ar   62  HIS62      -0.2268
      8  CD2       -6.3530    5.8760   12.6080 C.ar   62  HIS62       0.1154
      9  CE1       -4.6950    6.9290   11.6320 C.ar   62  HIS62       0.1986
     10  NE2       -5.4880    6.9420   12.6840 N.ar   62  HIS62      -0.2212
     11  N        -14.5930    1.9150   11.6900 N.3    65  ASN65      -0.1240
     12  CA       -14.8290    1.2180   12.9700 C.3    65  ASN65       0.1653
     13  C        -16.3470    1.0850   13.1090 C.2    65  ASN65       0.2266
     14  O        -17.0780    2.1130   13.0560 O.2    65  ASN65      -0.2867
     15  CB       -14.2850    1.9910   14.1920 C.3    65  ASN65       0.1155
     16  CG       -12.7700    2.0790   14.2410 C.2    65  ASN65       0.2627
     17  OD1      -12.2090    3.0170   14.8230 O.2    65  ASN65      -0.2716
     18  ND2      -12.0960    1.1000   13.6750 N.am   65  ASN65      -0.0877
     19  N        -16.2730   -4.9840   21.5210 N.3    89  ARG89      -0.1231
     20  CA       -16.1610   -3.5560   21.5240 C.3    89  ARG89       0.1694
     21  C        -16.3140   -2.9670   20.1150 C.2    89  ARG89       0.2591
     22  O        -16.9950   -1.9420   19.9340 O.2    89  ARG89      -0.2718
     23  CB       -14.7850   -3.2170   22.0710 C.3    89  ARG89       0.0321
     24  CG       -14.3990   -1.8020   21.9410 C.3    89  ARG89       0.0489
     25  CD       -14.5710   -1.0710   23.1880 C.3    89  ARG89       0.2205
     26  NE       -14.0870    0.3000   23.0250 N.pl3  89  ARG89      -0.0865
     27  CZ       -14.3950    1.2790   23.8770 C.cat  89  ARG89       0.5346
     28  NH1      -15.1560    1.0030   24.9720 N.pl3  89  ARG89       0.1354
     29  NH2      -13.9140    2.5170   23.6350 N.pl3  89  ARG89       0.1354
     30  N        -15.5810   -3.5140   19.1530 N.am   90  GLN90      -0.1979
     31  CA       -15.4850   -2.7950   17.8780 C.3    90  GLN90       0.1601
     32  C        -15.1340   -3.7400   16.7640 C.2    90  GLN90       0.2287
     33  O        -14.4980   -4.7530   17.0330 O.2    90  GLN90      -0.2864
     34  CB       -14.3880   -1.7270   18.1190 C.3    90  GLN90       0.0394
     35  CG       -14.0640   -0.9450   17.0320 C.3    90  GLN90       0.0908
     36  CD       -12.7130   -1.2960   16.4750 C.2    90  GLN90       0.2608
     37  OE1      -12.4440   -2.4190   16.0110 O.2    90  GLN90      -0.2717
     38  NE2      -11.8930   -0.3070   16.4330 N.am   90  GLN90      -0.0878
     39  N        -13.3370   -3.7190   12.6650 N.3    92  HIS92      -0.1241
     40  CA       -12.7370   -2.9450   11.5990 C.3    92  HIS92       0.1621
     41  C        -12.1260   -3.8950   10.5790 C.2    92  HIS92       0.2264
     42  O        -12.1850   -5.0780   10.7300 O.2    92  HIS92      -0.2867
     43  CB       -11.6910   -1.9570   12.1480 C.3    92  HIS92       0.0745
     44  CG       -10.5070   -2.6300   12.7620 C.ar   92  HIS92       0.0817
     45  ND1      -10.4740   -2.9390   14.1000 N.ar   92  HIS92      -0.2268
     46  CD2       -9.3270   -3.0670   12.2370 C.ar   92  HIS92       0.1154
     47  CE1       -9.3500   -3.5780   14.3740 C.ar   92  HIS92       0.1986
     48  NE2       -8.6160   -3.6530   13.2730 N.ar   92  HIS92      -0.2212
     49  N         -8.9090   -4.4820    7.4690 N.3    94  HIS94      -0.1241
     50  CA        -7.6790   -4.1220    6.8260 C.3    94  HIS94       0.1621
     51  C         -7.7090   -4.7170    5.3860 C.2    94  HIS94       0.2264
     52  O         -8.2220   -5.8080    5.1570 O.2    94  HIS94      -0.2867
     53  CB        -6.4440   -4.6610    7.5530 C.3    94  HIS94       0.0745
     54  CG        -6.3460   -4.2370    8.9770 C.ar   94  HIS94       0.0817
     55  ND1       -5.7750   -3.0430    9.3670 N.ar   94  HIS94      -0.2268
     56  CD2       -6.8080   -4.8280   10.1120 C.ar   94  HIS94       0.1154
     57  CE1       -5.8310   -2.9450   10.6860 C.ar   94  HIS94       0.1986
     58  NE2       -6.4590   -4.0110   11.1590 N.ar   94  HIS94      -0.2212
     59  N        -11.2010   -7.6770   11.7340 N.3   117  HIS117     -0.1241
     60  CA       -10.8050   -7.8270   13.1440 C.3   117  HIS117      0.1621
     61  C        -11.9590   -7.4860   14.0520 C.2   117  HIS117      0.2264
     62  O        -12.5420   -6.4200   13.9290 O.2   117  HIS117     -0.2867
     63  CB        -9.5990   -6.9600   13.4750 C.3   117  HIS117      0.0745
     64  CG        -8.3380   -7.4530   12.8190 C.ar  117  HIS117      0.0817
     65  ND1       -7.2150   -6.6790   12.6810 N.ar  117  HIS117     -0.2268
     66  CD2       -8.0080   -8.6880   12.3660 C.ar  117  HIS117      0.1154
     67  CE1       -6.2550   -7.4110   12.1150 C.ar  117  HIS117      0.1986
     68  NE2       -6.7310   -8.6160   11.8750 N.ar  117  HIS117     -0.2212
     69  N        -12.7640   -6.8990   17.9210 N.3   119  VAL119     -0.1245
     70  CA       -11.9410   -6.5060   19.0860 C.3   119  VAL119      0.1561
     71  C        -12.8130   -6.6910   20.3570 C.2   119  VAL119      0.2260
     72  O        -13.9750   -6.2820   20.3840 O.2   119  VAL119     -0.2867
     73  CB       -11.4810   -5.0180   19.0330 C.3   119  VAL119      0.0252
     74  CG1      -10.5980   -4.6970   20.2930 C.3   119  VAL119      0.0019
     75  CG2      -10.5820   -4.7170   17.7700 C.3   119  VAL119      0.0019
     76  N        -12.3200   -1.0630   28.7600 N.3   129  PHE129     -0.1241
     77  CA       -11.4580   -1.2980   27.6100 C.3   129  PHE129      0.1605
     78  C        -10.1040   -0.7000   27.7540 C.2   129  PHE129      0.2264
     79  O         -9.1080   -1.4170   27.5530 O.2   129  PHE129     -0.2867
     80  CB       -12.1430   -0.8100   26.3220 C.3   129  PHE129      0.0534
     81  CG       -11.2730   -0.9060   25.1220 C.ar  129  PHE129     -0.0203
     82  CD1      -10.9900   -2.1290   24.5930 C.ar  129  PHE129     -0.0042
     83  CD2      -10.7240    0.2490   24.5510 C.ar  129  PHE129     -0.0042
     84  CE1      -10.1880   -2.2240   23.4550 C.ar  129  PHE129     -0.0003
     85  CE2       -9.8680    0.1840   23.4300 C.ar  129  PHE129     -0.0003
     86  CZ        -9.6140   -1.0740   22.8700 C.ar  129  PHE129     -0.0000
     87  N         -7.0140   -7.9310   26.0510 N.3   139  LEU139     -0.1245
     88  CA        -7.7340   -7.9430   24.7640 C.3   139  LEU139      0.1561
     89  C         -7.7560   -9.3210   24.0810 C.2   139  LEU139      0.2260
     90  O         -6.8060  -10.1330   24.2010 O.2   139  LEU139     -0.2867
     91  CB        -7.1590   -6.8670   23.7700 C.3   139  LEU139      0.0270
     92  CG        -7.0960   -5.4340   24.3290 C.3   139  LEU139      0.0019
     93  CD1       -6.4990   -4.4070   23.3270 C.3   139  LEU139      0.0001
     94  CD2       -8.5130   -4.9480   24.8220 C.3   139  LEU139      0.0001
     95  N         -8.5870  -10.4700   19.9610 N.3   141  VAL141     -0.1245
     96  CA        -8.9910  -10.0440   18.6230 C.3   141  VAL141      0.1561
     97  C         -9.2280  -11.2800   17.7950 C.2   141  VAL141      0.2260
     98  O         -8.3690  -12.1380   17.7330 O.2   141  VAL141     -0.2867
     99  CB        -8.0040   -9.0640   17.9380 C.3   141  VAL141      0.0252
    100  CG1       -8.6010   -8.6610   16.5780 C.3   141  VAL141      0.0019
    101  CG2       -7.8560   -7.7470   18.7930 C.3   141  VAL141      0.0019
    102  N         -1.7650   -5.0380   19.4770 N.3   196  LEU196     -0.1231
    103  CA        -2.3950   -4.1810   18.4550 C.3   196  LEU196      0.1693
    104  C         -1.4980   -4.1150   17.1920 C.2   196  LEU196      0.2593
    105  O         -0.2820   -3.9850   17.3020 O.2   196  LEU196     -0.2718
    106  CB        -2.6760   -2.7200   18.9370 C.3   196  LEU196      0.0284
    107  CG        -3.3670   -2.5690   20.3180 C.3   196  LEU196      0.0019
    108  CD1       -3.5160   -1.1270   20.7180 C.3   196  LEU196      0.0001
    109  CD2       -4.7400   -3.2640   20.4050 C.3   196  LEU196      0.0001
    110  N         -2.1310   -4.1680   16.0200 N.am  197  THR197     -0.1939
    111  CA        -1.4140   -4.0380   14.7440 C.3   197  THR197      0.2028
    112  C         -1.3720   -2.5780   14.3150 C.2   197  THR197      0.2642
    113  O         -0.9040   -2.2610   13.2200 O.2   197  THR197     -0.2714
    114  CB        -2.0370   -4.9260   13.6420 C.3   197  THR197      0.1808
    115  OG1       -3.3560   -4.4180   13.2920 O.3   197  THR197     -0.2208
    116  CG2       -2.0620   -6.4500   14.1100 C.3   197  THR197      0.0379
    117  N         -1.8560   -1.6840   15.1930 N.am  198  VAL198     -0.1963
    118  CA        -1.8580   -0.2380   14.9320 C.3   198  VAL198      0.1712
    119  C         -1.2620    0.4200   16.1730 C.2   198  VAL198      0.2458
    120  O         -1.3850   -0.1000   17.2970 O.2   198  VAL198     -0.2730
    121  CB        -3.2620    0.3840   14.6510 C.3   198  VAL198      0.0289
    122  CG1       -3.8520   -0.0240   13.3470 C.3   198  VAL198      0.0023
    123  CG2       -4.2670    0.1420   15.8550 C.3   198  VAL198      0.0023
    124  N         -0.6300    1.5920   15.9960 N.am  199  PRO199     -0.2716
    125  CA        -0.2770    2.3590   17.1800 C.3   199  PRO199      0.1521
    126  C         -1.4890    2.5660   18.1020 C.2   199  PRO199      0.2440
    127  O         -2.6130    2.8240   17.6210 O.2   199  PRO199     -0.2731
    128  CB         0.2130    3.6910   16.5870 C.3   199  PRO199      0.0310
    129  CG         0.8640    3.2470   15.2340 C.3   199  PRO199      0.0237
    130  CD        -0.1830    2.2510   14.7300 C.3   199  PRO199      0.0939
    131  N         -1.2860    2.4050   19.4330 N.am  200  PRO200     -0.2727
    132  CA         0.0280    2.2550   20.1300 C.3   200  PRO200      0.1402
    133  C          0.6750    0.8830   20.2800 C.2   200  PRO200      0.2269
    134  O          1.6450    0.7470   21.0460 O.2   200  PRO200     -0.2865
    135  CB        -0.2500    2.8810   21.5060 C.3   200  PRO200      0.0296
    136  CG        -1.7180    2.5570   21.7680 C.3   200  PRO200      0.0237
    137  CD        -2.4200    2.4840   20.3820 C.3   200  PRO200      0.0939
    138  N         -2.7670   -8.3790   23.3480 N.3   205  VAL205     -0.1245
    139  CA        -3.7730   -9.0750   22.5230 C.3   205  VAL205      0.1561
    140  C         -3.6040  -10.5990   22.4550 C.2   205  VAL205      0.2260
    141  O         -2.5430  -11.0730   22.0840 O.2   205  VAL205     -0.2867
    142  CB        -3.8810   -8.4950   21.0410 C.3   205  VAL205      0.0252
    143  CG1       -4.9930   -9.2680   20.2790 C.3   205  VAL205      0.0019
    144  CG2       -4.2100   -7.0160   21.0240 C.3   205  VAL205      0.0019
    145  N         -4.4860  -13.2410   20.0510 N.3   207  TRP207     -0.1241
    146  CA        -4.9200  -13.2820   18.6650 C.3   207  TRP207      0.1605
    147  C         -5.5800  -14.6220   18.4840 C.2   207  TRP207      0.2264
    148  O         -5.0920  -15.6320   18.9630 O.2   207  TRP207     -0.2867
    149  CB        -3.7500  -13.0910   17.6990 C.3   207  TRP207      0.0550
    150  CG        -3.5220  -11.6380   17.5300 C.ar  207  TRP207      0.0003
    151  CD1       -2.6010  -10.8270   18.2000 C.ar  207  TRP207      0.0946
    152  CD2       -4.2950  -10.8130   16.7090 C.ar  207  TRP207      0.0152
    153  NE1       -2.8000   -9.5240   17.8150 N.ar  207  TRP207     -0.2442
    154  CE2       -3.8190   -9.4910   16.8740 C.ar  207  TRP207      0.0810
    155  CE3       -5.3630  -11.0720   15.8020 C.ar  207  TRP207      0.0012
    156  CZ2       -4.4260   -8.3870   16.2160 C.ar  207  TRP207      0.0191
    157  CZ3       -5.9340   -9.9850   15.0970 C.ar  207  TRP207      0.0001
    158  CH2       -5.4550   -8.6560   15.3070 C.ar  207  TRP207      0.0015
@<TRIPOS>BOND
     1    52    51    2
     2    51    50    1
     3    50    49    1
     4    50    53    1
     5    53    54    1
     6     4     3    2
     7    54    55   ar
     8    54    56   ar
     9     3     2    1
    10    55    57   ar
    11     2     1    1
    12     2     5    1
    13    56    58   ar
    14    41    42    2
    15    41    40    1
    16    57    58   ar
    17     5     6    1
    18     7     6   ar
    19     7     9   ar
    20     6     8   ar
    21    40    43    1
    22    40    39    1
    23     9    10   ar
    24    11    12    1
    25    59    60    1
    26    68    67   ar
    27    68    66   ar
    28    67    65   ar
    29    43    44    1
    30    46    44   ar
    31    46    48   ar
    32    66    64   ar
    33     8    10   ar
    34    65    64   ar
    35    44    45   ar
    36    64    63    1
    37    12    13    1
    38    12    15    1
    39    14    13    2
    40    60    63    1
    41    60    61    1
    42   113   112    2
    43    48    47   ar
    44   115   114    1
    45   122   121    1
    46   114   116    1
    47   114   111    1
    48    18    16   am
    49    62    61    2
    50    45    47   ar
    51    15    16    1
    52    16    17    2
    53   112   111    1
    54   112   117   am
    55   121   118    1
    56   121   123    1
    57   130   129    1
    58   130   124    1
    59   111   110    1
    60   118   117    1
    61   118   119    1
    62   157   158   ar
    63   157   155   ar
    64   129   128    1
    65   158   156   ar
    66   155   152   ar
    67   124   119   am
    68   124   125    1
    69    37    36    2
    70   110   104   am
    71   119   120    2
    72   156   154   ar
    73    38    36   am
    74    36    35    1
    75   100    99    1
    76   128   125    1
    77   152   154   ar
    78   152   150   ar
    79    32    33    2
    80    32    31    1
    81   154   153   ar
    82    35    34    1
    83   125   126    1
    84   104   105    2
    85   104   103    1
    86   150   149    1
    87   150   151   ar
    88   127   126    2
    89   149   146    1
    90    98    97    2
    91    75    73    1
    92    97    96    1
    93   153   151   ar
    94    31    34    1
    95    31    30    1
    96    69    70    1
    97    99    96    1
    98    99   101    1
    99   126   131   am
   100   103   106    1
   101   103   102    1
   102   147   146    1
   103   147   148    2
   104    96    95    1
   105   146   145    1
   106   106   107    1
   107    73    70    1
   108    73    74    1
   109    70    71    1
   110    30    21   am
   111   131   132    1
   112   131   137    1
   113    22    21    2
   114    21    20    1
   115   132   133    1
   116   132   135    1
   117   143   142    1
   118   133   134    2
   119   107   109    1
   120   107   108    1
   121    71    72    2
   122   137   136    1
   123   144   142    1
   124   142   139    1
   125   135   136    1
   126    19    20    1
   127    20    23    1
   128    24    23    1
   129    24    25    1
   130   141   140    2
   131   140   139    1
   132   139   138    1
   133    86    85   ar
   134    86    84   ar
   135    26    25    1
   136    26    27    2
   137    93    92    1
   138    85    83   ar
   139    84    82   ar
   140    29    27    1
   141    91    92    1
   142    91    88    1
   143    27    28    1
   144    89    90    2
   145    89    88    1
   146    92    94    1
   147    83    81   ar
   148    82    81   ar
   149    88    87    1
   150    81    80    1
   151    80    77    1
   152    79    78    2
   153    77    78    1
   154    77    76    1
