@<TRIPOS>MOLECULE
tmp/4hukA00.pdb
 121 111 0 0 0
SMALL
GASTEIGER

@<TRIPOS>ATOM
      1  N         13.4700  -39.6210   37.1680 N.3    37  ASP37      -0.1239
      2  CA        14.6100  -40.3230   36.5840 C.3    37  ASP37       0.1674
      3  C         15.9930  -39.7160   36.8520 C.2    37  ASP37       0.2266
      4  O         16.7280  -40.2070   37.7110 O.2    37  ASP37      -0.2867
      5  CB        14.3670  -40.4320   35.0760 C.3    37  ASP37       0.1410
      6  CG        14.8870  -41.7250   34.4770 C.2    37  ASP37       0.3668
      7  OD1       15.8810  -42.2810   34.9960 O.co2  37  ASP37      -0.2456
      8  OD2       14.2980  -42.1740   33.4640 O.co2  37  ASP37      -0.2456
      9  N         21.6900  -46.1940   40.0920 N.3    53  ALA53      -0.1245
     10  CA        21.0990  -46.8630   38.9420 C.3    53  ALA53       0.1562
     11  C         21.4230  -48.3520   39.0210 C.2    53  ALA53       0.2260
     12  O         20.6710  -49.1980   38.5180 O.2    53  ALA53      -0.2867
     13  CB        21.6150  -46.2500   37.6460 C.3    53  ALA53       0.0290
     14  N         18.3250  -49.4390   40.6310 N.3    56  SER56      -0.1202
     15  CA        17.1540  -48.7180   40.1160 C.3    56  SER56       0.2020
     16  C         16.9740  -48.9510   38.6280 C.2    56  SER56       0.2619
     17  O         15.8600  -48.8930   38.1090 O.2    56  SER56      -0.2717
     18  CB        17.2470  -47.2090   40.3930 C.3    56  SER56       0.2103
     19  OG        17.8040  -46.5060   39.2930 O.3    56  SER56      -0.2182
     20  N         18.0630  -49.1990   37.9270 N.am   57  SER57      -0.1937
     21  CA        17.8860  -49.5360   36.5430 C.3    57  SER57       0.2055
     22  C         18.0600  -51.0390   36.3480 C.2    57  SER57       0.2642
     23  O         18.2470  -51.5190   35.2260 O.2    57  SER57      -0.2714
     24  CB        18.7670  -48.6840   35.6250 C.3    57  SER57       0.2130
     25  OG        18.1370  -48.5090   34.3570 O.3    57  SER57      -0.2179
     26  N         17.9770  -51.7820   37.4450 N.am   58  ALA58      -0.1977
     27  CA        17.8510  -53.2220   37.3350 C.3    58  ALA58       0.1597
     28  C         16.6680  -53.6810   38.1840 C.2    58  ALA58       0.2287
     29  O         16.4370  -54.8810   38.3910 O.2    58  ALA58      -0.2864
     30  CB        19.1510  -53.9130   37.7150 C.3    58  ALA58       0.0319
     31  N         13.8650  -51.6890   37.1770 N.3    60  ALA60      -0.1245
     32  CA        13.0350  -51.3220   36.0270 C.3    60  ALA60       0.1562
     33  C         13.2050  -52.3440   34.9020 C.2    60  ALA60       0.2260
     34  O         13.0450  -52.0570   33.7100 O.2    60  ALA60      -0.2867
     35  CB        13.3610  -49.9000   35.5630 C.3    60  ALA60       0.0290
     36  N         14.5130  -55.3480   23.8790 N.3   257  GLU257     -0.1245
     37  CA        15.5200  -54.4670   24.4470 C.3   257  GLU257      0.1567
     38  C         15.7560  -54.7780   25.9360 C.2   257  GLU257      0.2260
     39  O         16.3170  -53.9590   26.6730 O.2   257  GLU257     -0.2867
     40  CB        15.2150  -52.9810   24.1990 C.3   257  GLU257      0.0388
     41  CG        16.4600  -52.1720   23.8050 C.3   257  GLU257      0.1160
     42  CD        16.5990  -50.8430   24.5460 C.2   257  GLU257      0.3649
     43  OE1       16.7150  -49.7420   23.8580 O.co2 257  GLU257     -0.2457
     44  OE2       16.5750  -50.8760   25.8250 O.co2 257  GLU257     -0.2457
     45  N         20.1600  -54.9850   26.1210 N.3   261  PHE261     -0.1241
     46  CA        20.1660  -54.4720   27.4970 C.3   261  PHE261      0.1605
     47  C         21.4270  -55.1360   28.0570 C.2   261  PHE261      0.2264
     48  O         22.1920  -54.5250   28.8050 O.2   261  PHE261     -0.2867
     49  CB        18.8860  -54.9980   28.1920 C.3   261  PHE261      0.0534
     50  CG        18.6430  -54.5280   29.6290 C.ar  261  PHE261     -0.0203
     51  CD1       19.1960  -55.2230   30.7170 C.ar  261  PHE261     -0.0042
     52  CD2       17.7500  -53.4660   29.9040 C.ar  261  PHE261     -0.0042
     53  CE1       18.9310  -54.8230   32.0280 C.ar  261  PHE261     -0.0003
     54  CE2       17.4770  -53.0700   31.2180 C.ar  261  PHE261     -0.0003
     55  CZ        18.0700  -53.7510   32.2770 C.ar  261  PHE261     -0.0000
     56  N         24.0490  -54.3140   24.9110 N.3   264  ILE264     -0.1231
     57  CA        24.5770  -52.9560   25.0750 C.3   264  ILE264      0.1692
     58  C         25.6150  -52.8620   26.2080 C.2   264  ILE264      0.2591
     59  O         26.5520  -52.0570   26.1330 O.2   264  ILE264     -0.2718
     60  CB        23.4270  -51.8950   25.1900 C.3   264  ILE264      0.0266
     61  CG1       22.4690  -52.1780   26.3720 C.3   264  ILE264      0.0019
     62  CG2       22.6350  -51.8230   23.8810 C.3   264  ILE264      0.0020
     63  CD1       22.3280  -51.0910   27.4350 C.3   264  ILE264      0.0001
     64  N         25.4520  -53.7150   27.2250 N.am  265  VAL265     -0.1980
     65  CA        26.3820  -53.8070   28.3680 C.3   265  VAL265      0.1595
     66  C         27.1470  -55.1510   28.3690 C.2   265  VAL265      0.2287
     67  O         27.2770  -55.8160   29.4030 O.2   265  VAL265     -0.2864
     68  CB        25.6740  -53.5390   29.7370 C.3   265  VAL265      0.0276
     69  CG1       26.6780  -53.4350   30.8830 C.3   265  VAL265      0.0022
     70  CG2       24.8400  -52.2650   29.6920 C.3   265  VAL265      0.0022
     71  N         26.4000  -45.1070   25.1530 N.3   280  GLN280     -0.1245
     72  CA        25.5320  -45.1490   26.3260 C.3   280  GLN280      0.1566
     73  C         25.2220  -43.7470   26.8630 C.2   280  GLN280      0.2260
     74  O         24.3790  -43.5910   27.7460 O.2   280  GLN280     -0.2867
     75  CB        26.1630  -46.0150   27.4210 C.3   280  GLN280      0.0367
     76  CG        25.1610  -46.8380   28.2130 C.3   280  GLN280      0.0905
     77  CD        25.6650  -48.2430   28.4910 C.2   280  GLN280      0.2608
     78  OE1       26.3700  -48.8450   27.6610 O.2   280  GLN280     -0.2717
     79  NE2       25.3000  -48.7790   29.6600 N.am  280  GLN280     -0.0878
     80  N         23.2060  -44.2820   23.2940 N.3   283  ILE283     -0.1231
     81  CA        21.9690  -45.0880   23.3670 C.3   283  ILE283      0.1692
     82  C         21.0890  -44.7650   24.5890 C.2   283  ILE283      0.2592
     83  O         19.9600  -45.2570   24.6980 O.2   283  ILE283     -0.2718
     84  CB        22.2300  -46.6190   23.2260 C.3   283  ILE283      0.0266
     85  CG1       22.6140  -47.2500   24.5730 C.3   283  ILE283      0.0019
     86  CG2       23.2720  -46.8960   22.1390 C.3   283  ILE283      0.0020
     87  CD1       22.0140  -48.6150   24.8140 C.3   283  ILE283      0.0001
     88  N         21.6240  -43.9580   25.5080 N.am  284  SER284     -0.1952
     89  CA        20.8020  -43.2520   26.4930 C.3   284  SER284      0.1924
     90  C         20.0050  -42.1780   25.7720 C.2   284  SER284      0.2314
     91  O         18.8300  -41.9740   26.0640 O.2   284  SER284     -0.2863
     92  CB        21.6400  -42.6260   27.6180 C.3   284  SER284      0.2116
     93  OG        21.4650  -43.3230   28.8440 O.3   284  SER284     -0.2180
     94  N         16.7080  -43.9120   23.7100 N.3   287  GLY287     -0.1210
     95  CA        15.5420  -43.8670   24.5810 C.3   287  GLY287      0.1956
     96  C         14.9880  -42.4720   24.8370 C.2   287  GLY287      0.2611
     97  O         13.7920  -42.2760   24.6610 O.2   287  GLY287     -0.2717
     98  N         15.8430  -41.5040   25.2120 N.am  288  ILE288     -0.1979
     99  CA        15.3890  -40.1620   25.7060 C.3   288  ILE288      0.1595
    100  C         14.3800  -39.4550   24.8000 C.2   288  ILE288      0.2287
    101  O         13.2660  -39.1380   25.2220 O.2   288  ILE288     -0.2864
    102  CB        16.5350  -39.1710   26.1160 C.3   288  ILE288      0.0276
    103  CG1       17.3390  -38.6540   24.9130 C.3   288  ILE288      0.0022
    104  CG2       17.4180  -39.7410   27.2210 C.3   288  ILE288      0.0022
    105  CD1       17.0940  -37.1920   24.5910 C.3   288  ILE288      0.0001
    106  N         23.0740  -38.1690   33.0380 N.3   351  ASP351     -0.1225
    107  CA        22.5440  -39.5570   33.0750 C.3   351  ASP351      0.1805
    108  C         23.6070  -40.6650   33.0930 C.2   351  ASP351      0.2597
    109  O         23.3940  -41.7320   33.6700 O.2   351  ASP351     -0.2718
    110  CB        21.5530  -39.7840   31.9160 C.3   351  ASP351      0.1424
    111  CG        20.6960  -41.0460   32.0880 C.2   351  ASP351      0.3668
    112  OD1       20.6370  -41.6110   33.2030 O.co2 351  ASP351     -0.2456
    113  OD2       20.0610  -41.4680   31.0940 O.co2 351  ASP351     -0.2456
    114  N         24.7370  -40.4040   32.4430 N.am  352  ASP352     -0.1974
    115  CA        25.9130  -41.2630   32.5140 C.3   352  ASP352      0.1709
    116  C         27.1660  -40.3960   32.3930 C.2   352  ASP352      0.2293
    117  O         27.5010  -39.9480   31.2920 O.2   352  ASP352     -0.2864
    118  CB        25.8750  -42.3350   31.4210 C.3   352  ASP352      0.1436
    119  CG        25.0820  -43.5540   31.8340 C.2   352  ASP352      0.3671
    120  OD1       24.1040  -43.8980   31.1400 O.co2 352  ASP352     -0.2456
    121  OD2       25.4340  -44.1610   32.8650 O.co2 352  ASP352     -0.2456
@<TRIPOS>BOND
     1    86    84    1
     2    84    81    1
     3    84    85    1
     4    80    81    1
     5    81    82    1
     6    94    95    1
     7    41    40    1
     8    41    42    1
     9    43    42   ar
    10    36    37    1
    11    62    60    1
    12    40    37    1
    13    37    38    1
    14    42    44   ar
    15    85    87    1
    16    95    96    1
    17    82    83    2
    18    82    88   am
    19   105   103    1
    20    97    96    2
    21   100   101    2
    22   100    99    1
    23    96    98   am
    24    56    57    1
    25   103   102    1
    26    57    60    1
    27    57    58    1
    28    71    72    1
    29    60    61    1
    30    98    99    1
    31    88    89    1
    32    99   102    1
    33    90    91    2
    34    90    89    1
    35    38    39    2
    36   102   104    1
    37    45    46    1
    38    59    58    2
    39    58    64   am
    40    72    73    1
    41    72    75    1
    42    61    63    1
    43    89    92    1
    44    73    74    2
    45    64    65    1
    46    75    76    1
    47    46    47    1
    48    46    49    1
    49    92    93    1
    50    78    77    2
    51    47    48    2
    52    49    50    1
    53    76    77    1
    54    65    66    1
    55    65    68    1
    56    66    67    2
    57    77    79   am
    58    50    52   ar
    59    50    51   ar
    60    70    68    1
    61    68    69    1
    62    52    54   ar
    63    51    53   ar
    64   113   111   ar
    65   120   119   ar
    66    54    55   ar
    67   117   116    2
    68   118   119    1
    69   118   115    1
    70   119   121   ar
    71   110   111    1
    72   110   107    1
    73    53    55   ar
    74   111   112   ar
    75   116   115    1
    76   114   115    1
    77   114   108   am
    78   106   107    1
    79   107   108    1
    80   108   109    2
    81     8     6   ar
    82    34    33    2
    83    25    24    1
    84     6     7   ar
    85     6     5    1
    86    33    32    1
    87     5     2    1
    88    23    22    2
    89    35    32    1
    90    24    21    1
    91    32    31    1
    92    22    21    1
    93    22    26   am
    94    21    20    1
    95     2     3    1
    96     2     1    1
    97     3     4    2
    98    27    26    1
    99    27    30    1
   100    27    28    1
   101    13    10    1
   102    20    16   am
   103    17    16    2
   104    28    29    2
   105    12    11    2
   106    16    15    1
   107    10    11    1
   108    10     9    1
   109    19    18    1
   110    15    18    1
   111    15    14    1
