@<TRIPOS>MOLECULE
tmp/4humA00.pdb
 125 113 0 0 0
SMALL
GASTEIGER

@<TRIPOS>ATOM
      1  N         14.0390  -39.7290   36.9100 N.3    37  ASP37      -0.1239
      2  CA        15.2850  -40.5100   36.9690 C.3    37  ASP37       0.1674
      3  C         16.5390  -39.6660   37.1750 C.2    37  ASP37       0.2266
      4  O         17.2950  -39.9080   38.1160 O.2    37  ASP37      -0.2867
      5  CB        15.4470  -41.3880   35.7160 C.3    37  ASP37       0.1410
      6  CG        16.8860  -41.8960   35.5220 C.2    37  ASP37       0.3668
      7  OD1       17.4900  -42.4410   36.4790 O.co2  37  ASP37      -0.2456
      8  OD2       17.4120  -41.7540   34.3970 O.co2  37  ASP37      -0.2456
      9  N         19.4060  -39.2960   39.6970 N.3    41  ALA41      -0.1245
     10  CA        20.7540  -39.7200   39.3240 C.3    41  ALA41       0.1562
     11  C         21.6290  -38.5230   39.7200 C.2    41  ALA41       0.2260
     12  O         22.5550  -38.6350   40.5580 O.2    41  ALA41      -0.2867
     13  CB        20.8460  -40.0300   37.8290 C.3    41  ALA41       0.0290
     14  N         21.7230  -46.4640   40.6660 N.3    53  ALA53      -0.1231
     15  CA        21.0240  -46.9820   39.4850 C.3    53  ALA53       0.1694
     16  C         21.3570  -48.4560   39.2640 C.2    53  ALA53       0.2591
     17  O         20.6070  -49.1850   38.6060 O.2    53  ALA53      -0.2718
     18  CB        21.3830  -46.1490   38.2550 C.3    53  ALA53       0.0304
     19  N         22.4830  -48.8710   39.8440 N.am   54  LEU54      -0.1980
     20  CA        22.9100  -50.2740   39.9720 C.3    54  LEU54       0.1596
     21  C         21.8100  -51.2400   40.4750 C.2    54  LEU54       0.2287
     22  O         21.9810  -52.4750   40.4510 O.2    54  LEU54      -0.2864
     23  CB        24.1270  -50.3700   40.9180 C.3    54  LEU54       0.0297
     24  CG        25.0900  -49.2050   41.2100 C.3    54  LEU54       0.0022
     25  CD1       25.8250  -49.4710   42.5190 C.3    54  LEU54       0.0001
     26  CD2       26.0520  -48.9530   40.0540 C.3    54  LEU54       0.0001
     27  N         17.9060  -49.9970   37.7160 N.3    57  SER57      -0.1217
     28  CA        17.9300  -50.3400   36.3070 C.3    57  SER57       0.1889
     29  C         18.0840  -51.8620   36.1480 C.2    57  SER57       0.2288
     30  O         18.3650  -52.3720   35.0570 O.2    57  SER57      -0.2866
     31  CB        18.9720  -49.5140   35.5320 C.3    57  SER57       0.2089
     32  OG        18.3770  -48.3350   34.9750 O.3    57  SER57      -0.2183
     33  N         13.9110  -51.9440   37.2560 N.3    60  ALA60      -0.1245
     34  CA        13.0560  -51.4660   36.1550 C.3    60  ALA60       0.1562
     35  C         13.0170  -52.4450   34.9740 C.2    60  ALA60       0.2260
     36  O         12.6780  -52.0880   33.8330 O.2    60  ALA60      -0.2867
     37  CB        13.4910  -50.0710   35.7170 C.3    60  ALA60       0.0290
     38  N         32.1330  -52.1070   36.9900 N.3   125  SER125     -0.1202
     39  CA        30.9320  -51.3920   36.5430 C.3   125  SER125      0.2020
     40  C         29.7330  -52.3360   36.6630 C.2   125  SER125      0.2618
     41  O         28.5860  -51.8890   36.7220 O.2   125  SER125     -0.2717
     42  CB        31.0940  -50.8540   35.1070 C.3   125  SER125      0.2103
     43  OG        29.9470  -50.1460   34.6640 O.3   125  SER125     -0.2182
     44  N         30.0290  -53.6400   36.7350 N.am  126  ASP126     -0.1973
     45  CA        29.0410  -54.7280   36.6890 C.3   126  ASP126      0.1709
     46  C         29.5060  -56.0530   37.3680 C.2   126  ASP126      0.2293
     47  O         29.3840  -57.1250   36.7530 O.2   126  ASP126     -0.2864
     48  CB        28.6500  -55.0270   35.2220 C.3   126  ASP126      0.1436
     49  CG        27.7260  -53.9710   34.6100 C.2   126  ASP126      0.3671
     50  OD1       26.5290  -53.9170   34.9850 O.co2 126  ASP126     -0.2456
     51  OD2       28.1940  -53.2170   33.7240 O.co2 126  ASP126     -0.2456
     52  N         14.3220  -55.3840   24.2500 N.3   257  GLU257     -0.1245
     53  CA        15.2310  -54.4750   24.9440 C.3   257  GLU257      0.1567
     54  C         15.7560  -55.0660   26.2620 C.2   257  GLU257      0.2260
     55  O         16.6000  -54.4610   26.9320 O.2   257  GLU257     -0.2867
     56  CB        14.5670  -53.1040   25.1680 C.3   257  GLU257      0.0388
     57  CG        15.3240  -52.2010   26.1450 C.3   257  GLU257      0.1160
     58  CD        15.2830  -50.7210   25.7980 C.2   257  GLU257      0.3649
     59  OE1       14.4020  -50.3010   25.0180 O.co2 257  GLU257     -0.2457
     60  OE2       16.1380  -49.9650   26.3160 O.co2 257  GLU257     -0.2457
     61  N         20.3770  -55.2790   26.3570 N.3   261  PHE261     -0.1241
     62  CA        20.5920  -54.9870   27.7880 C.3   261  PHE261      0.1605
     63  C         21.9350  -55.6630   28.0880 C.2   261  PHE261      0.2264
     64  O         22.9050  -54.9950   28.4550 O.2   261  PHE261     -0.2867
     65  CB        19.4520  -55.6740   28.5930 C.3   261  PHE261      0.0534
     66  CG        19.1220  -55.0760   29.9730 C.ar  261  PHE261     -0.0203
     67  CD1       19.3650  -55.8230   31.1340 C.ar  261  PHE261     -0.0042
     68  CD2       18.4540  -53.8370   30.1170 C.ar  261  PHE261     -0.0042
     69  CE1       19.0220  -55.3220   32.3950 C.ar  261  PHE261     -0.0003
     70  CE2       18.1090  -53.3440   31.3790 C.ar  261  PHE261     -0.0003
     71  CZ        18.3970  -54.0860   32.5150 C.ar  261  PHE261     -0.0000
     72  N         24.2640  -54.6290   24.8380 N.3   264  ILE264     -0.1231
     73  CA        24.7780  -53.2540   24.9330 C.3   264  ILE264      0.1692
     74  C         25.8150  -53.1060   26.0600 C.2   264  ILE264      0.2591
     75  O         26.7180  -52.2640   25.9850 O.2   264  ILE264     -0.2718
     76  CB        23.6260  -52.2010   25.0470 C.3   264  ILE264      0.0266
     77  CG1       22.7540  -52.4210   26.2970 C.3   264  ILE264      0.0019
     78  CG2       22.7470  -52.2060   23.7960 C.3   264  ILE264      0.0020
     79  CD1       22.7010  -51.2710   27.2880 C.3   264  ILE264      0.0001
     80  N         25.6760  -53.9450   27.0870 N.am  265  VAL265     -0.1980
     81  CA        26.6050  -53.9940   28.2200 C.3   265  VAL265      0.1595
     82  C         27.2880  -55.3750   28.2870 C.2   265  VAL265      0.2287
     83  O         27.2350  -56.0680   29.3090 O.2   265  VAL265     -0.2864
     84  CB        25.9120  -53.6180   29.5670 C.3   265  VAL265      0.0276
     85  CG1       26.9040  -53.5970   30.7230 C.3   265  VAL265      0.0022
     86  CG2       25.2320  -52.2590   29.4740 C.3   265  VAL265      0.0022
     87  N         27.0010  -46.0900   25.5400 N.3   280  GLN280     -0.1245
     88  CA        25.8100  -45.8620   26.3290 C.3   280  GLN280      0.1566
     89  C         25.4210  -44.3790   26.5930 C.2   280  GLN280      0.2260
     90  O         24.3680  -44.1320   27.1720 O.2   280  GLN280     -0.2867
     91  CB        25.9150  -46.6550   27.6360 C.3   280  GLN280      0.0367
     92  CG        24.6010  -47.2760   28.1020 C.3   280  GLN280      0.0905
     93  CD        24.6070  -47.7220   29.5640 C.2   280  GLN280      0.2608
     94  OE1       25.5880  -47.5340   30.2920 O.2   280  GLN280     -0.2717
     95  NE2       23.4970  -48.3200   29.9980 N.am  280  GLN280     -0.0878
     96  N         21.6510  -44.2220   25.4580 N.3   284  SER284     -0.1217
     97  CA        20.7430  -43.6830   26.4580 C.3   284  SER284      0.1889
     98  C         20.0040  -42.5250   25.8170 C.2   284  SER284      0.2288
     99  O         18.8320  -42.2990   26.0980 O.2   284  SER284     -0.2866
    100  CB        21.4890  -43.2000   27.7010 C.3   284  SER284      0.2089
    101  OG        21.7230  -44.2790   28.5850 O.3   284  SER284     -0.2183
    102  N         16.0340  -41.8690   25.4870 N.3   288  ILE288     -0.1245
    103  CA        15.5700  -40.5510   26.0090 C.3   288  ILE288      0.1561
    104  C         14.7060  -39.7770   25.0050 C.2   288  ILE288      0.2260
    105  O         13.6240  -39.3030   25.3560 O.2   288  ILE288     -0.2867
    106  CB        16.6610  -39.6470   26.6980 C.3   288  ILE288      0.0252
    107  CG1       17.4710  -38.7970   25.7020 C.3   288  ILE288      0.0019
    108  CG2       17.5180  -40.4300   27.6930 C.3   288  ILE288      0.0019
    109  CD1       17.1630  -37.3090   25.7650 C.3   288  ILE288      0.0001
    110  N         23.4710  -38.1090   33.1090 N.3   351  ASP351     -0.1225
    111  CA        22.9240  -39.4790   33.2430 C.3   351  ASP351      0.1805
    112  C         23.9490  -40.6160   33.4120 C.2   351  ASP351      0.2597
    113  O         23.6360  -41.6510   34.0060 O.2   351  ASP351     -0.2718
    114  CB        21.9650  -39.7860   32.0850 C.3   351  ASP351      0.1424
    115  CG        20.8600  -40.7560   32.4730 C.2   351  ASP351      0.3668
    116  OD1       20.7900  -41.1650   33.6550 O.co2 351  ASP351     -0.2456
    117  OD2       20.0510  -41.1030   31.5850 O.co2 351  ASP351     -0.2456
    118  N         25.1490  -40.4160   32.8670 N.am  352  ASP352     -0.1974
    119  CA        26.3210  -41.2660   33.1060 C.3   352  ASP352      0.1709
    120  C         27.5750  -40.4560   32.7710 C.2   352  ASP352      0.2293
    121  O         27.8960  -40.2850   31.5920 O.2   352  ASP352     -0.2864
    122  CB        26.2790  -42.5450   32.2580 C.3   352  ASP352      0.1436
    123  CG        25.5350  -43.6800   32.9380 C.2   352  ASP352      0.3671
    124  OD1       24.6480  -44.2710   32.2950 O.co2 352  ASP352     -0.2456
    125  OD2       25.8310  -43.9860   34.1130 O.co2 352  ASP352     -0.2456
@<TRIPOS>BOND
     1    78    76    1
     2    52    53    1
     3    72    73    1
     4    73    76    1
     5    73    74    1
     6    53    56    1
     7    53    54    1
     8   104   105    2
     9   104   103    1
    10    59    58   ar
    11    76    77    1
    12    56    57    1
    13    96    97    1
    14   102   103    1
    15    87    88    1
    16   107   109    1
    17   107   106    1
    18    58    57    1
    19    58    60   ar
    20    98    99    2
    21    98    97    1
    22    75    74    2
    23   103   106    1
    24    74    80   am
    25    54    55    2
    26    77    79    1
    27    88    89    1
    28    88    91    1
    29    61    62    1
    30    97   100    1
    31    89    90    2
    32   106   108    1
    33    80    81    1
    34    91    92    1
    35   100   101    1
    36    62    63    1
    37    62    65    1
    38    63    64    2
    39    92    93    1
    40    81    82    1
    41    81    84    1
    42    82    83    2
    43    65    66    1
    44    86    84    1
    45    93    95   am
    46    93    94    2
    47    84    85    1
    48    66    68   ar
    49    66    67   ar
    50    68    70   ar
    51    67    69   ar
    52    70    71   ar
    53   117   115   ar
    54   121   120    2
    55   114   115    1
    56   114   111    1
    57   122   123    1
    58   122   119    1
    59   124   123   ar
    60    69    71   ar
    61   115   116   ar
    62   120   119    1
    63   118   119    1
    64   118   112   am
    65   123   125   ar
    66   110   111    1
    67   111   112    1
    68   112   113    2
    69    51    49   ar
    70    36    35    2
    71     8     6   ar
    72    49    50   ar
    73    49    48    1
    74    43    42    1
    75    35    34    1
    76    32    31    1
    77    30    29    2
    78    42    39    1
    79    48    45    1
    80     6     5    1
    81     6     7   ar
    82    31    28    1
    83     5     2    1
    84    37    34    1
    85    29    28    1
    86    34    33    1
    87    28    27    1
    88    39    40    1
    89    39    38    1
    90    40    41    2
    91    40    44   am
    92    45    44    1
    93    45    46    1
    94    47    46    2
    95     1     2    1
    96     2     3    1
    97     3     4    2
    98    13    10    1
    99    18    15    1
   100    17    16    2
   101    16    15    1
   102    16    19   am
   103    10     9    1
   104    10    11    1
   105    15    14    1
   106    11    12    2
   107    19    20    1
   108    20    21    1
   109    20    23    1
   110    26    24    1
   111    22    21    2
   112    23    24    1
   113    24    25    1
