@<TRIPOS>MOLECULE
tmp/4hunA00.pdb
 144 134 0 0 0
SMALL
GASTEIGER

@<TRIPOS>ATOM
      1  N          9.6560  -39.4810   32.4260 N.3    34  GLY34      -0.1225
      2  CA        10.9740  -39.7820   31.8950 C.3    34  GLY34       0.1811
      3  C         12.0040  -38.9310   32.5980 C.2    34  GLY34       0.2280
      4  O         13.1600  -39.3390   32.7140 O.2    34  GLY34      -0.2866
      5  N         13.6710  -39.0070   37.0160 N.3    37  ASP37      -0.1239
      6  CA        14.9310  -39.6900   36.7220 C.3    37  ASP37       0.1674
      7  C         16.2020  -38.8410   36.8230 C.2    37  ASP37       0.2266
      8  O         16.9940  -39.0480   37.7380 O.2    37  ASP37      -0.2867
      9  CB        14.8390  -40.3530   35.3410 C.3    37  ASP37       0.1410
     10  CG        16.1340  -41.0490   34.9250 C.2    37  ASP37       0.3668
     11  OD1       16.8450  -41.6050   35.8010 O.co2  37  ASP37      -0.2456
     12  OD2       16.4320  -41.0430   33.7050 O.co2  37  ASP37      -0.2456
     13  N         25.9420  -43.1870   42.6850 N.3    51  ALA51      -0.1245
     14  CA        25.4770  -43.8530   41.5040 C.3    51  ALA51       0.1562
     15  C         24.5020  -44.8000   42.1900 C.2    51  ALA51       0.2260
     16  O         24.8630  -45.6010   43.0690 O.2    51  ALA51      -0.2867
     17  CB        26.5820  -44.6130   40.8020 C.3    51  ALA51       0.0290
     18  N         21.4500  -45.4850   40.1480 N.3    53  ALA53      -0.1231
     19  CA        20.8880  -46.0810   38.9270 C.3    53  ALA53       0.1694
     20  C         21.1990  -47.5810   38.8600 C.2    53  ALA53       0.2591
     21  O         20.5000  -48.3690   38.1940 O.2    53  ALA53      -0.2718
     22  CB        21.4130  -45.3470   37.6950 C.3    53  ALA53       0.0304
     23  N         22.2440  -47.9310   39.6090 N.am   54  LEU54      -0.1980
     24  CA        22.7500  -49.2850   39.8520 C.3    54  LEU54       0.1596
     25  C         21.7110  -50.3190   40.3590 C.2    54  LEU54       0.2287
     26  O         21.9530  -51.5470   40.3510 O.2    54  LEU54      -0.2864
     27  CB        23.9150  -49.1760   40.8480 C.3    54  LEU54       0.0297
     28  CG        24.7120  -47.8540   40.9260 C.3    54  LEU54       0.0022
     29  CD1       25.4810  -47.8060   42.2320 C.3    54  LEU54       0.0001
     30  CD2       25.6530  -47.5950   39.7480 C.3    54  LEU54       0.0001
     31  N         17.9390  -48.7650   37.5500 N.3    57  SER57      -0.1202
     32  CA        17.6840  -49.2390   36.1860 C.3    57  SER57       0.2020
     33  C         17.7910  -50.7640   36.0680 C.2    57  SER57       0.2618
     34  O         17.6210  -51.3380   34.9800 O.2    57  SER57      -0.2717
     35  CB        18.4970  -48.4820   35.1170 C.3    57  SER57       0.2103
     36  OG        17.7820  -48.4340   33.8740 O.3    57  SER57      -0.2182
     37  N         18.0510  -51.4160   37.1950 N.am   58  ALA58      -0.1979
     38  CA        17.8970  -52.8520   37.2520 C.3    58  ALA58       0.1597
     39  C         16.6270  -53.2000   38.0290 C.2    58  ALA58       0.2287
     40  O         16.2680  -54.3750   38.1290 O.2    58  ALA58      -0.2864
     41  CB        19.1260  -53.5090   37.8450 C.3    58  ALA58       0.0319
     42  N         32.1660  -51.7030   37.8320 N.3   125  SER125     -0.1202
     43  CA        30.8890  -50.9310   37.7910 C.3   125  SER125      0.2020
     44  C         29.7090  -51.6440   37.0900 C.2   125  SER125      0.2618
     45  O         28.6600  -51.0330   36.8400 O.2   125  SER125     -0.2717
     46  CB        31.0770  -49.4960   37.2630 C.3   125  SER125      0.2103
     47  OG        29.8970  -48.7160   37.4380 O.3   125  SER125     -0.2182
     48  N         29.9100  -52.9280   36.7780 N.am  126  ASP126     -0.1973
     49  CA        28.8510  -53.8640   36.3570 C.3   126  ASP126      0.1709
     50  C         29.0790  -55.2730   37.0110 C.2   126  ASP126      0.2293
     51  O         28.8210  -56.3210   36.3920 O.2   126  ASP126     -0.2864
     52  CB        28.7110  -53.9220   34.8100 C.3   126  ASP126      0.1436
     53  CG        27.8980  -52.7360   34.2140 C.2   126  ASP126      0.3671
     54  OD1       26.7220  -52.5210   34.5930 O.co2 126  ASP126     -0.2456
     55  OD2       28.4300  -52.0350   33.3240 O.co2 126  ASP126     -0.2456
     56  N         18.4950  -55.6350   24.2940 N.3   260  ALA260     -0.1231
     57  CA        19.0740  -54.3540   23.7890 C.3   260  ALA260      0.1694
     58  C         19.5110  -53.5820   25.0180 C.2   260  ALA260      0.2592
     59  O         19.5070  -52.3400   25.0170 O.2   260  ALA260     -0.2718
     60  CB        18.0780  -53.5320   22.9620 C.3   260  ALA260      0.0304
     61  N         19.9000  -54.3990   26.0200 N.am  261  PHE261     -0.1976
     62  CA        20.1540  -54.1460   27.4590 C.3   261  PHE261      0.1639
     63  C         21.4830  -54.8910   27.7320 C.2   261  PHE261      0.2290
     64  O         22.4000  -54.3200   28.3160 O.2   261  PHE261     -0.2864
     65  CB        18.9980  -54.7710   28.3100 C.3   261  PHE261      0.0560
     66  CG        18.8060  -54.2180   29.7490 C.ar  261  PHE261     -0.0200
     67  CD1       19.2090  -54.9700   30.8700 C.ar  261  PHE261     -0.0042
     68  CD2       18.0990  -53.0130   29.9910 C.ar  261  PHE261     -0.0042
     69  CE1       18.9850  -54.5010   32.1690 C.ar  261  PHE261     -0.0003
     70  CE2       17.8740  -52.5470   31.2910 C.ar  261  PHE261     -0.0003
     71  CZ        18.3210  -53.2930   32.3770 C.ar  261  PHE261     -0.0000
     72  N         24.0960  -54.1840   24.2700 N.3   264  ILE264     -0.1231
     73  CA        24.5950  -52.8120   24.3780 C.3   264  ILE264      0.1692
     74  C         25.5020  -52.6120   25.6080 C.2   264  ILE264      0.2591
     75  O         26.5250  -51.9200   25.5280 O.2   264  ILE264     -0.2718
     76  CB        23.4210  -51.7780   24.3420 C.3   264  ILE264      0.0266
     77  CG1       22.5180  -51.9110   25.5780 C.3   264  ILE264      0.0019
     78  CG2       22.5980  -51.9180   23.0580 C.3   264  ILE264      0.0020
     79  CD1       21.6160  -50.7160   25.8410 C.3   264  ILE264      0.0001
     80  N         25.1240  -53.2310   26.7300 N.am  265  VAL265     -0.1980
     81  CA        25.9410  -53.2240   27.9510 C.3   265  VAL265      0.1595
     82  C         26.6920  -54.5660   28.0800 C.2   265  VAL265      0.2287
     83  O         26.8560  -55.1090   29.1780 O.2   265  VAL265     -0.2864
     84  CB        25.1230  -52.8470   29.2330 C.3   265  VAL265      0.0276
     85  CG1       26.0330  -52.5330   30.4230 C.3   265  VAL265      0.0022
     86  CG2       24.2160  -51.6480   28.9720 C.3   265  VAL265      0.0022
     87  N         25.9520  -44.5580   25.4500 N.3   280  GLN280     -0.1245
     88  CA        24.9450  -44.4790   26.5250 C.3   280  GLN280      0.1566
     89  C         24.5710  -43.0420   26.9480 C.2   280  GLN280      0.2260
     90  O         23.5110  -42.8360   27.5370 O.2   280  GLN280     -0.2867
     91  CB        25.3270  -45.3440   27.7420 C.3   280  GLN280      0.0367
     92  CG        24.7950  -46.7790   27.6460 C.3   280  GLN280      0.0905
     93  CD        25.2590  -47.6770   28.7790 C.2   280  GLN280      0.2608
     94  OE1       24.9570  -47.4330   29.9520 O.2   280  GLN280     -0.2717
     95  NE2       25.9840  -48.7390   28.4290 N.am  280  GLN280     -0.0878
     96  N         23.0000  -43.8450   23.2960 N.3   283  ILE283     -0.1231
     97  CA        21.7220  -44.5900   23.1990 C.3   283  ILE283      0.1692
     98  C         20.7440  -44.3420   24.3470 C.2   283  ILE283      0.2592
     99  O         19.6010  -44.8000   24.3000 O.2   283  ILE283     -0.2718
    100  CB        21.9300  -46.1140   23.0580 C.3   283  ILE283      0.0266
    101  CG1       22.4300  -46.7200   24.3810 C.3   283  ILE283      0.0019
    102  CG2       22.8450  -46.4090   21.8760 C.3   283  ILE283      0.0020
    103  CD1       22.1100  -48.1850   24.5570 C.3   283  ILE283      0.0001
    104  N         21.2030  -43.6540   25.3880 N.am  284  SER284     -0.1952
    105  CA        20.2830  -43.0860   26.3650 C.3   284  SER284      0.1924
    106  C         19.6850  -41.8140   25.7760 C.2   284  SER284      0.2314
    107  O         18.7170  -41.2830   26.3250 O.2   284  SER284     -0.2863
    108  CB        20.9500  -42.8030   27.7210 C.3   284  SER284      0.2116
    109  OG        20.7790  -43.8820   28.6330 O.3   284  SER284     -0.2180
    110  N         16.6150  -43.6820   23.4710 N.3   287  GLY287     -0.1210
    111  CA        15.6840  -43.6180   24.5880 C.3   287  GLY287      0.1956
    112  C         15.0860  -42.2360   24.7770 C.2   287  GLY287      0.2611
    113  O         13.8730  -42.0980   24.6430 O.2   287  GLY287     -0.2717
    114  N         15.9240  -41.2090   25.0340 N.am  288  ILE288     -0.1979
    115  CA        15.4100  -39.8700   25.4300 C.3   288  ILE288      0.1595
    116  C         14.3390  -39.3120   24.5010 C.2   288  ILE288      0.2287
    117  O         13.1850  -39.1540   24.8980 O.2   288  ILE288     -0.2864
    118  CB        16.4800  -38.7520   25.7270 C.3   288  ILE288      0.0276
    119  CG1       17.1050  -38.1450   24.4530 C.3   288  ILE288      0.0022
    120  CG2       17.4900  -39.1810   26.7870 C.3   288  ILE288      0.0022
    121  CD1       17.3200  -36.6350   24.5400 C.3   288  ILE288      0.0001
    122  N         22.7230  -37.8830   33.2380 N.3   351  ASP351     -0.1225
    123  CA        22.1170  -39.2350   33.1830 C.3   351  ASP351      0.1805
    124  C         23.1110  -40.4140   33.0690 C.2   351  ASP351      0.2598
    125  O         22.7330  -41.5810   33.2400 O.2   351  ASP351     -0.2718
    126  CB        21.0830  -39.2860   32.0420 C.3   351  ASP351      0.1424
    127  CG        20.0880  -40.4360   32.1800 C.2   351  ASP351      0.3668
    128  OD1       20.0600  -41.1010   33.2400 O.co2 351  ASP351     -0.2456
    129  OD2       19.3180  -40.6680   31.2180 O.co2 351  ASP351     -0.2456
    130  N         24.3740  -40.0940   32.7850 N.am  352  ASP352     -0.1960
    131  CA        25.4530  -41.0740   32.6770 C.3   352  ASP352      0.1825
    132  C         26.7760  -40.2980   32.7150 C.2   352  ASP352      0.2464
    133  O         27.0460  -39.5110   31.7940 O.2   352  ASP352     -0.2730
    134  CB        25.3270  -41.8490   31.3580 C.3   352  ASP352      0.1450
    135  CG        25.4450  -43.3510   31.5510 C.2   352  ASP352      0.3671
    136  OD1       26.2970  -43.7910   32.3630 O.co2 352  ASP352     -0.2456
    137  OD2       24.6940  -44.1010   30.8800 O.co2 352  ASP352     -0.2456
    138  N         27.6090  -40.5160   33.7660 N.am  353  PRO353     -0.2727
    139  CA        28.7220  -39.5900   34.0600 C.3   353  PRO353      0.1402
    140  C         29.9260  -39.6180   33.0870 C.2   353  PRO353      0.2269
    141  O         30.9960  -40.1120   33.4620 O.2   353  PRO353     -0.2865
    142  CB        29.1700  -40.0040   35.4800 C.3   353  PRO353      0.0296
    143  CG        28.3690  -41.2300   35.8580 C.3   353  PRO353      0.0237
    144  CD        27.6610  -41.7210   34.6270 C.3   353  PRO353      0.0939
@<TRIPOS>BOND
     1   102   100    1
     2    60    57    1
     3   100    97    1
     4   100   101    1
     5    78    76    1
     6    97    96    1
     7    97    98    1
     8   110   111    1
     9    57    56    1
    10    57    58    1
    11    72    73    1
    12    99    98    2
    13    76    73    1
    14    76    77    1
    15    98   104   am
    16    73    74    1
    17   101   103    1
    18   119   121    1
    19   119   118    1
    20   116   117    2
    21   116   115    1
    22   111   112    1
    23   113   112    2
    24   112   114   am
    25    59    58    2
    26    58    61   am
    27   114   115    1
    28   104   105    1
    29   115   118    1
    30    87    88    1
    31    75    74    2
    32    77    79    1
    33    74    80   am
    34   118   120    1
    35   106   107    2
    36   106   105    1
    37    61    62    1
    38   105   108    1
    39    88    89    1
    40    88    91    1
    41    80    81    1
    42    89    90    2
    43    62    63    1
    44    62    65    1
    45    92    91    1
    46    92    93    1
    47   108   109    1
    48    63    64    2
    49    81    82    1
    50    81    84    1
    51    82    83    2
    52    65    66    1
    53    95    93   am
    54    93    94    2
    55    86    84    1
    56    84    85    1
    57    66    68   ar
    58    66    67   ar
    59    68    70   ar
    60    67    69   ar
    61   137   135   ar
    62   129   127   ar
    63    70    71   ar
    64   134   135    1
    65   134   131    1
    66   135   136   ar
    67   133   132    2
    68     2     1    1
    69     2     3    1
    70   126   127    1
    71   126   123    1
    72    69    71   ar
    73   127   128   ar
    74     3     4    2
    75   131   132    1
    76   131   130    1
    77   132   138   am
    78   130   124   am
    79   124   123    1
    80   124   125    2
    81   140   141    2
    82   140   139    1
    83   123   122    1
    84    55    53   ar
    85    12    10   ar
    86   138   139    1
    87   138   144    1
    88    36    35    1
    89   139   142    1
    90    53    54   ar
    91    53    52    1
    92   144   143    1
    93    52    49    1
    94    10     9    1
    95    10    11   ar
    96    34    33    2
    97    35    32    1
    98     9     6    1
    99   142   143    1
   100    33    32    1
   101    33    37   am
   102    32    31    1
   103    49    48    1
   104    49    50    1
   105    51    50    2
   106     6     7    1
   107     6     5    1
   108    48    44   am
   109     7     8    2
   110    45    44    2
   111    44    43    1
   112    37    38    1
   113    38    41    1
   114    38    39    1
   115    46    47    1
   116    46    43    1
   117    22    19    1
   118    43    42    1
   119    39    40    2
   120    21    20    2
   121    20    19    1
   122    20    23   am
   123    19    18    1
   124    23    24    1
   125    30    28    1
   126    24    25    1
   127    24    27    1
   128    26    25    2
   129    17    14    1
   130    27    28    1
   131    28    29    1
   132    14    15    1
   133    14    13    1
   134    15    16    2
