@<TRIPOS>MOLECULE
tmp/4huoA00.pdb
 168 161 0 0 0
SMALL
GASTEIGER

@<TRIPOS>ATOM
      1  N          8.8890  -30.0740  -15.2600 N.3    74  ASN74      -0.1240
      2  CA         9.2340  -28.6120  -15.0610 C.3    74  ASN74       0.1653
      3  C         10.5010  -28.4800  -14.2280 C.2    74  ASN74       0.2266
      4  O         10.8700  -27.3620  -13.9070 O.2    74  ASN74      -0.2867
      5  CB         8.0600  -27.8550  -14.4070 C.3    74  ASN74       0.1155
      6  CG         7.5840  -28.5280  -13.1230 C.2    74  ASN74       0.2627
      7  OD1        8.1730  -29.5100  -12.6220 O.2    74  ASN74      -0.2716
      8  ND2        6.3650  -28.1210  -12.6700 N.am   74  ASN74      -0.0877
      9  N         10.7680  -29.0600  -11.1810 N.3    76  TYR76      -0.1227
     10  CA        10.3600  -28.4450   -9.8960 C.3    76  TYR76       0.1736
     11  C         10.5530  -29.3680   -8.7370 C.2    76  TYR76       0.2595
     12  O         10.3970  -30.5910   -8.8200 O.2    76  TYR76      -0.2718
     13  CB         8.8680  -28.1690  -10.0410 C.3    76  TYR76       0.0548
     14  CG         8.2880  -27.2230   -9.0530 C.ar   76  TYR76      -0.0200
     15  CD1        7.8460  -27.6870   -7.8250 C.ar   76  TYR76      -0.0009
     16  CD2        8.1550  -25.9410   -9.3620 C.ar   76  TYR76      -0.0009
     17  CE1        7.2980  -26.8260   -6.9150 C.ar   76  TYR76       0.0417
     18  CE2        7.6240  -25.0410   -8.4910 C.ar   76  TYR76       0.0417
     19  CZ         7.2250  -25.5080   -7.2400 C.ar   76  TYR76       0.1957
     20  OH         6.6310  -24.6840   -6.2890 O.3    76  TYR76      -0.2866
     21  N         11.1250  -28.8370   -7.6450 N.am   77  VAL77      -0.1980
     22  CA        11.3800  -29.6360   -6.4300 C.3    77  VAL77       0.1595
     23  C         10.0340  -29.7600   -5.7260 C.2    77  VAL77       0.2287
     24  O          9.5140  -28.7670   -5.1850 O.2    77  VAL77      -0.2864
     25  CB        12.3520  -28.9220   -5.4940 C.3    77  VAL77       0.0276
     26  CG1       12.5400  -29.7660   -4.1840 C.3    77  VAL77       0.0022
     27  CG2       13.7440  -28.7000   -6.2330 C.3    77  VAL77       0.0022
     28  N          5.5350  -30.0550   -0.8220 N.3    89  PHE89      -0.1241
     29  CA         4.8880  -28.8020   -0.9080 C.3    89  PHE89       0.1605
     30  C          3.3900  -29.0670   -1.2650 C.2    89  PHE89       0.2264
     31  O          3.0730  -30.1520   -1.7980 O.2    89  PHE89      -0.2867
     32  CB         5.5280  -27.8300   -1.9220 C.3    89  PHE89       0.0534
     33  CG         6.9240  -27.5190   -1.6250 C.ar   89  PHE89      -0.0203
     34  CD1        7.1970  -26.7310   -0.5020 C.ar   89  PHE89      -0.0042
     35  CD2        7.9640  -28.0290   -2.3710 C.ar   89  PHE89      -0.0042
     36  CE1        8.4980  -26.3870   -0.1630 C.ar   89  PHE89      -0.0003
     37  CE2        9.2990  -27.6890   -2.0630 C.ar   89  PHE89      -0.0003
     38  CZ         9.5770  -26.8780   -0.9300 C.ar   89  PHE89      -0.0000
     39  N          5.3080  -24.3770   -2.8860 N.3   117  GLY117     -0.1210
     40  CA         6.7910  -24.3270   -2.9310 C.3   117  GLY117      0.1956
     41  C          7.2780  -23.2380   -3.8650 C.2   117  GLY117      0.2612
     42  O          8.5230  -23.2170   -4.0940 O.2   117  GLY117     -0.2717
     43  N          6.4680  -22.2940   -4.3430 N.am  118  ASN118     -0.1960
     44  CA         6.9860  -21.2070   -5.1830 C.3   118  ASN118      0.1819
     45  C          7.8660  -20.2100   -4.4310 C.2   118  ASN118      0.2621
     46  O          7.7420  -20.0610   -3.1750 O.2   118  ASN118     -0.2715
     47  CB         5.9000  -20.4860   -5.9700 C.3   118  ASN118      0.1195
     48  CG         5.2790  -21.3150   -7.0490 C.2   118  ASN118      0.2630
     49  OD1        5.7710  -22.3830   -7.4330 O.2   118  ASN118     -0.2716
     50  ND2        4.1380  -20.8220   -7.5600 N.am  118  ASN118     -0.0877
     51  N          8.7680  -19.5680   -5.1470 N.am  119  TYR119     -0.1960
     52  CA         9.6700  -18.6090   -4.4990 C.3   119  TYR119      0.1771
     53  C          8.9160  -17.5530   -3.6840 C.2   119  TYR119      0.2619
     54  O          9.3730  -17.2390   -2.6060 O.2   119  TYR119     -0.2715
     55  CB        10.5970  -17.8610   -5.4390 C.3   119  TYR119      0.0574
     56  CG        11.5870  -18.6860   -6.1910 C.ar  119  TYR119     -0.0198
     57  CD1       12.4550  -19.5880   -5.5120 C.ar  119  TYR119     -0.0009
     58  CD2       11.7620  -18.4610   -7.5830 C.ar  119  TYR119     -0.0009
     59  CE1       13.4280  -20.3400   -6.2200 C.ar  119  TYR119      0.0417
     60  CE2       12.7680  -19.1920   -8.2850 C.ar  119  TYR119      0.0417
     61  CZ        13.5150  -20.1490   -7.5680 C.ar  119  TYR119      0.1957
     62  OH        14.4900  -20.8000   -8.2410 O.3   119  TYR119     -0.2866
     63  N          7.8120  -17.0130   -4.2040 N.am  120  ASP120     -0.1971
     64  CA         7.1750  -15.8950   -3.4690 C.3   120  ASP120      0.1709
     65  C          6.7940  -16.3750   -2.0300 C.2   120  ASP120      0.2293
     66  O          7.0680  -15.6650   -1.0380 O.2   120  ASP120     -0.2864
     67  CB         5.9120  -15.4070   -4.2210 C.3   120  ASP120      0.1436
     68  CG         5.3300  -14.1260   -3.6270 C.2   120  ASP120      0.3671
     69  OD1        5.8590  -13.5840   -2.6160 O.co2 120  ASP120     -0.2456
     70  OD2        4.2930  -13.6360   -4.1880 O.co2 120  ASP120     -0.2456
     71  N         15.1170  -13.7560   -2.6570 N.3   130  ARG130     -0.1245
     72  CA        16.2530  -14.3720   -3.3740 C.3   130  ARG130      0.1563
     73  C         17.4580  -13.4790   -3.4580 C.2   130  ARG130      0.2260
     74  O         18.6240  -13.9020   -3.2850 O.2   130  ARG130     -0.2867
     75  CB        15.8200  -14.8040   -4.7860 C.3   130  ARG130      0.0307
     76  CG        15.1660  -16.1270   -4.7310 C.3   130  ARG130      0.0489
     77  CD        14.5750  -16.4180   -6.1440 C.3   130  ARG130      0.2205
     78  NE        13.3620  -15.5700   -6.3890 N.pl3 130  ARG130     -0.0865
     79  CZ        12.8410  -15.2780   -7.5570 C.cat 130  ARG130      0.5346
     80  NH1       13.3900  -15.7510   -8.7030 N.pl3 130  ARG130      0.1354
     81  NH2       11.6800  -14.6040   -7.6050 N.pl3 130  ARG130      0.1354
     82  N         16.7990  -25.1300   -4.6320 N.3   168  ILE168     -0.1245
     83  CA        16.0970  -25.0090   -5.9310 C.3   168  ILE168      0.1561
     84  C         17.0230  -24.3010   -6.9120 C.2   168  ILE168      0.2260
     85  O         17.1110  -24.6980   -8.0700 O.2   168  ILE168     -0.2867
     86  CB        14.7990  -24.3060   -5.7030 C.3   168  ILE168      0.0252
     87  CG1       13.8190  -25.1160   -4.7950 C.3   168  ILE168      0.0019
     88  CG2       14.0780  -23.8300   -7.0400 C.3   168  ILE168      0.0019
     89  CD1       12.6690  -24.1740   -4.1420 C.3   168  ILE168      0.0001
     90  N         17.5800  -27.0330   -9.5930 N.3   172  SER172     -0.1202
     91  CA        16.6480  -26.8750  -10.6850 C.3   172  SER172      0.2020
     92  C         16.9990  -25.7230  -11.6100 C.2   172  SER172      0.2618
     93  O         16.9140  -25.8390  -12.8570 O.2   172  SER172     -0.2717
     94  CB        15.2040  -26.6790  -10.1380 C.3   172  SER172      0.2103
     95  OG        14.9400  -27.7670   -9.2720 O.3   172  SER172     -0.2182
     96  N         17.2960  -24.5400  -11.0790 N.am  173  GLU173     -0.1979
     97  CA        17.6170  -23.4140  -11.9550 C.3   173  GLU173      0.1602
     98  C         18.8820  -23.6220  -12.7410 C.2   173  GLU173      0.2287
     99  O         18.9780  -23.2120  -13.9550 O.2   173  GLU173     -0.2864
    100  CB        17.6950  -22.0470  -11.2060 C.3   173  GLU173      0.0415
    101  CG        16.4260  -21.7160  -10.4800 C.3   173  GLU173      0.1163
    102  CD        15.2310  -21.3100  -11.3800 C.2   173  GLU173      0.3649
    103  OE1       15.2100  -21.5320  -12.6330 O.co2 173  GLU173     -0.2457
    104  OE2       14.2360  -20.8300  -10.7500 O.co2 173  GLU173     -0.2457
    105  N         17.9630  -25.7940  -15.5790 N.3   176  ARG176     -0.1245
    106  CA        17.1710  -25.0850  -16.5910 C.3   176  ARG176      0.1563
    107  C         18.1090  -24.1630  -17.4690 C.2   176  ARG176      0.2260
    108  O         17.8120  -23.9290  -18.6650 O.2   176  ARG176     -0.2867
    109  CB        16.0750  -24.2850  -15.9240 C.3   176  ARG176      0.0307
    110  CG        14.9230  -25.0940  -15.3780 C.3   176  ARG176      0.0489
    111  CD        14.0910  -24.1810  -14.5320 C.3   176  ARG176      0.2205
    112  NE        13.0910  -24.9770  -13.7870 N.pl3 176  ARG176     -0.0865
    113  CZ        12.6960  -24.7390  -12.5480 C.cat 176  ARG176      0.5346
    114  NH1       13.2470  -23.7250  -11.8560 N.pl3 176  ARG176      0.1354
    115  NH2       11.7820  -25.5510  -11.9800 N.pl3 176  ARG176      0.1354
    116  N         15.4140  -16.6140  -13.9560 N.3   204  GLU204     -0.1231
    117  CA        14.5110  -17.4410  -13.1860 C.3   204  GLU204      0.1699
    118  C         13.0680  -17.0590  -13.3810 C.2   204  GLU204      0.2592
    119  O         12.2460  -17.9020  -13.6530 O.2   204  GLU204     -0.2718
    120  CB        14.8210  -17.4100  -11.6800 C.3   204  GLU204      0.0402
    121  CG        16.2870  -17.8180  -11.3820 C.3   204  GLU204      0.1161
    122  CD        16.6140  -17.7580   -9.9460 C.2   204  GLU204      0.3649
    123  OE1       15.9460  -17.0910   -9.1450 O.co2 204  GLU204     -0.2457
    124  OE2       17.7510  -18.2670   -9.5320 O.co2 204  GLU204     -0.2457
    125  N         12.7890  -15.7450  -13.2510 N.am  205  ASN205     -0.1974
    126  CA        11.3950  -15.3300  -13.2880 C.3   205  ASN205      0.1688
    127  C         10.8440  -15.4400  -14.6810 C.2   205  ASN205      0.2292
    128  O          9.6040  -15.4790  -14.8140 O.2   205  ASN205     -0.2864
    129  CB        11.2880  -13.8590  -12.8260 C.3   205  ASN205      0.1181
    130  CG        11.6120  -13.7370  -11.3350 C.2   205  ASN205      0.2629
    131  OD1       11.4620  -14.7280  -10.5780 O.2   205  ASN205     -0.2716
    132  ND2       11.8850  -12.5160  -10.9160 N.am  205  ASN205     -0.0877
    133  N         11.5680  -17.9050  -17.0210 N.3   207  TRP207     -0.1227
    134  CA        11.7100  -19.1990  -17.6950 C.3   207  TRP207      0.1737
    135  C         10.4610  -19.6020  -18.4600 C.2   207  TRP207      0.2596
    136  O         10.5580  -20.1560  -19.5590 O.2   207  TRP207     -0.2718
    137  CB        12.0680  -20.2730  -16.6700 C.3   207  TRP207      0.0564
    138  CG        12.3580  -21.6310  -17.2960 C.ar  207  TRP207      0.0003
    139  CD1       13.3600  -21.8580  -18.2200 C.ar  207  TRP207      0.0946
    140  CD2       11.8130  -22.8680  -16.9430 C.ar  207  TRP207      0.0152
    141  NE1       13.3610  -23.2280  -18.5290 N.ar  207  TRP207     -0.2442
    142  CE2       12.4080  -23.8290  -17.7420 C.ar  207  TRP207      0.0810
    143  CE3       10.7610  -23.2270  -16.0730 C.ar  207  TRP207      0.0012
    144  CZ2       12.0970  -25.2080  -17.6290 C.ar  207  TRP207      0.0191
    145  CZ3       10.4430  -24.6100  -15.9490 C.ar  207  TRP207      0.0001
    146  CH2       11.0960  -25.5650  -16.7510 C.ar  207  TRP207      0.0015
    147  N          9.3200  -19.4900  -17.8400 N.am  208  GLY208     -0.1957
    148  CA         8.0890  -19.8430  -18.5580 C.3   208  GLY208      0.1869
    149  C          7.8040  -18.9630  -19.7510 C.2   208  GLY208      0.2309
    150  O          7.4020  -19.5290  -20.8220 O.2   208  GLY208     -0.2863
    151  N         10.1910  -25.7660  -20.4680 N.3   252  VAL252     -0.1245
    152  CA         8.9640  -26.4590  -20.1220 C.3   252  VAL252      0.1561
    153  C          8.0690  -26.5300  -21.4110 C.2   252  VAL252      0.2260
    154  O          8.0850  -25.6250  -22.2340 O.2   252  VAL252     -0.2867
    155  CB         8.2250  -25.7270  -18.9270 C.3   252  VAL252      0.0252
    156  CG1        7.9980  -24.2000  -19.2610 C.3   252  VAL252      0.0019
    157  CG2        6.9510  -26.3600  -18.5650 C.3   252  VAL252      0.0019
    158  N          5.2290  -26.0550  -23.7200 N.3   254  ARG254     -0.1245
    159  CA         4.1310  -25.0670  -23.7250 C.3   254  ARG254      0.1563
    160  C          3.2360  -25.2010  -24.9200 C.2   254  ARG254      0.2260
    161  O          2.0270  -24.9710  -24.8080 O.2   254  ARG254     -0.2867
    162  CB         4.6780  -23.6340  -23.7160 C.3   254  ARG254      0.0307
    163  CG         5.4360  -23.2650  -22.4540 C.3   254  ARG254      0.0489
    164  CD         4.3840  -23.0470  -21.4100 C.3   254  ARG254      0.2205
    165  NE         4.7100  -22.5600  -20.0840 N.pl3 254  ARG254     -0.0865
    166  CZ         4.5070  -23.2490  -18.9940 C.cat 254  ARG254      0.5346
    167  NH1        4.0740  -24.5120  -19.0460 N.pl3 254  ARG254      0.1354
    168  NH2        4.8090  -22.6980  -17.8120 N.pl3 254  ARG254      0.1354
@<TRIPOS>BOND
     1   160   161    2
     2   160   159    1
     3   159   158    1
     4   159   162    1
     5   162   163    1
     6   163   164    1
     7   154   153    2
     8   153   152    1
     9   164   165    1
    10   150   149    2
    11   151   152    1
    12   152   155    1
    13   165   166    2
    14   149   148    1
    15   136   135    2
    16   156   155    1
    17   167   166    1
    18   166   168    1
    19   155   157    1
    20   108   107    2
    21   148   147    1
    22   141   139   ar
    23   141   142   ar
    24   135   147   am
    25   135   134    1
    26   139   138   ar
    27   142   144   ar
    28   142   140   ar
    29   134   133    1
    30   134   137    1
    31   144   146   ar
    32   107   106    1
    33   138   140   ar
    34   138   137    1
    35   140   143   ar
    36   146   145   ar
    37   106   109    1
    38   106   105    1
    39   143   145   ar
    40   109   110    1
    41   110   111    1
    42     1     2    1
    43     2     5    1
    44     2     3    1
    45   128   127    2
    46   127   126    1
    47   111   112    1
    48     5     6    1
    49     3     4    2
    50   116   117    1
    51    99    98    2
    52   112   113    2
    53   119   118    2
    54   118   125   am
    55   118   117    1
    56   126   125    1
    57   126   129    1
    58   117   120    1
    59     6     8   am
    60     6     7    2
    61    93    92    2
    62   129   130    1
    63    98    97    1
    64   103   102   ar
    65   113   115    1
    66   113   114    1
    67    97   100    1
    68    97    96    1
    69   120   121    1
    70    92    96   am
    71    92    91    1
    72   121   122    1
    73   102   104   ar
    74   102   101    1
    75   130   132   am
    76   130   131    2
    77   100   101    1
    78     9    10    1
    79    91    94    1
    80    91    90    1
    81    94    95    1
    82    13    10    1
    83    13    14    1
    84   122   124   ar
    85   122   123   ar
    86    10    11    1
    87    16    14   ar
    88    16    18   ar
    89    14    15   ar
    90    12    11    2
    91    11    21   am
    92    80    79    1
    93    18    19   ar
    94    60    58   ar
    95    60    61   ar
    96    62    61    1
    97    85    84    2
    98    15    17   ar
    99    21    22    1
   100    81    79    1
   101    58    56   ar
   102    61    59   ar
   103    50    48   am
   104    79    78    2
   105    49    48    2
   106    19    17   ar
   107    19    20    1
   108    48    47    1
   109    88    86    1
   110    84    83    1
   111    22    23    1
   112    22    25    1
   113    78    77    1
   114    27    25    1
   115    59    57   ar
   116    56    57   ar
   117    56    55    1
   118    77    76    1
   119    47    44    1
   120    83    86    1
   121    83    82    1
   122    23    24    2
   123    86    87    1
   124    25    26    1
   125    55    52    1
   126    44    45    1
   127    44    43    1
   128    51    52    1
   129    51    45   am
   130    87    89    1
   131    75    76    1
   132    75    72    1
   133    52    53    1
   134    45    46    2
   135    43    41   am
   136    67    68    1
   137    67    64    1
   138    63    53   am
   139    63    64    1
   140    70    68   ar
   141    42    41    2
   142    41    40    1
   143    53    54    2
   144    68    69   ar
   145    64    65    1
   146    73    72    1
   147    73    74    2
   148    72    71    1
   149    40    39    1
   150    35    37   ar
   151    35    33   ar
   152    37    38   ar
   153    65    66    2
   154    32    33    1
   155    32    29    1
   156    31    30    2
   157    33    34   ar
   158    30    29    1
   159    38    36   ar
   160    29    28    1
   161    34    36   ar
