@<TRIPOS>MOLECULE
tmp/4hupA00.pdb
 187 179 0 0 0
SMALL
GASTEIGER

@<TRIPOS>ATOM
      1  N        -25.1120    3.9340  -15.2360 N.3    74  ASN74      -0.1240
      2  CA       -24.6790    5.3200  -15.0040 C.3    74  ASN74       0.1653
      3  C        -23.4070    5.4840  -14.1670 C.2    74  ASN74       0.2266
      4  O        -23.0040    6.6160  -13.8650 O.2    74  ASN74      -0.2867
      5  CB       -25.8170    6.1280  -14.3740 C.3    74  ASN74       0.1155
      6  CG       -26.3720    5.4710  -13.1200 C.2    74  ASN74       0.2627
      7  OD1      -25.7480    4.5760  -12.5500 O.2    74  ASN74      -0.2716
      8  ND2      -27.5480    5.9160  -12.6830 N.am   74  ASN74      -0.0877
      9  N        -23.1620    4.9720  -11.1910 N.3    76  TYR76      -0.1227
     10  CA       -23.6130    5.5110   -9.9150 C.3    76  TYR76       0.1736
     11  C        -23.3320    4.5630   -8.7420 C.2    76  TYR76       0.2595
     12  O        -23.5410    3.3560   -8.8450 O.2    76  TYR76      -0.2718
     13  CB       -25.1120    5.7790  -10.0440 C.3    76  TYR76       0.0548
     14  CG       -25.7340    6.6230   -8.9750 C.ar   76  TYR76      -0.0200
     15  CD1      -25.9350    7.9850   -9.1690 C.ar   76  TYR76      -0.0009
     16  CD2      -26.1670    6.0510   -7.7890 C.ar   76  TYR76      -0.0009
     17  CE1      -26.5320    8.7630   -8.1840 C.ar   76  TYR76       0.0417
     18  CE2      -26.7630    6.8120   -6.8010 C.ar   76  TYR76       0.0417
     19  CZ       -26.9390    8.1660   -7.0020 C.ar   76  TYR76       0.1957
     20  OH       -27.5330    8.9050   -6.0140 O.3    76  TYR76      -0.2866
     21  N        -22.8260    5.1010   -7.6340 N.am   77  VAL77      -0.1980
     22  CA       -22.6070    4.2840   -6.4400 C.3    77  VAL77       0.1595
     23  C        -23.9270    4.1320   -5.6990 C.2    77  VAL77       0.2287
     24  O        -24.4430    5.1140   -5.1640 O.2    77  VAL77      -0.2864
     25  CB       -21.5940    4.9460   -5.4810 C.3    77  VAL77       0.0276
     26  CG1      -21.4410    4.1300   -4.1860 C.3    77  VAL77       0.0022
     27  CG2      -20.2480    5.1410   -6.1670 C.3    77  VAL77       0.0022
     28  N        -28.3270    3.7720   -0.7030 N.3    89  PHE89      -0.1241
     29  CA       -29.0330    5.0440   -0.8270 C.3    89  PHE89       0.1605
     30  C        -30.4870    4.7890   -1.2090 C.2    89  PHE89       0.2264
     31  O        -30.8130    3.7260   -1.7520 O.2    89  PHE89      -0.2867
     32  CB       -28.3940    5.9700   -1.8720 C.3    89  PHE89       0.0534
     33  CG       -26.9850    6.3570   -1.5560 C.ar   89  PHE89      -0.0203
     34  CD1      -26.7110    7.1700   -0.4720 C.ar   89  PHE89      -0.0042
     35  CD2      -25.9350    5.9200   -2.3410 C.ar   89  PHE89      -0.0042
     36  CE1      -25.4150    7.5300   -0.1730 C.ar   89  PHE89      -0.0003
     37  CE2      -24.6390    6.2770   -2.0450 C.ar   89  PHE89      -0.0003
     38  CZ       -24.3830    7.0830   -0.9470 C.ar   89  PHE89      -0.0000
     39  N        -34.4750    5.7070   -6.5300 N.3    92  ASP92      -0.1239
     40  CA       -35.2800    6.6610   -7.2860 C.3    92  ASP92       0.1674
     41  C        -36.6260    6.0800   -7.7100 C.2    92  ASP92       0.2266
     42  O        -37.5270    6.8270   -8.0840 O.2    92  ASP92      -0.2867
     43  CB       -34.5590    7.1050   -8.5650 C.3    92  ASP92       0.1410
     44  CG       -33.2690    7.8630   -8.2970 C.2    92  ASP92       0.3668
     45  OD1      -33.0530    8.3090   -7.1530 O.co2  92  ASP92      -0.2456
     46  OD2      -32.4740    8.0270   -9.2530 O.co2  92  ASP92      -0.2456
     47  N        -28.6400    9.4460   -2.9450 N.3   117  GLY117     -0.1210
     48  CA       -27.1970    9.5810   -3.0180 C.3   117  GLY117      0.1956
     49  C        -26.6270   10.6750   -3.9020 C.2   117  GLY117      0.2612
     50  O        -25.4310   10.6760   -4.1610 O.2   117  GLY117     -0.2717
     51  N        -27.4520   11.6100   -4.3590 N.am  118  ASN118     -0.1960
     52  CA       -26.9500   12.6900   -5.2080 C.3   118  ASN118      0.1819
     53  C        -26.0840   13.6910   -4.4320 C.2   118  ASN118      0.2621
     54  O        -26.1990   13.8150   -3.2110 O.2   118  ASN118     -0.2715
     55  CB       -28.0970   13.4220   -5.9030 C.3   118  ASN118      0.1195
     56  CG       -28.8660   12.5350   -6.8720 C.2   118  ASN118      0.2630
     57  OD1      -28.4100   11.4550   -7.2480 O.2   118  ASN118     -0.2716
     58  ND2      -30.0390   13.0010   -7.2900 N.am  118  ASN118     -0.0877
     59  N        -25.2210   14.4040   -5.1460 N.am  119  TYR119     -0.1960
     60  CA       -24.3100   15.3560   -4.5140 C.3   119  TYR119      0.1771
     61  C        -25.0550   16.3680   -3.6450 C.2   119  TYR119      0.2619
     62  O        -24.6210   16.6620   -2.5340 O.2   119  TYR119     -0.2715
     63  CB       -23.4960   16.1220   -5.5550 C.3   119  TYR119      0.0574
     64  CG       -22.4120   15.3230   -6.2390 C.ar  119  TYR119     -0.0198
     65  CD1      -21.6570   14.3900   -5.5410 C.ar  119  TYR119     -0.0009
     66  CD2      -22.1510   15.5070   -7.5890 C.ar  119  TYR119     -0.0009
     67  CE1      -20.6650   13.6680   -6.1760 C.ar  119  TYR119      0.0417
     68  CE2      -21.1700   14.7890   -8.2260 C.ar  119  TYR119      0.0417
     69  CZ       -20.4390   13.8660   -7.5200 C.ar  119  TYR119      0.1957
     70  OH       -19.4710   13.1620   -8.1750 O.3   119  TYR119     -0.2866
     71  N        -26.1630   16.9100   -4.1430 N.am  120  ASP120     -0.1971
     72  CA       -26.8780   17.9550   -3.4060 C.3   120  ASP120      0.1709
     73  C        -27.2380   17.4750   -2.0030 C.2   120  ASP120      0.2293
     74  O        -26.9510   18.1510   -1.0130 O.2   120  ASP120     -0.2864
     75  CB       -28.1340   18.4060   -4.1570 C.3   120  ASP120      0.1436
     76  CG       -28.6650   19.7480   -3.6670 C.2   120  ASP120      0.3671
     77  OD1      -28.2930   20.1790   -2.5580 O.co2 120  ASP120     -0.2456
     78  OD2      -29.4620   20.3740   -4.3950 O.co2 120  ASP120     -0.2456
     79  N        -18.8180   20.2450   -2.6940 N.3   130  ARG130     -0.1245
     80  CA       -17.6980   19.5950   -3.3530 C.3   130  ARG130      0.1563
     81  C        -16.4690   20.4960   -3.4390 C.2   130  ARG130      0.2260
     82  O        -15.3430   20.0410   -3.2760 O.2   130  ARG130     -0.2867
     83  CB       -18.1050   19.1450   -4.7570 C.3   130  ARG130      0.0307
     84  CG       -18.8400   17.8450   -4.7820 C.3   130  ARG130      0.0489
     85  CD       -19.4340   17.6180   -6.1630 C.3   130  ARG130      0.2205
     86  NE       -20.6530   18.4050   -6.3430 N.pl3 130  ARG130     -0.0865
     87  CZ       -21.1820   18.6820   -7.5250 C.cat 130  ARG130      0.5346
     88  NH1      -20.5910   18.2430   -8.6290 N.pl3 130  ARG130      0.1354
     89  NH2      -22.3130   19.3710   -7.6050 N.pl3 130  ARG130      0.1354
     90  N        -17.1720    8.8190   -4.6150 N.3   168  ILE168     -0.1245
     91  CA       -17.8850    8.9480   -5.8730 C.3   168  ILE168      0.1561
     92  C        -17.0110    9.6680   -6.9000 C.2   168  ILE168      0.2260
     93  O        -16.9050    9.2510   -8.0420 O.2   168  ILE168     -0.2867
     94  CB       -19.2250    9.6960   -5.6970 C.3   168  ILE168      0.0252
     95  CG1      -20.1690    8.8890   -4.7970 C.3   168  ILE168      0.0019
     96  CG2      -19.8510   10.0200   -7.0670 C.3   168  ILE168      0.0019
     97  CD1      -21.2550    9.7410   -4.1640 C.3   168  ILE168      0.0001
     98  N        -16.3440    6.9430   -9.5630 N.3   172  SER172     -0.1202
     99  CA       -17.3550    7.1140  -10.6100 C.3   172  SER172      0.2020
    100  C        -17.0440    8.2640  -11.5780 C.2   172  SER172      0.2618
    101  O        -17.0880    8.0920  -12.7970 O.2   172  SER172     -0.2717
    102  CB       -18.7500    7.2910   -9.9930 C.3   172  SER172      0.2103
    103  OG       -19.0850    6.1710   -9.1880 O.3   172  SER172     -0.2182
    104  N        -16.7480    9.4500  -11.0560 N.am  173  GLU173     -0.1979
    105  CA       -16.4210   10.5630  -11.9580 C.3   173  GLU173      0.1602
    106  C        -15.1240   10.3350  -12.7450 C.2   173  GLU173      0.2287
    107  O        -15.0180   10.7130  -13.9190 O.2   173  GLU173     -0.2864
    108  CB       -16.3610   11.8810  -11.1870 C.3   173  GLU173      0.0415
    109  CG       -17.6290   12.1700  -10.4090 C.3   173  GLU173      0.1163
    110  CD       -18.7960   12.5980  -11.3180 C.2   173  GLU173      0.3649
    111  OE1      -18.7060   12.4580  -12.5600 O.co2 173  GLU173     -0.2457
    112  OE2      -19.8120   13.0840  -10.7700 O.co2 173  GLU173     -0.2457
    113  N        -15.9490    8.1680  -15.5700 N.3   176  ARG176     -0.1245
    114  CA       -16.7150    8.8560  -16.6050 C.3   176  ARG176      0.1563
    115  C        -15.8570    9.7950  -17.4440 C.2   176  ARG176      0.2260
    116  O        -16.1440    9.9860  -18.6250 O.2   176  ARG176     -0.2867
    117  CB       -17.8710    9.6610  -16.0080 C.3   176  ARG176      0.0307
    118  CG       -18.9520    8.8340  -15.3440 C.3   176  ARG176      0.0489
    119  CD       -19.8160    9.7250  -14.4680 C.3   176  ARG176      0.2205
    120  NE       -20.8700    8.9720  -13.7870 N.pl3 176  ARG176     -0.0865
    121  CZ       -21.2680    9.2220  -12.5450 C.cat 176  ARG176      0.5346
    122  NH1      -20.6940   10.1960  -11.8430 N.pl3 176  ARG176      0.1354
    123  NH2      -22.2290    8.4940  -11.9990 N.pl3 176  ARG176      0.1354
    124  N        -18.6170   17.3940  -13.9250 N.3   204  GLU204     -0.1231
    125  CA       -19.4820   16.4960  -13.1690 C.3   204  GLU204      0.1699
    126  C        -20.9310   16.9140  -13.3250 C.2   204  GLU204      0.2592
    127  O        -21.8040   16.0880  -13.5810 O.2   204  GLU204     -0.2718
    128  CB       -19.1230   16.5010  -11.6870 C.3   204  GLU204      0.0402
    129  CG       -17.7370   15.9690  -11.3760 C.3   204  GLU204      0.1161
    130  CD       -17.3410   16.1750   -9.9320 C.2   204  GLU204      0.3649
    131  OE1      -18.0590   16.9130   -9.2240 O.co2 204  GLU204     -0.2457
    132  OE2      -16.3110   15.6000   -9.5000 O.co2 204  GLU204     -0.2457
    133  N        -21.1860   18.2040  -13.1620 N.am  205  ASN205     -0.1974
    134  CA       -22.5490   18.6980  -13.2810 C.3   205  ASN205      0.1688
    135  C        -23.1330   18.5620  -14.6790 C.2   205  ASN205      0.2292
    136  O        -24.3610   18.5240  -14.8290 O.2   205  ASN205     -0.2864
    137  CB       -22.6590   20.1440  -12.7920 C.3   205  ASN205      0.1181
    138  CG       -22.3650   20.2700  -11.3110 C.2   205  ASN205      0.2629
    139  OD1      -22.4760   19.3000  -10.5610 O.2   205  ASN205     -0.2716
    140  ND2      -22.0020   21.4620  -10.8850 N.am  205  ASN205     -0.0877
    141  N        -22.4200   16.0620  -17.0840 N.3   207  TRP207     -0.1227
    142  CA       -22.2450   14.7520  -17.7210 C.3   207  TRP207      0.1737
    143  C        -23.4900   14.3300  -18.4910 C.2   207  TRP207      0.2596
    144  O        -23.3890   13.8830  -19.6280 O.2   207  TRP207     -0.2718
    145  CB       -21.8850   13.6900  -16.6900 C.3   207  TRP207      0.0564
    146  CG       -21.5570   12.3400  -17.2860 C.ar  207  TRP207      0.0003
    147  CD1      -20.5990   12.0690  -18.2140 C.ar  207  TRP207      0.0946
    148  CD2      -22.1670   11.0860  -16.9510 C.ar  207  TRP207      0.0152
    149  NE1      -20.5790   10.7260  -18.4900 N.ar  207  TRP207     -0.2442
    150  CE2      -21.5220   10.1030  -17.7300 C.ar  207  TRP207      0.0810
    151  CE3      -23.1830   10.7040  -16.0710 C.ar  207  TRP207      0.0012
    152  CZ2      -21.8760    8.7520  -17.6520 C.ar  207  TRP207      0.0191
    153  CZ3      -23.5340    9.3570  -15.9990 C.ar  207  TRP207      0.0001
    154  CH2      -22.8720    8.3960  -16.7760 C.ar  207  TRP207      0.0015
    155  N        -24.6550   14.4550  -17.8580 N.am  208  GLY208     -0.1942
    156  CA       -25.9040   14.0870  -18.5010 C.3   208  GLY208      0.2014
    157  C        -26.1700   14.9160  -19.7400 C.2   208  GLY208      0.2638
    158  O        -26.5650   14.3910  -20.8000 O.2   208  GLY208     -0.2714
    159  N        -25.9300   16.2150  -19.6160 N.am  209  ARG209     -0.1977
    160  CA       -26.1670   17.1480  -20.7120 C.3   209  ARG209      0.1597
    161  C        -25.1950   16.9520  -21.8740 C.2   209  ARG209      0.2287
    162  O        -25.5840   17.0390  -23.0410 O.2   209  ARG209     -0.2864
    163  CB       -26.0920   18.5940  -20.2100 C.3   209  ARG209      0.0334
    164  CG       -27.3580   19.0630  -19.4920 C.3   209  ARG209      0.0492
    165  CD       -28.4860   19.2550  -20.4990 C.3   209  ARG209      0.2205
    166  NE       -29.7930   19.4610  -19.8720 N.pl3 209  ARG209     -0.0865
    167  CZ       -30.2350   20.6350  -19.4250 C.cat 209  ARG209      0.5346
    168  NH1      -29.4690   21.7160  -19.5180 N.pl3 209  ARG209      0.1354
    169  NH2      -31.4420   20.7270  -18.8760 N.pl3 209  ARG209      0.1354
    170  N        -23.7360    8.2300  -20.4410 N.3   252  VAL252     -0.1245
    171  CA       -24.9710    7.5460  -20.0860 C.3   252  VAL252      0.1561
    172  C        -25.8450    7.4240  -21.3490 C.2   252  VAL252      0.2260
    173  O        -25.8530    8.3180  -22.1920 O.2   252  VAL252     -0.2867
    174  CB       -25.7200    8.2750  -18.9310 C.3   252  VAL252      0.0252
    175  CG1      -26.0580    9.7100  -19.3130 C.3   252  VAL252      0.0019
    176  CG2      -26.9710    7.5170  -18.5360 C.3   252  VAL252      0.0019
    177  N        -28.7130    7.9130  -23.6570 N.3   254  ARG254     -0.1245
    178  CA       -29.7560    8.9450  -23.6780 C.3   254  ARG254      0.1563
    179  C        -30.7400    8.7700  -24.8300 C.2   254  ARG254      0.2260
    180  O        -31.9420    8.9850  -24.6730 O.2   254  ARG254     -0.2867
    181  CB       -29.1500   10.3540  -23.6980 C.3   254  ARG254      0.0307
    182  CG       -28.6000   10.8230  -22.3590 C.3   254  ARG254      0.0489
    183  CD       -29.7240   11.1410  -21.3960 C.3   254  ARG254      0.2205
    184  NE       -29.2590   11.5240  -20.0640 N.pl3 254  ARG254     -0.0865
    185  CZ       -29.4040   10.7680  -18.9800 C.cat 254  ARG254      0.5346
    186  NH1      -29.9930    9.5830  -19.0720 N.pl3 254  ARG254      0.1354
    187  NH2      -28.9610   11.1930  -17.8030 N.pl3 254  ARG254      0.1354
@<TRIPOS>BOND
     1   179   180    2
     2   179   178    1
     3   181   178    1
     4   181   182    1
     5   178   177    1
     6   162   161    2
     7   182   183    1
     8   173   172    2
     9   161   160    1
    10   183   184    1
    11   172   171    1
    12   158   157    2
    13   160   163    1
    14   160   159    1
    15   165   166    1
    16   165   164    1
    17   170   171    1
    18   163   164    1
    19   171   174    1
    20   184   185    2
    21   166   167    2
    22   157   159   am
    23   157   156    1
    24   144   143    2
    25   168   167    1
    26   167   169    1
    27   175   174    1
    28   186   185    1
    29   185   187    1
    30   174   176    1
    31   116   115    2
    32   156   155    1
    33   143   155   am
    34   143   142    1
    35   149   147   ar
    36   149   150   ar
    37   147   146   ar
    38   150   152   ar
    39   150   148   ar
    40   142   141    1
    41   142   145    1
    42   152   154   ar
    43   115   114    1
    44   146   148   ar
    45   146   145    1
    46   148   151   ar
    47   154   153   ar
    48   114   117    1
    49   114   113    1
    50   151   153   ar
    51   117   118    1
    52   118   119    1
    53     1     2    1
    54     2     5    1
    55     2     3    1
    56   136   135    2
    57   135   134    1
    58   119   120    1
    59     5     6    1
    60     3     4    2
    61   124   125    1
    62   107   106    2
    63   120   121    2
    64   127   126    2
    65   126   125    1
    66   126   133   am
    67   134   133    1
    68   134   137    1
    69   125   128    1
    70     6     8   am
    71     6     7    2
    72   101   100    2
    73   137   138    1
    74   106   105    1
    75   111   110   ar
    76   121   123    1
    77   121   122    1
    78   105   108    1
    79   105   104    1
    80   128   129    1
    81   100   104   am
    82   100    99    1
    83   129   130    1
    84   110   112   ar
    85   110   109    1
    86   138   140   am
    87   138   139    2
    88     9    10    1
    89   108   109    1
    90    99   102    1
    91    99    98    1
    92    13    10    1
    93    13    14    1
    94   102   103    1
    95   130   132   ar
    96   130   131   ar
    97    10    11    1
    98    46    44   ar
    99    15    14   ar
   100    15    17   ar
   101    14    16   ar
   102    12    11    2
   103    11    21   am
   104    88    87    1
   105    43    44    1
   106    43    40    1
   107    44    45   ar
   108    68    66   ar
   109    68    69   ar
   110    17    19   ar
   111    70    69    1
   112    42    41    2
   113    93    92    2
   114    16    18   ar
   115    41    40    1
   116    21    22    1
   117    89    87    1
   118    66    64   ar
   119    87    86    2
   120    69    67   ar
   121    58    56   am
   122    40    39    1
   123    57    56    2
   124    96    94    1
   125    19    18   ar
   126    19    20    1
   127    92    91    1
   128    56    55    1
   129    22    23    1
   130    22    25    1
   131    86    85    1
   132    64    63    1
   133    64    65   ar
   134    67    65   ar
   135    27    25    1
   136    85    84    1
   137    55    52    1
   138    91    94    1
   139    91    90    1
   140    23    24    2
   141    94    95    1
   142    63    60    1
   143    25    26    1
   144    52    53    1
   145    52    51    1
   146    59    60    1
   147    59    53   am
   148    95    97    1
   149    84    83    1
   150    83    80    1
   151    60    61    1
   152    53    54    2
   153    78    76   ar
   154    51    49   am
   155    50    49    2
   156    75    76    1
   157    75    72    1
   158    71    61   am
   159    71    72    1
   160    49    48    1
   161    76    77   ar
   162    61    62    2
   163    81    80    1
   164    81    82    2
   165    72    73    1
   166    80    79    1
   167    48    47    1
   168    35    37   ar
   169    35    33   ar
   170    37    38   ar
   171    73    74    2
   172    32    33    1
   173    32    29    1
   174    31    30    2
   175    33    34   ar
   176    30    29    1
   177    38    36   ar
   178    29    28    1
   179    34    36   ar
