@<TRIPOS>MOLECULE
tmp/4hurB01.pdb
 152 147 0 0 0
SMALL
GASTEIGER

@<TRIPOS>ATOM
      1  N        -12.7320  -29.3660  -44.3320 N.3    36  TYR36      -0.1241
      2  CA       -11.6340  -28.6090  -43.7380 C.3    36  TYR36       0.1605
      3  C        -11.9780  -27.9420  -42.4100 C.2    36  TYR36       0.2264
      4  O        -13.1440  -27.7080  -42.0960 O.2    36  TYR36      -0.2867
      5  CB       -11.1110  -27.5530  -44.7200 C.3    36  TYR36       0.0534
      6  CG       -12.0420  -26.3740  -44.9240 C.ar   36  TYR36      -0.0201
      7  CD1      -11.9890  -25.2620  -44.0830 C.ar   36  TYR36      -0.0009
      8  CD2      -12.9570  -26.3680  -45.9610 C.ar   36  TYR36      -0.0009
      9  CE1      -12.8340  -24.1930  -44.2640 C.ar   36  TYR36       0.0417
     10  CE2      -13.7980  -25.3020  -46.1620 C.ar   36  TYR36       0.0417
     11  CZ       -13.7340  -24.2120  -45.3110 C.ar   36  TYR36       0.1957
     12  OH       -14.5770  -23.1470  -45.5030 O.3    36  TYR36      -0.2866
     13  N        -10.8220  -24.4660  -40.3110 N.3    38  ASP38      -0.1239
     14  CA       -10.0760  -23.2240  -40.3400 C.3    38  ASP38       0.1674
     15  C         -9.7340  -22.8170  -38.9060 C.2    38  ASP38       0.2266
     16  O        -10.5350  -22.1950  -38.2300 O.2    38  ASP38      -0.2867
     17  CB       -10.9000  -22.1340  -41.0190 C.3    38  ASP38       0.1410
     18  CG       -10.1140  -20.8550  -41.2120 C.2    38  ASP38       0.3668
     19  OD1       -8.8700  -20.9480  -41.3070 O.co2  38  ASP38      -0.2456
     20  OD2      -10.7440  -19.7740  -41.2600 O.co2  38  ASP38      -0.2456
     21  N        -17.3470  -27.5850  -44.2560 N.3    67  SER67      -0.1202
     22  CA       -16.6350  -26.3760  -43.8420 C.3    67  SER67       0.2020
     23  C        -16.7770  -26.1830  -42.3320 C.2    67  SER67       0.2619
     24  O        -17.8680  -25.8800  -41.8430 O.2    67  SER67      -0.2717
     25  CB       -17.2170  -25.1630  -44.5600 C.3    67  SER67       0.2103
     26  OG       -17.2540  -25.3700  -45.9590 O.3    67  SER67      -0.2182
     27  N        -15.6820  -26.3400  -41.5970 N.am   68  ILE68      -0.1965
     28  CA       -15.7510  -26.2460  -40.1390 C.3    68  ILE68       0.1727
     29  C        -15.0340  -25.0060  -39.6010 C.2    68  ILE68       0.2617
     30  O        -13.8100  -24.8750  -39.7290 O.2    68  ILE68      -0.2715
     31  CB       -15.2130  -27.5130  -39.4750 C.3    68  ILE68       0.0290
     32  CG1      -16.0480  -28.7110  -39.9300 C.3    68  ILE68       0.0022
     33  CG2      -15.2680  -27.3880  -37.9530 C.3    68  ILE68       0.0023
     34  CD1      -15.6240  -29.9950  -39.2980 C.3    68  ILE68       0.0001
     35  N        -15.8190  -24.0930  -39.0290 N.am   69  GLY69      -0.1941
     36  CA       -15.3130  -22.8150  -38.5700 C.3    69  GLY69       0.1998
     37  C        -14.4450  -22.8820  -37.3220 C.2    69  GLY69       0.2480
     38  O        -14.4730  -23.8590  -36.5620 O.2    69  GLY69      -0.2729
     39  N        -13.6590  -21.8190  -37.1040 N.am   70  PRO70      -0.2726
     40  CA       -12.7080  -21.6840  -35.9930 C.3    70  PRO70       0.1402
     41  C        -13.3820  -21.8890  -34.6430 C.2    70  PRO70       0.2269
     42  O        -14.4480  -21.3120  -34.3830 O.2    70  PRO70      -0.2865
     43  CB       -12.2410  -20.2330  -36.1080 C.3    70  PRO70       0.0296
     44  CG       -12.4650  -19.8710  -37.5320 C.3    70  PRO70       0.0237
     45  CD       -13.6870  -20.6210  -37.9610 C.3    70  PRO70       0.0939
     46  N        -21.8890  -26.8640  -43.4930 N.3   120  TRP120     -0.1227
     47  CA       -21.1570  -25.6530  -43.1580 C.3   120  TRP120      0.1737
     48  C        -21.3810  -25.3450  -41.6720 C.2   120  TRP120      0.2595
     49  O        -22.5040  -25.0580  -41.2530 O.2   120  TRP120     -0.2718
     50  CB       -21.6250  -24.4890  -44.0330 C.3   120  TRP120      0.0564
     51  CG       -21.0480  -23.1410  -43.6570 C.ar  120  TRP120      0.0003
     52  CD1      -19.8990  -22.8920  -42.9510 C.ar  120  TRP120      0.0946
     53  CD2      -21.6030  -21.8610  -43.9720 C.ar  120  TRP120      0.0152
     54  NE1      -19.7160  -21.5410  -42.8040 N.ar  120  TRP120     -0.2442
     55  CE2      -20.7440  -20.8830  -43.4250 C.ar  120  TRP120      0.0810
     56  CE3      -22.7520  -21.4430  -44.6600 C.ar  120  TRP120      0.0012
     57  CZ2      -20.9950  -19.5140  -43.5440 C.ar  120  TRP120      0.0191
     58  CZ3      -22.9990  -20.0870  -44.7810 C.ar  120  TRP120      0.0001
     59  CH2      -22.1220  -19.1380  -44.2240 C.ar  120  TRP120      0.0015
     60  N        -20.3130  -25.4210  -40.8820 N.am  121  ILE121     -0.1966
     61  CA       -20.4020  -25.1450  -39.4470 C.3   121  ILE121      0.1727
     62  C        -19.7210  -23.8250  -39.1030 C.2   121  ILE121      0.2617
     63  O        -18.5250  -23.6390  -39.3620 O.2   121  ILE121     -0.2715
     64  CB       -19.8100  -26.2810  -38.6140 C.3   121  ILE121      0.0290
     65  CG1      -20.6000  -27.5580  -38.8750 C.3   121  ILE121      0.0022
     66  CG2      -19.8750  -25.9460  -37.1300 C.3   121  ILE121      0.0023
     67  CD1      -20.0390  -28.7620  -38.2050 C.3   121  ILE121      0.0001
     68  N        -20.4960  -22.9090  -38.5300 N.am  122  GLY122     -0.1940
     69  CA       -20.0130  -21.5740  -38.2430 C.3   122  GLY122      0.2014
     70  C        -18.9480  -21.5290  -37.1580 C.2   122  GLY122      0.2638
     71  O        -18.6000  -22.5470  -36.5470 O.2   122  GLY122     -0.2714
     72  N        -18.4270  -20.3250  -36.9440 N.am  123  ARG123     -0.1977
     73  CA       -17.4060  -20.0720  -35.9360 C.3   123  ARG123      0.1597
     74  C        -17.9330  -20.3730  -34.5220 C.2   123  ARG123      0.2287
     75  O        -19.0940  -20.0660  -34.2000 O.2   123  ARG123     -0.2864
     76  CB       -16.9470  -18.6090  -36.0250 C.3   123  ARG123      0.0334
     77  CG       -15.7850  -18.2530  -35.1100 C.3   123  ARG123      0.0492
     78  CD       -15.3320  -16.8010  -35.2750 C.3   123  ARG123      0.2205
     79  NE       -14.0990  -16.5530  -34.5340 N.pl3 123  ARG123     -0.0865
     80  CZ       -12.8830  -16.5410  -35.0710 C.cat 123  ARG123      0.5346
     81  NH1      -12.7340  -16.7330  -36.3730 N.pl3 123  ARG123      0.1354
     82  NH2      -11.8160  -16.3130  -34.3090 N.pl3 123  ARG123      0.1354
     83  N        -26.6330  -26.0150  -42.4280 N.3   138  ILE138     -0.1231
     84  CA       -25.8420  -24.8550  -42.0510 C.3   138  ILE138      0.1692
     85  C        -26.0530  -24.5420  -40.5720 C.2   138  ILE138      0.2592
     86  O        -27.1850  -24.3390  -40.1300 O.2   138  ILE138     -0.2718
     87  CB       -26.2060  -23.6310  -42.8940 C.3   138  ILE138      0.0266
     88  CG1      -25.9000  -23.8900  -44.3660 C.3   138  ILE138      0.0019
     89  CG2      -25.4470  -22.4000  -42.4130 C.3   138  ILE138      0.0020
     90  CD1      -26.3820  -22.7660  -45.2790 C.3   138  ILE138      0.0001
     91  N        -24.9570  -24.5260  -39.8160 N.am  139  ILE139     -0.1966
     92  CA       -25.0090  -24.2360  -38.3990 C.3   139  ILE139      0.1727
     93  C        -24.4710  -22.8360  -38.1360 C.2   139  ILE139      0.2616
     94  O        -23.2780  -22.5790  -38.3200 O.2   139  ILE139     -0.2715
     95  CB       -24.1470  -25.2180  -37.6060 C.3   139  ILE139      0.0290
     96  CG1      -24.3130  -26.6380  -38.1480 C.3   139  ILE139      0.0022
     97  CG2      -24.4940  -25.1390  -36.1250 C.3   139  ILE139      0.0023
     98  CD1      -25.6960  -27.1910  -37.9700 C.3   139  ILE139      0.0001
     99  N        -25.3560  -21.9430  -37.6990 N.am  140  ALA140     -0.1963
    100  CA       -25.0010  -20.5450  -37.4450 C.3   140  ALA140      0.1728
    101  C        -23.8740  -20.3980  -36.4260 C.2   140  ALA140      0.2616
    102  O        -23.7190  -21.2220  -35.5240 O.2   140  ALA140     -0.2715
    103  CB       -26.2130  -19.7650  -36.9820 C.3   140  ALA140      0.0334
    104  N        -23.1110  -19.3220  -36.5660 N.am  141  ALA141     -0.1977
    105  CA       -22.0240  -19.0300  -35.6490 C.3   141  ALA141      0.1597
    106  C        -22.5350  -19.0250  -34.2090 C.2   141  ALA141      0.2287
    107  O        -23.6580  -18.5680  -33.9400 O.2   141  ALA141     -0.2864
    108  CB       -21.3960  -17.6870  -35.9900 C.3   141  ALA141      0.0319
    109  N        -31.1230  -24.6940  -41.9100 N.3   154  ILE154     -0.1245
    110  CA       -30.2770  -23.7340  -41.2360 C.3   154  ILE154      0.1561
    111  C        -30.7300  -23.6350  -39.7830 C.2   154  ILE154      0.2260
    112  O        -31.9260  -23.5360  -39.5120 O.2   154  ILE154     -0.2867
    113  CB       -30.3630  -22.3650  -41.9070 C.3   154  ILE154      0.0252
    114  CG1      -30.0990  -22.5040  -43.4050 C.3   154  ILE154      0.0019
    115  CG2      -29.3780  -21.3920  -41.2680 C.3   154  ILE154      0.0019
    116  CD1      -30.1400  -21.1920  -44.1610 C.3   154  ILE154      0.0001
    117  N        -29.5210  -22.3280  -35.4910 N.3   156  GLY156     -0.1210
    118  CA       -28.6150  -21.5960  -34.6250 C.3   156  GLY156      0.1956
    119  C        -29.2170  -21.3400  -33.2590 C.2   156  GLY156      0.2612
    120  O        -30.3960  -21.6280  -33.0230 O.2   156  GLY156     -0.2717
    121  N        -28.4140  -20.7840  -32.3580 N.am  157  GLY157     -0.1956
    122  CA       -28.9060  -20.4210  -31.0430 C.3   157  GLY157      0.1869
    123  C        -28.4380  -21.3520  -29.9380 C.2   157  GLY157      0.2309
    124  O        -27.8760  -22.4180  -30.1910 O.2   157  GLY157     -0.2863
    125  N        -32.1910  -23.4700  -32.2620 N.3   161  LYS161     -0.1245
    126  CA       -33.4840  -23.1200  -32.8230 C.3   161  LYS161      0.1561
    127  C        -33.4540  -23.4390  -34.3050 C.2   161  LYS161      0.2260
    128  O        -32.3990  -23.3830  -34.9400 O.2   161  LYS161     -0.2867
    129  CB       -33.7740  -21.6270  -32.6510 C.3   161  LYS161      0.0271
    130  CG       -33.6250  -21.1150  -31.2290 C.3   161  LYS161      0.0035
    131  CD       -34.6720  -21.7240  -30.3000 C.3   161  LYS161      0.0206
    132  CE       -36.0660  -21.1850  -30.5920 C.3   161  LYS161      0.1093
    133  NZ       -36.1710  -19.7140  -30.3560 N.3   161  LYS161     -0.1314
    134  N        -34.0630  -22.3240  -37.9550 N.3   163  ILE163     -0.1231
    135  CA       -34.1600  -21.0770  -38.7010 C.3   163  ILE163      0.1692
    136  C        -35.0010  -21.2430  -39.9710 C.2   163  ILE163      0.2591
    137  O        -36.0620  -20.6370  -40.1010 O.2   163  ILE163     -0.2718
    138  CB       -32.7760  -20.5080  -39.0270 C.3   163  ILE163      0.0266
    139  CG1      -32.0110  -20.2480  -37.7280 C.3   163  ILE163      0.0019
    140  CG2      -32.9110  -19.2210  -39.8560 C.3   163  ILE163      0.0020
    141  CD1      -30.6400  -19.6200  -37.9020 C.3   163  ILE163      0.0001
    142  N        -34.5360  -22.0690  -40.9030 N.am  164  ARG164     -0.1980
    143  CA       -35.3190  -22.3760  -42.0960 C.3   164  ARG164      0.1597
    144  C        -34.7370  -23.5410  -42.8870 C.2   164  ARG164      0.2287
    145  O        -33.5670  -23.9000  -42.7250 O.2   164  ARG164     -0.2864
    146  CB       -35.4360  -21.1580  -43.0180 C.3   164  ARG164      0.0334
    147  CG       -34.1640  -20.8410  -43.7840 C.3   164  ARG164      0.0492
    148  CD       -34.3890  -19.6490  -44.7060 C.3   164  ARG164      0.2205
    149  NE       -33.2420  -19.4120  -45.5740 N.pl3 164  ARG164     -0.0865
    150  CZ       -32.2300  -18.6120  -45.2630 C.cat 164  ARG164      0.5346
    151  NH1      -31.2130  -18.4560  -46.1070 N.pl3 164  ARG164      0.1354
    152  NH2      -32.2380  -17.9660  -44.1040 N.pl3 164  ARG164      0.1354
@<TRIPOS>BOND
     1    10     8   ar
     2    10    11   ar
     3   151   150    1
     4     8     6   ar
     5    26    25    1
     6   149   150    2
     7   149   148    1
     8    12    11    1
     9    11     9   ar
    10    90    88    1
    11   150   152    1
    12     6     5    1
    13     6     7   ar
    14    58    56   ar
    15    58    59   ar
    16     5     2    1
    17   148   147    1
    18    56    53   ar
    19    25    22    1
    20    88    87    1
    21     1     2    1
    22     9     7   ar
    23    21    22    1
    24    59    57   ar
    25   116   114    1
    26    50    51    1
    27    50    47    1
    28    53    51   ar
    29    53    55   ar
    30    22    23    1
    31   147   146    1
    32     2     3    1
    33    51    52   ar
    34    57    55   ar
    35    46    47    1
    36    55    54   ar
    37   114   113    1
    38    47    48    1
    39   146   143    1
    40    52    54   ar
    41    87    89    1
    42    87    84    1
    43   144   145    2
    44   144   143    1
    45    83    84    1
    46     3     4    2
    47    23    24    2
    48    23    27   am
    49   143   142    1
    50    84    85    1
    51   109   110    1
    52   113   115    1
    53   113   110    1
    54    48    49    2
    55    48    60   am
    56    27    28    1
    57    19    18   ar
    58    20    18   ar
    59   110   111    1
    60    18    17    1
    61    17    14    1
    62   142   136   am
    63    60    61    1
    64    85    86    2
    65    85    91   am
    66    14    13    1
    67    14    15    1
    68    28    29    1
    69    28    31    1
    70   137   136    2
    71   136   135    1
    72    32    31    1
    73    32    34    1
    74   140   138    1
    75    91    92    1
    76   111   112    2
    77    30    29    2
    78    29    35   am
    79    31    33    1
    80    61    62    1
    81    61    64    1
    82    63    62    2
    83    62    68   am
    84    35    36    1
    85   138   135    1
    86   138   139    1
    87    15    16    2
    88    65    64    1
    89    65    67    1
    90   135   134    1
    91    64    66    1
    92    36    37    1
    93    68    69    1
    94    92    93    1
    95    92    95    1
    96    94    93    2
    97    69    70    1
    98    96    98    1
    99    96    95    1
   100    93    99   am
   101    45    44    1
   102    45    39    1
   103   141   139    1
   104    99   100    1
   105    95    97    1
   106    44    43    1
   107   100   103    1
   108   100   101    1
   109    37    39   am
   110    37    38    2
   111    70    72   am
   112    70    71    2
   113    39    40    1
   114    72    73    1
   115   104   101   am
   116   104   105    1
   117   101   102    2
   118    81    80    1
   119    43    40    1
   120    76    73    1
   121    76    77    1
   122    40    41    1
   123   108   105    1
   124    73    74    1
   125   105   106    1
   126   117   118    1
   127    78    77    1
   128    78    79    1
   129    80    79    2
   130    80    82    1
   131   128   127    2
   132    41    42    2
   133   118   119    1
   134    74    75    2
   135   127   126    1
   136   106   107    2
   137   119   120    2
   138   119   121   am
   139   126   129    1
   140   126   125    1
   141   129   130    1
   142   121   122    1
   143   130   131    1
   144   122   123    1
   145   132   133    1
   146   132   131    1
   147   124   123    2
