@<TRIPOS>MOLECULE
tmp/4hurB00.pdb
 120 115 0 0 0
SMALL
GASTEIGER

@<TRIPOS>ATOM
      1  N        -13.4260  -34.8720  -24.4580 N.3    51  TYR51      -0.1241
      2  CA       -14.0550  -35.9410  -23.6810 C.3    51  TYR51       0.1605
      3  C        -14.2980  -37.1970  -24.5230 C.2    51  TYR51       0.2264
      4  O        -15.3010  -37.8850  -24.3540 O.2    51  TYR51      -0.2867
      5  CB       -15.3720  -35.4530  -23.0700 C.3    51  TYR51       0.0534
      6  CG       -15.2300  -34.1840  -22.2590 C.ar   51  TYR51      -0.0201
      7  CD1      -14.7940  -34.2220  -20.9360 C.ar   51  TYR51      -0.0009
      8  CD2      -15.5280  -32.9440  -22.8190 C.ar   51  TYR51      -0.0009
      9  CE1      -14.6580  -33.0590  -20.1920 C.ar   51  TYR51       0.0417
     10  CE2      -15.3950  -31.7690  -22.0820 C.ar   51  TYR51       0.0417
     11  CZ       -14.9590  -31.8320  -20.7760 C.ar   51  TYR51       0.1957
     12  OH       -14.8250  -30.6740  -20.0480 O.3    51  TYR51      -0.2866
     13  N        -18.2420  -32.2180  -28.3450 N.3    75  ILE75      -0.1245
     14  CA       -18.3040  -32.7660  -26.9990 C.3    75  ILE75       0.1561
     15  C        -18.7660  -34.2190  -27.0700 C.2    75  ILE75       0.2260
     16  O        -19.9110  -34.4960  -27.4040 O.2    75  ILE75      -0.2867
     17  CB       -19.2920  -31.9910  -26.1420 C.3    75  ILE75       0.0252
     18  CG1      -18.9920  -30.4910  -26.1940 C.3    75  ILE75       0.0019
     19  CG2      -19.2560  -32.4990  -24.7210 C.3    75  ILE75       0.0019
     20  CD1      -17.6430  -30.1190  -25.6060 C.3    75  ILE75       0.0001
     21  N        -18.1570  -36.4170  -21.2980 N.3    79  ALA79      -0.1231
     22  CA       -18.4800  -35.1580  -20.6320 C.3    79  ALA79       0.1694
     23  C        -19.6070  -35.2600  -19.6060 C.2    79  ALA79       0.2592
     24  O        -19.7770  -34.3640  -18.7820 O.2    79  ALA79      -0.2718
     25  CB       -18.8110  -34.0900  -21.6490 C.3    79  ALA79       0.0304
     26  N        -20.3840  -36.3360  -19.6600 N.am   80  ASN80      -0.1960
     27  CA       -21.5630  -36.4320  -18.8180 C.3    80  ASN80       0.1819
     28  C        -21.3510  -37.2990  -17.5850 C.2    80  ASN80       0.2621
     29  O        -20.8260  -38.4050  -17.6790 O.2    80  ASN80      -0.2715
     30  CB       -22.7730  -36.8980  -19.6290 C.3    80  ASN80       0.1195
     31  CG       -23.3880  -35.7730  -20.4600 C.2    80  ASN80       0.2630
     32  OD1      -23.5560  -34.6490  -19.9750 O.2    80  ASN80      -0.2716
     33  ND2      -23.7130  -36.0680  -21.7200 N.am   80  ASN80      -0.0877
     34  N        -21.7530  -36.7760  -16.4260 N.am   81  HIS81      -0.1973
     35  CA       -21.6680  -37.5070  -15.1720 C.3    81  HIS81       0.1656
     36  C        -22.8620  -38.4330  -15.0220 C.2    81  HIS81       0.2291
     37  O        -23.8540  -38.3080  -15.7410 O.2    81  HIS81      -0.2864
     38  CB       -21.6450  -36.5410  -13.9810 C.3    81  HIS81       0.0771
     39  CG       -20.4420  -35.6550  -13.9430 C.ar   81  HIS81       0.0820
     40  ND1      -20.0520  -34.9870  -12.8030 N.ar   81  HIS81      -0.2267
     41  CD2      -19.5470  -35.3230  -14.8990 C.ar   81  HIS81       0.1154
     42  CE1      -18.9620  -34.2830  -13.0580 C.ar   81  HIS81       0.1986
     43  NE2      -18.6360  -34.4710  -14.3250 N.ar   81  HIS81      -0.2212
     44  N        -26.2380  -39.5980  -13.2470 N.3    83  MET83      -0.1245
     45  CA       -27.3030  -38.7070  -12.8130 C.3    83  MET83       0.1570
     46  C        -28.4150  -39.3750  -12.0070 C.2    83  MET83       0.2261
     47  O        -29.4340  -38.7430  -11.7190 O.2    83  MET83      -0.2867
     48  CB       -27.8880  -37.9710  -14.0200 C.3    83  MET83       0.0387
     49  CG       -26.8780  -37.0430  -14.6870 C.3    83  MET83       0.0595
     50  SD       -27.4230  -36.4210  -16.2790 S.3    83  MET83      -0.1393
     51  CE       -28.9900  -35.6950  -15.8110 C.3    83  MET83       0.0692
     52  N        -25.2010  -41.7480  -18.9520 N.3   108  PRO108     -0.2116
     53  CA       -26.1390  -41.2620  -19.9740 C.3   108  PRO108      0.1372
     54  C        -25.5040  -41.1370  -21.3580 C.2   108  PRO108      0.2244
     55  O        -25.3910  -40.0190  -21.8820 O.2   108  PRO108     -0.2868
     56  CB       -26.5200  -39.8620  -19.4700 C.3   108  PRO108      0.0268
     57  CG       -25.3390  -39.4190  -18.6850 C.3   108  PRO108      0.0207
     58  CD       -24.8030  -40.6770  -18.0190 C.3   108  PRO108      0.0892
     59  N        -25.0580  -41.0500  -25.2890 N.3   110  LYS110     -0.1245
     60  CA       -25.9340  -40.5250  -26.3330 C.3   110  LYS110      0.1561
     61  C        -25.5810  -41.0480  -27.7300 C.2   110  LYS110      0.2260
     62  O        -26.2950  -40.7640  -28.6900 O.2   110  LYS110     -0.2867
     63  CB       -25.8870  -38.9930  -26.3630 C.3   110  LYS110      0.0271
     64  CG       -26.1030  -38.3050  -25.0220 C.3   110  LYS110      0.0035
     65  CD       -27.5310  -38.4860  -24.5400 C.3   110  LYS110      0.0206
     66  CE       -27.7260  -37.8580  -23.1630 C.3   110  LYS110      0.1093
     67  NZ       -27.6000  -36.3760  -23.1970 N.3   110  LYS110     -0.1314
     68  N        -22.9490  -31.0970  -29.1430 N.3   128  MET128     -0.1231
     69  CA       -23.1360  -31.9330  -27.9620 C.3   128  MET128      0.1687
     70  C        -23.1450  -33.4220  -28.3390 C.2   128  MET128      0.2434
     71  O        -23.2750  -33.7560  -29.5160 O.2   128  MET128     -0.2733
     72  CB       -24.4310  -31.5240  -27.2550 C.3   128  MET128      0.0400
     73  CG       -24.4390  -30.0500  -26.7950 C.3   128  MET128      0.0596
     74  SD       -23.0360  -29.6470  -25.7200 S.3   128  MET128     -0.1393
     75  CE       -23.3590  -30.6920  -24.3000 C.3   128  MET128      0.0692
     76  N        -23.0100  -34.3240  -27.3440 N.am  129  PRO129     -0.2729
     77  CA       -22.8630  -35.7550  -27.6690 C.3   129  PRO129      0.1401
     78  C        -24.0620  -36.3600  -28.3970 C.2   129  PRO129      0.2269
     79  O        -25.2160  -36.0330  -28.0830 O.2   129  PRO129     -0.2865
     80  CB       -22.7460  -36.4170  -26.2930 C.3   129  PRO129      0.0296
     81  CG       -22.2480  -35.3500  -25.3880 C.3   129  PRO129      0.0237
     82  CD       -22.8750  -34.0770  -25.8950 C.3   129  PRO129      0.0939
     83  N        -25.1680  -23.7590  -30.2330 N.3   144  VAL144     -0.1245
     84  CA       -24.9160  -24.9230  -29.4060 C.3   144  VAL144      0.1561
     85  C        -25.8700  -26.0020  -29.8860 C.2   144  VAL144      0.2260
     86  O        -27.0790  -25.9120  -29.6660 O.2   144  VAL144     -0.2867
     87  CB       -25.1410  -24.6410  -27.9090 C.3   144  VAL144      0.0252
     88  CG1      -24.8720  -25.8940  -27.0950 C.3   144  VAL144      0.0019
     89  CG2      -24.2270  -23.5120  -27.4410 C.3   144  VAL144      0.0019
     90  N        -27.7880  -29.0150  -29.7310 N.3   146  THR146     -0.1203
     91  CA       -28.2400  -29.8800  -28.6580 C.3   146  THR146      0.1994
     92  C        -29.2200  -30.9360  -29.1350 C.2   146  THR146      0.2617
     93  O        -29.6940  -31.7420  -28.3490 O.2   146  THR146     -0.2717
     94  CB       -28.8930  -29.0540  -27.5440 C.3   146  THR146      0.1784
     95  OG1      -29.8500  -28.1620  -28.1220 O.3   146  THR146     -0.2211
     96  CG2      -27.8310  -28.2300  -26.8340 C.3   146  THR146      0.0376
     97  N        -29.5710  -30.9070  -30.4040 N.am  147  LYS147     -0.1979
     98  CA       -30.4650  -31.8800  -31.0120 C.3   147  LYS147      0.1596
     99  C        -30.0810  -32.1120  -32.4560 C.2   147  LYS147      0.2287
    100  O        -29.2420  -31.4240  -32.9550 O.2   147  LYS147     -0.2864
    101  CB       -31.9070  -31.4340  -30.9200 C.3   147  LYS147      0.0298
    102  CG       -32.1870  -30.0470  -31.4420 C.3   147  LYS147      0.0038
    103  CD       -33.6760  -29.7800  -31.5260 C.3   147  LYS147      0.0206
    104  CE       -34.2330  -29.0910  -30.2940 C.3   147  LYS147      0.1093
    105  NZ       -35.6350  -28.5980  -30.4440 N.3   147  LYS147     -0.1314
    106  N        -28.6640  -20.9250  -28.7010 N.3   158  ASN158     -0.1226
    107  CA       -28.3620  -21.7220  -27.5270 C.3   158  ASN158      0.1770
    108  C        -29.5270  -21.5520  -26.5610 C.2   158  ASN158      0.2439
    109  O        -29.6340  -20.5190  -25.9020 O.2   158  ASN158     -0.2733
    110  CB       -27.0700  -21.2440  -26.8760 C.3   158  ASN158      0.1168
    111  CG       -26.7510  -21.9750  -25.5690 C.2   158  ASN158      0.2627
    112  OD1      -27.3320  -23.0160  -25.2460 O.2   158  ASN158     -0.2716
    113  ND2      -25.8030  -21.4220  -24.8170 N.am  158  ASN158     -0.0877
    114  N        -30.4140  -22.5610  -26.4810 N.am  159  PRO159     -0.2729
    115  CA       -30.3620  -23.8350  -27.2120 C.3   159  PRO159      0.1401
    116  C        -30.7210  -23.6880  -28.6880 C.2   159  PRO159      0.2269
    117  O        -31.2200  -22.6410  -29.1140 O.2   159  PRO159     -0.2865
    118  CB       -31.4270  -24.6770  -26.5160 C.3   159  PRO159      0.0296
    119  CG       -32.3880  -23.6880  -26.0020 C.3   159  PRO159      0.0237
    120  CD       -31.5630  -22.5140  -25.5650 C.3   159  PRO159      0.0939
@<TRIPOS>BOND
     1   100    99    2
     2    99    98    1
     3   103   102    1
     4   103   104    1
     5   102   101    1
     6    98   101    1
     7    98    97    1
     8   105   104    1
     9    97    92   am
    10    83    84    1
    11    85    86    2
    12    85    84    1
    13    90    91    1
    14    71    70    2
    15    84    87    1
    16    68    69    1
    17    92    91    1
    18    92    93    2
    19   117   116    2
    20   106   107    1
    21    62    61    2
    22   116   115    1
    23    91    94    1
    24    78    79    2
    25    78    77    1
    26    13    14    1
    27    70    69    1
    28    70    76   am
    29    95    94    1
    30    69    72    1
    31    87    89    1
    32    87    88    1
    33    61    60    1
    34    77    76    1
    35    77    80    1
    36    94    96    1
    37   107   110    1
    38   107   108    1
    39    16    15    2
    40    76    82    1
    41    72    73    1
    42   115   118    1
    43   115   114    1
    44    15    14    1
    45    14    17    1
    46   110   111    1
    47    73    74    1
    48   108   114   am
    49   108   109    2
    50   118   119    1
    51   114   120    1
    52    63    60    1
    53    63    64    1
    54    60    59    1
    55    80    81    1
    56    18    17    1
    57    18    20    1
    58    17    19    1
    59   119   120    1
    60    82    81    1
    61    74    75    1
    62   111   112    2
    63   111   113   am
    64    64    65    1
    65    65    66    1
    66     3     4    2
    67     3     2    1
    68     1     2    1
    69     2     5    1
    70    67    66    1
    71     5     6    1
    72     8     6   ar
    73     8    10   ar
    74     6     7   ar
    75    10    11   ar
    76    55    54    2
    77    33    31   am
    78    25    22    1
    79    54    53    1
    80    21    22    1
    81     7     9   ar
    82    11     9   ar
    83    11    12    1
    84    22    23    1
    85    31    32    2
    86    31    30    1
    87    53    56    1
    88    53    52    1
    89    26    23   am
    90    26    27    1
    91    30    27    1
    92    23    24    2
    93    56    57    1
    94    52    58    1
    95    27    28    1
    96    57    58    1
    97    29    28    2
    98    28    34   am
    99    34    35    1
   100    50    51    1
   101    50    49    1
   102    37    36    2
   103    35    36    1
   104    35    38    1
   105    41    43   ar
   106    41    39   ar
   107    49    48    1
   108    43    42   ar
   109    48    45    1
   110    38    39    1
   111    39    40   ar
   112    44    45    1
   113    42    40   ar
   114    45    46    1
   115    46    47    2
