@<TRIPOS>MOLECULE
tmp/4husA02.pdb
 83 80 0 0 0
SMALL
GASTEIGER

@<TRIPOS>ATOM
      1  N         42.3270   24.2320   -0.4150 N.3    11  ILE11      -0.1245
      2  CA        42.3280   22.8590    0.0750 C.3    11  ILE11       0.1561
      3  C         43.7010   22.2590   -0.1290 C.2    11  ILE11       0.2260
      4  O         44.2560   22.3140   -1.2260 O.2    11  ILE11      -0.2867
      5  CB        41.2910   22.0170   -0.6710 C.3    11  ILE11       0.0252
      6  CG1       39.8960   22.5740   -0.4030 C.3    11  ILE11       0.0019
      7  CG2       41.3710   20.5550   -0.2360 C.3    11  ILE11       0.0019
      8  CD1       38.8600   21.9190   -1.2270 C.3    11  ILE11       0.0001
      9  N         44.9700   19.8410   -3.1380 N.3    14  ASN14      -0.1240
     10  CA        44.0610   19.9760   -4.2550 C.3    14  ASN14       0.1653
     11  C         44.4910   21.1220   -5.1510 C.2    14  ASN14       0.2266
     12  O         44.5640   22.2680   -4.7240 O.2    14  ASN14      -0.2867
     13  CB        42.6440   20.2120   -3.7490 C.3    14  ASN14       0.1155
     14  CG        41.6190   20.1110   -4.8450 C.2    14  ASN14       0.2627
     15  OD1       41.8020   20.6150   -5.9580 O.2    14  ASN14      -0.2716
     16  ND2       40.5160   19.4700   -4.5340 N.am   14  ASN14      -0.0877
     17  N         40.5620   22.8320   -7.2020 N.3    17  LEU17      -0.1245
     18  CA        39.5870   23.7160   -6.5930 C.3    17  LEU17       0.1561
     19  C         40.1730   25.0840   -6.2930 C.2    17  LEU17       0.2260
     20  O         41.1450   25.2110   -5.5510 O.2    17  LEU17      -0.2867
     21  CB        39.0140   23.0740   -5.3260 C.3    17  LEU17       0.0270
     22  CG        37.7110   23.7370   -4.8840 C.3    17  LEU17       0.0019
     23  CD1       36.8190   22.7220   -4.2740 C.3    17  LEU17       0.0001
     24  CD2       37.9440   24.8640   -3.9040 C.3    17  LEU17       0.0001
     25  N         33.7200   29.2940   -5.3980 N.3    36  TYR36      -0.1241
     26  CA        34.8500   28.5170   -5.9190 C.3    36  TYR36       0.1605
     27  C         34.5530   27.8650   -7.2340 C.2    36  TYR36       0.2264
     28  O         33.4030   27.5870   -7.5480 O.2    36  TYR36      -0.2867
     29  CB        35.3060   27.4650   -4.8990 C.3    36  TYR36       0.0534
     30  CG        34.3570   26.3030   -4.7090 C.ar   36  TYR36      -0.0201
     31  CD1       34.3620   25.2320   -5.5890 C.ar   36  TYR36      -0.0009
     32  CD2       33.4810   26.2720   -3.6410 C.ar   36  TYR36      -0.0009
     33  CE1       33.5000   24.1780   -5.4220 C.ar   36  TYR36       0.0417
     34  CE2       32.6140   25.2100   -3.4630 C.ar   36  TYR36       0.0417
     35  CZ        32.6360   24.1690   -4.3540 C.ar   36  TYR36       0.1957
     36  OH        31.7750   23.1010   -4.1840 O.3    36  TYR36      -0.2866
     37  N         35.6240   24.4610   -9.2860 N.3    38  ASP38      -0.1239
     38  CA        36.2900   23.1630   -9.2040 C.3    38  ASP38       0.1674
     39  C         36.6910   22.7220  -10.6010 C.2    38  ASP38       0.2266
     40  O         35.9580   22.0110  -11.2640 O.2    38  ASP38      -0.2867
     41  CB        35.3460   22.1490   -8.5670 C.3    38  ASP38       0.1410
     42  CG        36.0250   20.8330   -8.2860 C.2    38  ASP38       0.3668
     43  OD1       37.2580   20.8220   -8.0760 O.co2  38  ASP38      -0.2456
     44  OD2       35.3350   19.7920   -8.2740 O.co2  38  ASP38      -0.2456
     45  N         29.0330   27.4250   -5.3420 N.3    67  SER67      -0.1202
     46  CA        29.7910   26.2400   -5.7390 C.3    67  SER67       0.2020
     47  C         29.6760   26.0810   -7.2430 C.2    67  SER67       0.2619
     48  O         28.5910   25.8200   -7.7570 O.2    67  SER67      -0.2717
     49  CB        29.2170   25.0000   -5.0690 C.3    67  SER67       0.2103
     50  OG        28.7640   25.2710   -3.7420 O.3    67  SER67      -0.2182
     51  N         30.7940   26.2270   -7.9490 N.am   68  ILE68      -0.1965
     52  CA        30.7670   26.1490   -9.4080 C.3    68  ILE68       0.1727
     53  C         31.4810   24.9340   -9.9940 C.2    68  ILE68       0.2617
     54  O         32.6920   24.7570   -9.8470 O.2    68  ILE68      -0.2715
     55  CB        31.2730   27.4450  -10.0170 C.3    68  ILE68       0.0290
     56  CG1       30.4700   28.5960   -9.3760 C.3    68  ILE68       0.0022
     57  CG2       31.1090   27.4170  -11.5200 C.3    68  ILE68       0.0023
     58  CD1       30.3340   29.7780  -10.2080 C.3    68  ILE68       0.0001
     59  N         30.6970   24.0890  -10.6570 N.am   69  GLY69      -0.1941
     60  CA        31.1760   22.8090  -11.1420 C.3    69  GLY69       0.1998
     61  C         32.1030   22.8880  -12.3370 C.2    69  GLY69       0.2480
     62  O         32.0900   23.8690  -13.0760 O.2    69  GLY69      -0.2729
     63  N         32.9050   21.8440  -12.5290 N.am   70  PRO70      -0.2726
     64  CA        33.8700   21.6610  -13.6120 C.3    70  PRO70       0.1402
     65  C         33.1750   21.8160  -14.9280 C.2    70  PRO70       0.2269
     66  O         32.1340   21.1990  -15.1450 O.2    70  PRO70      -0.2865
     67  CB        34.2750   20.1800  -13.4650 C.3    70  PRO70       0.0296
     68  CG        33.9050   19.8010  -12.1300 C.3    70  PRO70       0.0237
     69  CD        32.7460   20.6210  -11.7210 C.3    70  PRO70       0.0939
     70  N         24.4640   26.6520   -6.1380 N.3   120  TRP120     -0.1241
     71  CA        25.1430   25.4130   -6.5230 C.3   120  TRP120      0.1605
     72  C         24.9690   25.1990   -8.0220 C.2   120  TRP120      0.2264
     73  O         23.8530   25.0600   -8.5220 O.2   120  TRP120     -0.2867
     74  CB        24.5740   24.2380   -5.7090 C.3   120  TRP120      0.0550
     75  CG        25.1450   22.8840   -6.0510 C.ar  120  TRP120      0.0003
     76  CD1       26.2790   22.6290   -6.7510 C.ar  120  TRP120      0.0946
     77  CD2       24.5860   21.6090   -5.7090 C.ar  120  TRP120      0.0152
     78  NE1       26.4650   21.2750   -6.8670 N.ar  120  TRP120     -0.2442
     79  CE2       25.4390   20.6300   -6.2330 C.ar  120  TRP120      0.0810
     80  CE3       23.4490   21.2070   -5.0130 C.ar  120  TRP120      0.0012
     81  CZ2       25.1920   19.2760   -6.0830 C.ar  120  TRP120      0.0191
     82  CZ3       23.2060   19.8530   -4.8620 C.ar  120  TRP120      0.0001
     83  CH2       24.0700   18.9110   -5.3930 C.ar  120  TRP120      0.0015
@<TRIPOS>BOND
     1    66    65    2
     2    65    64    1
     3    64    67    1
     4    64    63    1
     5    67    68    1
     6    62    61    2
     7    63    61   am
     8    63    69    1
     9    61    60    1
    10    68    69    1
    11    57    55    1
    12    40    39    2
    13    60    59    1
    14    59    53   am
    15    39    38    1
    16    58    56    1
    17    55    52    1
    18    55    56    1
    19    53    54    2
    20    53    52    1
    21    52    51    1
    22    37    38    1
    23    38    41    1
    24    41    42    1
    25    73    72    2
    26    42    44   ar
    27    42    43   ar
    28    72    71    1
    29    51    47   am
    30    48    47    2
    31    28    27    2
    32    47    46    1
    33    27    26    1
    34    17    18    1
    35    78    76   ar
    36    78    79   ar
    37    76    75   ar
    38    18    19    1
    39    18    21    1
    40    71    70    1
    41    71    74    1
    42    19    20    2
    43    79    81   ar
    44    79    77   ar
    45    81    83   ar
    46    75    74    1
    47    75    77   ar
    48    15    14    2
    49    26    25    1
    50    26    29    1
    51    46    45    1
    52    46    49    1
    53    77    80   ar
    54    31    33   ar
    55    31    30   ar
    56    33    35   ar
    57    83    82   ar
    58    21    22    1
    59    11    12    2
    60    11    10    1
    61    49    50    1
    62    80    82   ar
    63    29    30    1
    64    22    23    1
    65    22    24    1
    66    14    16   am
    67    14    13    1
    68    30    32   ar
    69    35    36    1
    70    35    34   ar
    71    10    13    1
    72    10     9    1
    73    32    34   ar
    74     8     6    1
    75     4     3    2
    76     5     6    1
    77     5     7    1
    78     5     2    1
    79     1     2    1
    80     3     2    1
