@<TRIPOS>MOLECULE
tmp/4husC02.pdb
 139 137 0 0 0
SMALL
GASTEIGER

@<TRIPOS>ATOM
      1  N         33.3660   11.3390   -9.1070 N.3    51  TYR51      -0.1241
      2  CA        32.8890   11.5500   -7.7450 C.3    51  TYR51       0.1605
      3  C         32.6580   10.2400   -7.0260 C.2    51  TYR51       0.2264
      4  O         31.6840   10.0960   -6.2910 O.2    51  TYR51      -0.2867
      5  CB        31.5950   12.3500   -7.7760 C.3    51  TYR51       0.0534
      6  CG        31.7390   13.6960   -8.4290 C.ar   51  TYR51      -0.0201
      7  CD1       32.3810   14.7290   -7.7820 C.ar   51  TYR51      -0.0009
      8  CD2       31.2120   13.9290   -9.6820 C.ar   51  TYR51      -0.0009
      9  CE1       32.5070   15.9600   -8.3630 C.ar   51  TYR51       0.0417
     10  CE2       31.3310   15.1600  -10.2700 C.ar   51  TYR51       0.0417
     11  CZ        31.9790   16.1610   -9.6010 C.ar   51  TYR51       0.1957
     12  OH        32.1040   17.3900  -10.1790 O.3    51  TYR51      -0.2866
     13  N         33.6890    7.7220   -4.3600 N.3    53  TYR53      -0.1241
     14  CA        34.5080    7.6780   -3.1700 C.3    53  TYR53       0.1605
     15  C         34.1680    6.4870   -2.3060 C.2    53  TYR53       0.2264
     16  O         32.9990    6.1440   -2.1130 O.2    53  TYR53      -0.2867
     17  CB        34.4000    8.9850   -2.3900 C.3    53  TYR53       0.0534
     18  CG        34.7280   10.2020   -3.2230 C.ar   53  TYR53      -0.0201
     19  CD1       36.0140   10.4460   -3.6690 C.ar   53  TYR53      -0.0009
     20  CD2       33.7420   11.1060   -3.5530 C.ar   53  TYR53      -0.0009
     21  CE1       36.2990   11.5670   -4.4190 C.ar   53  TYR53       0.0417
     22  CE2       34.0200   12.2120   -4.2960 C.ar   53  TYR53       0.0417
     23  CZ        35.2920   12.4510   -4.7210 C.ar   53  TYR53       0.1957
     24  OH        35.5250   13.5810   -5.4730 O.3    53  TYR53      -0.2866
     25  N         34.4520    5.8890    0.8460 N.3    55  VAL55      -0.1231
     26  CA        33.7530    6.1530    2.0930 C.3    55  VAL55       0.1692
     27  C         32.2420    6.2440    1.8910 C.2    55  VAL55       0.2591
     28  O         31.4720    6.0500    2.8240 O.2    55  VAL55      -0.2718
     29  CB        34.2970    7.4300    2.7590 C.3    55  VAL55       0.0266
     30  CG1       33.9480    8.6540    1.9420 C.3    55  VAL55       0.0020
     31  CG2       33.7610    7.5570    4.1650 C.3    55  VAL55       0.0020
     32  N         31.8200    6.5260    0.6640 N.am   56  ILE56      -0.1980
     33  CA        30.3970    6.5020    0.3590 C.3    56  ILE56       0.1595
     34  C         29.9740    5.0790    0.0440 C.2    56  ILE56       0.2287
     35  O         28.8710    4.6640    0.3710 O.2    56  ILE56      -0.2864
     36  CB        30.0700    7.4640   -0.7840 C.3    56  ILE56       0.0276
     37  CG1       30.0890    8.8950   -0.2360 C.3    56  ILE56       0.0022
     38  CG2       28.7230    7.1660   -1.3620 C.3    56  ILE56       0.0022
     39  CD1       29.6010    9.9280   -1.1990 C.3    56  ILE56       0.0001
     40  N         29.2100   11.0240   -4.7840 N.3    78  GLY78      -0.1210
     41  CA        30.0540   12.0630   -4.2080 C.3    78  GLY78       0.1956
     42  C         29.7630   13.4360   -4.7880 C.2    78  GLY78       0.2612
     43  O         30.2720   14.4340   -4.3020 O.2    78  GLY78      -0.2717
     44  N         28.9410   13.4850   -5.8310 N.am   79  ALA79      -0.1965
     45  CA        28.6120   14.7430   -6.4820 C.3    79  ALA79       0.1728
     46  C         27.5750   15.5320   -5.7120 C.2    79  ALA79       0.2616
     47  O         27.5010   16.7370   -5.8450 O.2    79  ALA79      -0.2715
     48  CB        28.1130   14.4790   -7.8830 C.3    79  ALA79       0.0334
     49  N         26.7670   14.8510   -4.9130 N.am   80  ASN80      -0.1958
     50  CA        25.6620   15.5140   -4.2280 C.3    80  ASN80       0.1819
     51  C         26.0710   16.2900   -2.9780 C.2    80  ASN80       0.2621
     52  O         26.7760   15.7750   -2.1200 O.2    80  ASN80      -0.2715
     53  CB        24.5730   14.4870   -3.9000 C.3    80  ASN80       0.1195
     54  CG        23.8780   13.9640   -5.1520 C.2    80  ASN80       0.2630
     55  OD1       23.5410   14.7310   -6.0580 O.2    80  ASN80      -0.2716
     56  ND2       23.6620   12.6510   -5.2070 N.am   80  ASN80      -0.0877
     57  N         25.6380   17.5440   -2.8920 N.am   81  HIS81      -0.1959
     58  CA        25.8640   18.3550   -1.6960 C.3    81  HIS81       0.1787
     59  C         24.7240   18.1500   -0.7040 C.2    81  HIS81       0.2620
     60  O         23.6590   17.6590   -1.0650 O.2    81  HIS81      -0.2715
     61  CB        25.9040   19.8460   -2.0490 C.3    81  HIS81       0.0785
     62  CG        27.0650   20.2370   -2.9040 C.ar   81  HIS81       0.0821
     63  ND1       27.6550   21.4860   -2.8210 N.ar   81  HIS81      -0.2267
     64  CD2       27.7260   19.5670   -3.8860 C.ar   81  HIS81       0.1154
     65  CE1       28.6390   21.5640   -3.7000 C.ar   81  HIS81       0.1986
     66  NE2       28.7040   20.4150   -4.3600 N.ar   81  HIS81      -0.2212
     67  N         24.9310   18.5530    0.5440 N.am   82  ARG82      -0.1977
     68  CA        23.8340   18.5760    1.5030 C.3    82  ARG82       0.1597
     69  C         22.8150   19.6360    1.1110 C.2    82  ARG82       0.2287
     70  O         23.1780   20.7310    0.6980 O.2    82  ARG82      -0.2864
     71  CB        24.3670   18.8550    2.8990 C.3    82  ARG82       0.0334
     72  CG        23.3120   18.7600    3.9700 C.3    82  ARG82       0.0492
     73  CD        23.9520   18.7790    5.3260 C.3    82  ARG82       0.2205
     74  NE        22.9580   18.7070    6.3850 N.pl3  82  ARG82      -0.0865
     75  CZ        23.2770   18.6390    7.6700 C.cat  82  ARG82       0.5346
     76  NH1       22.3290   18.5770    8.5890 N.pl3  82  ARG82       0.1354
     77  NH2       24.5510   18.6360    8.0360 N.pl3  82  ARG82       0.1354
     78  N         29.9330   23.4780    0.7330 N.3    89  PRO89      -0.2116
     79  CA        30.6340   22.4380    1.5000 C.3    89  PRO89       0.1372
     80  C         31.7190   23.0040    2.4050 C.2    89  PRO89       0.2244
     81  O         32.9030   22.7760    2.1790 O.2    89  PRO89      -0.2868
     82  CB        31.2600   21.5870    0.3970 C.3    89  PRO89       0.0268
     83  CG        31.5190   22.5310   -0.6910 C.3    89  PRO89       0.0207
     84  CD        30.4800   23.6260   -0.6250 C.3    89  PRO89       0.0892
     85  N         33.0190   22.3200    5.2580 N.3    91  HIS91      -0.1226
     86  CA        33.9900   21.4460    5.9140 C.3    91  HIS91       0.1752
     87  C         35.2500   21.1720    5.1020 C.2    91  HIS91       0.2595
     88  O         36.3040   20.9340    5.6820 O.2    91  HIS91      -0.2718
     89  CB        33.3300   20.1320    6.3110 C.3    91  HIS91       0.0759
     90  CG        32.9770   19.2680    5.1490 C.ar   91  HIS91       0.0818
     91  ND1       33.7530   18.1860    4.7650 N.ar   91  HIS91      -0.2268
     92  CD2       31.9380   19.3220    4.2770 C.ar   91  HIS91       0.1154
     93  CE1       33.2010   17.6080    3.7120 C.ar   91  HIS91       0.1986
     94  NE2       32.1020   18.2770    3.3930 N.ar   91  HIS91      -0.2212
     95  N         35.1370   21.2250    3.7750 N.am   92  LEU92      -0.1980
     96  CA        36.2570   20.9170    2.8930 C.3    92  LEU92       0.1596
     97  C         37.4080   21.8750    3.0960 C.2    92  LEU92       0.2287
     98  O         38.5610   21.5400    2.8180 O.2    92  LEU92      -0.2864
     99  CB        35.8140   21.0180    1.4330 C.3    92  LEU92       0.0297
    100  CG        34.8530   19.9790    0.8690 C.3    92  LEU92       0.0022
    101  CD1       34.6300   20.2480   -0.5960 C.3    92  LEU92       0.0001
    102  CD2       35.4260   18.5970    1.0690 C.3    92  LEU92       0.0001
    103  N         31.4880   18.5800    9.0410 N.3   101  MET101     -0.1231
    104  CA        31.4310   17.4140    8.1640 C.3   101  MET101      0.1687
    105  C         30.1130   16.6880    8.3110 C.2   101  MET101      0.2434
    106  O         29.6970   16.3570    9.4130 O.2   101  MET101     -0.2733
    107  CB        32.5760   16.4570    8.4810 C.3   101  MET101      0.0400
    108  CG        32.5440   15.1740    7.6650 C.3   101  MET101      0.0596
    109  SD        33.6320   15.2110    6.2410 S.3   101  MET101     -0.1393
    110  CE        35.2120   15.3930    7.0520 C.3   101  MET101      0.0692
    111  N         29.4470   16.4400    7.1880 N.am  102  PRO102     -0.2718
    112  CA        28.1460   15.7830    7.2120 C.3   102  PRO102      0.1535
    113  C         28.2830   14.2930    7.4260 C.2   102  PRO102      0.2599
    114  O         29.2600   13.6830    7.0160 O.2   102  PRO102     -0.2715
    115  CB        27.6070   16.0570    5.8090 C.3   102  PRO102      0.0310
    116  CG        28.7950   16.1870    4.9780 C.3   102  PRO102      0.0237
    117  CD        29.8640   16.7940    5.8180 C.3   102  PRO102      0.0939
    118  N         27.3010   13.7080    8.0890 N.am  103  SER103     -0.1936
    119  CA        27.2660   12.2730    8.1890 C.3   103  SER103      0.2055
    120  C         26.6780   11.7890    6.8880 C.2   103  SER103      0.2642
    121  O         26.1070   12.5700    6.1350 O.2   103  SER103     -0.2714
    122  CB        26.3760   11.8590    9.3420 C.3   103  SER103      0.2130
    123  OG        25.0150   11.9540    8.9670 O.3   103  SER103     -0.2179
    124  N         26.8130   10.4960    6.6290 N.am  104  LEU104     -0.1977
    125  CA        26.2750    9.9290    5.4060 C.3   104  LEU104      0.1596
    126  C         24.7730   10.1070    5.3250 C.2   104  LEU104      0.2287
    127  O         24.2280   10.2610    4.2390 O.2   104  LEU104     -0.2864
    128  CB        26.6270    8.4450    5.3060 C.3   104  LEU104      0.0297
    129  CG        28.1020    8.0990    5.0750 C.3   104  LEU104      0.0022
    130  CD1       28.3140    6.5860    5.0070 C.3   104  LEU104      0.0001
    131  CD2       28.6180    8.7660    3.8170 C.3   104  LEU104      0.0001
    132  N         23.4440   13.3370    3.7250 N.3   107  LEU107     -0.1245
    133  CA        23.5540   13.4850    2.2810 C.3   107  LEU107      0.1561
    134  C         22.4360   12.7390    1.5930 C.2   107  LEU107      0.2260
    135  O         21.9560   11.7360    2.1020 O.2   107  LEU107     -0.2867
    136  CB        24.9150   12.9740    1.8050 C.3   107  LEU107      0.0270
    137  CG        26.0660   13.7620    2.4360 C.3   107  LEU107      0.0019
    138  CD1       27.3750   13.0680    2.2530 C.3   107  LEU107      0.0001
    139  CD2       26.1320   15.1640    1.8620 C.3   107  LEU107      0.0001
@<TRIPOS>BOND
     1    10     8   ar
     2    10    11   ar
     3    12    11    1
     4     8     6   ar
     5    11     9   ar
     6     1     2    1
     7     6     7   ar
     8     6     5    1
     9     9     7   ar
    10    48    45    1
    11     5     2    1
    12     2     3    1
    13     3     4    2
    14    45    44    1
    15    45    46    1
    16    55    54    2
    17    47    46    2
    18    44    42   am
    19    46    49   am
    20    24    23    1
    21    56    54   am
    22    54    53    1
    23    49    50    1
    24    42    43    2
    25    42    41    1
    26    40    41    1
    27    23    21   ar
    28    23    22   ar
    29    21    19   ar
    30    13    14    1
    31    66    64   ar
    32    66    65   ar
    33    22    20   ar
    34    50    53    1
    35    50    51    1
    36    64    62   ar
    37    65    63   ar
    38    19    18   ar
    39    20    18   ar
    40    18    17    1
    41    14    17    1
    42    14    15    1
    43    51    57   am
    44    51    52    2
    45    62    63   ar
    46    62    61    1
    47    57    58    1
    48    15    16    2
    49    61    58    1
    50    58    59    1
    51    38    36    1
    52    39    37    1
    53    60    59    2
    54    36    37    1
    55    36    33    1
    56    59    67   am
    57    83    84    1
    58    83    82    1
    59    84    78    1
    60   101   100    1
    61    34    33    1
    62    34    35    2
    63    33    32    1
    64    82    79    1
    65    67    68    1
    66    32    27   am
    67    70    69    2
    68    78    79    1
    69    25    26    1
    70   100   102    1
    71   100    99    1
    72    69    68    1
    73    99    96    1
    74    79    80    1
    75    68    71    1
    76   134   135    2
    77   134   133    1
    78   136   133    1
    79   136   137    1
    80   139   137    1
    81    27    26    1
    82    27    28    2
    83    30    29    1
    84    26    29    1
    85    81    80    2
    86   138   137    1
    87   133   132    1
    88    29    31    1
    89    98    97    2
    90    96    97    1
    91    96    95    1
    92    71    72    1
    93    94    93   ar
    94    94    92   ar
    95    93    91   ar
    96    95    87   am
    97   131   129    1
    98    72    73    1
    99   127   126    2
   100    92    90   ar
   101    91    90   ar
   102   116   115    1
   103   116   117    1
   104   130   129    1
   105   129   128    1
   106    87    88    2
   107    87    86    1
   108    90    89    1
   109    85    86    1
   110   128   125    1
   111   126   125    1
   112    73    74    1
   113   125   124    1
   114   115   112    1
   115   117   111    1
   116    86    89    1
   117   121   120    2
   118   109   110    1
   119   109   108    1
   120    74    75    2
   121   124   120   am
   122   120   119    1
   123   114   113    2
   124   111   112    1
   125   111   105   am
   126   112   113    1
   127   113   118   am
   128   108   107    1
   129    75    77    1
   130    75    76    1
   131   118   119    1
   132   104   105    1
   133   104   107    1
   134   104   103    1
   135   119   122    1
   136   105   106    2
   137   123   122    1
