@<TRIPOS>MOLECULE
tmp/4husB02.pdb
 95 93 0 0 0
SMALL
GASTEIGER

@<TRIPOS>ATOM
      1  N         39.3440   30.5370  -37.1110 N.3    18  LEU18      -0.1245
      2  CA        38.2260   30.6090  -38.0310 C.3    18  LEU18       0.1561
      3  C         38.6680   30.2570  -39.4390 C.2    18  LEU18       0.2260
      4  O         39.5510   30.8980  -40.0100 O.2    18  LEU18      -0.2867
      5  CB        37.6220   32.0110  -37.9700 C.3    18  LEU18       0.0270
      6  CG        36.2880   32.1530  -38.6970 C.3    18  LEU18       0.0019
      7  CD1       35.3510   32.9910  -37.8670 C.3    18  LEU18       0.0001
      8  CD2       36.4980   32.7760  -40.0570 C.3    18  LEU18       0.0001
      9  N         31.9730   28.9810  -42.9770 N.3    37  TYR37      -0.1241
     10  CA        33.1360   28.9000  -42.1230 C.3    37  TYR37       0.1605
     11  C         32.9230   28.0240  -40.9130 C.2    37  TYR37       0.2264
     12  O         31.7960   27.7900  -40.4790 O.2    37  TYR37      -0.2867
     13  CB        33.6140   30.3090  -41.7290 C.3    37  TYR37       0.0534
     14  CG        32.7530   31.0260  -40.7340 C.ar   37  TYR37      -0.0201
     15  CD1       32.9110   30.8090  -39.3720 C.ar   37  TYR37      -0.0009
     16  CD2       31.8180   31.9510  -41.1460 C.ar   37  TYR37      -0.0009
     17  CE1       32.1420   31.4830  -38.4570 C.ar   37  TYR37       0.0417
     18  CE2       31.0400   32.6350  -40.2290 C.ar   37  TYR37       0.0417
     19  CZ        31.2150   32.3920  -38.8950 C.ar   37  TYR37       0.1957
     20  OH        30.4360   33.0610  -37.9800 O.3    37  TYR37      -0.2866
     21  N         34.4610   28.0000  -37.0650 N.3    39  ASP39      -0.1239
     22  CA        35.2580   28.7210  -36.0830 C.3    39  ASP39       0.1674
     23  C         35.7420   27.7350  -35.0370 C.2    39  ASP39       0.2266
     24  O         35.0870   27.5240  -34.0230 O.2    39  ASP39      -0.2867
     25  CB        34.3980   29.8140  -35.4310 C.3    39  ASP39       0.1410
     26  CG        35.1930   30.6890  -34.5070 C.2    39  ASP39       0.3668
     27  OD1       36.4300   30.7530  -34.6580 O.co2  39  ASP39      -0.2456
     28  OD2       34.6020   31.3230  -33.6170 O.co2  39  ASP39      -0.2456
     29  N         27.5440   29.8380  -40.9520 N.3    68  SER68      -0.1202
     30  CA        28.3820   30.1420  -39.7970 C.3    68  SER68       0.2020
     31  C         28.3060   28.9830  -38.8390 C.2    68  SER68       0.2619
     32  O         27.2910   28.7840  -38.1800 O.2    68  SER68      -0.2717
     33  CB        27.8510   31.3800  -39.0860 C.3    68  SER68       0.2103
     34  OG        27.7690   32.4840  -39.9720 O.3    68  SER68      -0.2182
     35  N         29.3830   28.2130  -38.7570 N.am   69  ILE69      -0.1965
     36  CA        29.3740   27.0220  -37.9290 C.3    69  ILE69       0.1727
     37  C         30.2600   27.1790  -36.7010 C.2    69  ILE69       0.2617
     38  O         31.4620   27.3740  -36.7920 O.2    69  ILE69      -0.2715
     39  CB        29.7590   25.8060  -38.7760 C.3    69  ILE69       0.0290
     40  CG1       28.7490   25.6960  -39.9250 C.3    69  ILE69       0.0022
     41  CG2       29.7770   24.5560  -37.9360 C.3    69  ILE69       0.0023
     42  CD1       29.0010   24.5780  -40.8320 C.3    69  ILE69       0.0001
     43  N         29.6340   27.1130  -35.5380 N.am   70  GLY70      -0.1941
     44  CA        30.3220   27.3710  -34.2910 C.3    70  GLY70       0.1998
     45  C         31.2430   26.2630  -33.8510 C.2    70  GLY70       0.2480
     46  O         31.1350   25.1320  -34.3060 O.2    70  GLY70      -0.2729
     47  N         32.1630   26.5920  -32.9470 N.am   71  PRO71      -0.2726
     48  CA        33.1710   25.6710  -32.4140 C.3    71  PRO71       0.1402
     49  C         32.5510   24.4490  -31.7920 C.2    71  PRO71       0.2269
     50  O         31.5660   24.5460  -31.0620 O.2    71  PRO71      -0.2865
     51  CB        33.8610   26.5070  -31.3230 C.3    71  PRO71       0.0296
     52  CG        32.9850   27.6570  -31.0840 C.3    71  PRO71       0.0237
     53  CD        32.2650   27.9320  -32.3450 C.3    71  PRO71       0.0939
     54  N         23.0620   29.5690  -39.4350 N.3   121  TRP121     -0.1227
     55  CA        23.8650   29.8740  -38.2610 C.3   121  TRP121      0.1737
     56  C         23.7620   28.7390  -37.2740 C.2   121  TRP121      0.2595
     57  O         22.7080   28.4930  -36.6980 O.2   121  TRP121     -0.2718
     58  CB        23.3920   31.1830  -37.6240 C.3   121  TRP121      0.0564
     59  CG        24.1390   31.5680  -36.3630 C.ar  121  TRP121      0.0003
     60  CD1       25.3470   31.0990  -35.9590 C.ar  121  TRP121      0.0946
     61  CD2       23.7110   32.4970  -35.3610 C.ar  121  TRP121      0.0152
     62  NE1       25.7000   31.6730  -34.7610 N.ar  121  TRP121     -0.2442
     63  CE2       24.7120   32.5340  -34.3750 C.ar  121  TRP121      0.0810
     64  CE3       22.5800   33.2980  -35.2040 C.ar  121  TRP121      0.0012
     65  CZ2       24.6200   33.3360  -33.2460 C.ar  121  TRP121      0.0191
     66  CZ3       22.4870   34.0950  -34.0760 C.ar  121  TRP121      0.0001
     67  CH2       23.5000   34.1070  -33.1120 C.ar  121  TRP121      0.0015
     68  N         24.8800   28.0530  -37.0730 N.am  122  ILE122     -0.1966
     69  CA        24.9060   26.9280  -36.1540 C.3   122  ILE122      0.1727
     70  C         25.7580   27.2460  -34.9510 C.2   122  ILE122      0.2617
     71  O         26.9460   27.5120  -35.0640 O.2   122  ILE122     -0.2715
     72  CB        25.4290   25.6740  -36.8430 C.3   122  ILE122      0.0290
     73  CG1       24.5100   25.3220  -38.0110 C.3   122  ILE122      0.0022
     74  CG2       25.4600   24.5270  -35.8750 C.3   122  ILE122      0.0023
     75  CD1       24.8590   24.0050  -38.6450 C.3   122  ILE122      0.0001
     76  N         25.1250   27.2210  -33.7830 N.am  123  GLY123     -0.1940
     77  CA        25.7810   27.6030  -32.5450 C.3   123  GLY123      0.2014
     78  C         26.8500   26.6500  -32.0500 C.2   123  GLY123      0.2638
     79  O         27.0020   25.5380  -32.5550 O.2   123  GLY123     -0.2714
     80  N         27.5880   27.0970  -31.0430 N.am  124  ARG124     -0.1977
     81  CA        28.6230   26.2810  -30.4100 C.3   124  ARG124      0.1597
     82  C         28.1480   24.9140  -29.9100 C.2   124  ARG124      0.2287
     83  O         27.0590   24.7800  -29.3520 O.2   124  ARG124     -0.2864
     84  CB        29.2510   27.0800  -29.2730 C.3   124  ARG124      0.0334
     85  CG        30.1240   26.2670  -28.3440 C.3   124  ARG124      0.0492
     86  CD        30.6320   27.1250  -27.2030 C.3   124  ARG124      0.2205
     87  NE        32.0030   27.5470  -27.4330 N.pl3 124  ARG124     -0.0865
     88  CZ        33.0440   27.0150  -26.8060 C.cat 124  ARG124      0.5346
     89  NH1       32.8530   26.0620  -25.8990 N.pl3 124  ARG124      0.1354
     90  NH2       34.2680   27.4560  -27.0740 N.pl3 124  ARG124      0.1354
     91  N         23.0820   27.0210  -29.4750 N.3   142  ALA142     -0.1245
     92  CA        24.2050   26.3200  -28.8730 C.3   142  ALA142      0.1562
     93  C         23.7650   25.1140  -28.0710 C.2   142  ALA142      0.2260
     94  O         22.7770   25.1520  -27.3300 O.2   142  ALA142     -0.2867
     95  CB        25.0080   27.2720  -27.9960 C.3   142  ALA142      0.0290
@<TRIPOS>BOND
     1     9    10    1
     2    10    13    1
     3    10    11    1
     4    13    14    1
     5    16    14   ar
     6    16    18   ar
     7    29    30    1
     8    11    12    2
     9    42    40    1
    10    14    15   ar
    11    18    19   ar
    12     8     6    1
    13     4     3    2
    14    34    33    1
    15    40    39    1
    16    30    33    1
    17    30    31    1
    18     3     2    1
    19    54    55    1
    20    15    17   ar
    21    19    17   ar
    22    19    20    1
    23    31    35   am
    24    31    32    2
    25    39    41    1
    26    39    36    1
    27    35    36    1
    28     6     5    1
    29     6     7    1
    30    75    73    1
    31    55    58    1
    32    55    56    1
    33     2     5    1
    34     2     1    1
    35    73    72    1
    36    36    37    1
    37    58    59    1
    38    56    68   am
    39    56    57    2
    40    68    69    1
    41    21    22    1
    42    72    69    1
    43    72    74    1
    44    38    37    2
    45    37    43   am
    46    59    60   ar
    47    59    61   ar
    48    69    70    1
    49    22    25    1
    50    22    23    1
    51    60    62   ar
    52    43    44    1
    53    25    26    1
    54    61    64   ar
    55    61    63   ar
    56    64    66   ar
    57    71    70    2
    58    23    24    2
    59    70    76   am
    60    62    63   ar
    61    27    26   ar
    62    26    28   ar
    63    63    65   ar
    64    46    45    2
    65    44    45    1
    66    66    67   ar
    67    45    47   am
    68    76    77    1
    69    65    67   ar
    70    47    48    1
    71    47    53    1
    72    79    78    2
    73    77    78    1
    74    48    49    1
    75    48    51    1
    76    53    52    1
    77    78    80   am
    78    49    50    2
    79    51    52    1
    80    80    81    1
    81    81    82    1
    82    81    84    1
    83    82    83    2
    84    91    92    1
    85    84    85    1
    86    92    93    1
    87    92    95    1
    88    85    86    1
    89    93    94    2
    90    87    86    1
    91    87    88    2
    92    90    88    1
    93    88    89    1
