@<TRIPOS>MOLECULE
tmp/4husA00.pdb
 82 81 0 0 0
SMALL
GASTEIGER

@<TRIPOS>ATOM
      1  N         35.6240   24.4610   -9.2860 N.3    38  ASP38      -0.1239
      2  CA        36.2900   23.1630   -9.2040 C.3    38  ASP38       0.1674
      3  C         36.6910   22.7220  -10.6010 C.2    38  ASP38       0.2266
      4  O         35.9580   22.0110  -11.2640 O.2    38  ASP38      -0.2867
      5  CB        35.3460   22.1490   -8.5670 C.3    38  ASP38       0.1410
      6  CG        36.0250   20.8330   -8.2860 C.2    38  ASP38       0.3668
      7  OD1       37.2580   20.8220   -8.0760 O.co2  38  ASP38      -0.2456
      8  OD2       35.3350   19.7920   -8.2740 O.co2  38  ASP38      -0.2456
      9  N         30.6970   24.0890  -10.6570 N.3    69  GLY69      -0.1210
     10  CA        31.1760   22.8090  -11.1420 C.3    69  GLY69       0.1940
     11  C         32.1030   22.8880  -12.3370 C.2    69  GLY69       0.2453
     12  O         32.0900   23.8690  -13.0760 O.2    69  GLY69      -0.2732
     13  N         32.9050   21.8440  -12.5290 N.am   70  PRO70      -0.2728
     14  CA        33.8700   21.6610  -13.6120 C.3    70  PRO70       0.1401
     15  C         33.1750   21.8160  -14.9280 C.2    70  PRO70       0.2269
     16  O         32.1340   21.1990  -15.1450 O.2    70  PRO70      -0.2865
     17  CB        34.2750   20.1800  -13.4650 C.3    70  PRO70       0.0296
     18  CG        33.9050   19.8010  -12.1300 C.3    70  PRO70       0.0237
     19  CD        32.7460   20.6210  -11.7210 C.3    70  PRO70       0.0939
     20  N         24.4640   26.6520   -6.1380 N.3   120  TRP120     -0.1227
     21  CA        25.1430   25.4130   -6.5230 C.3   120  TRP120      0.1737
     22  C         24.9690   25.1990   -8.0220 C.2   120  TRP120      0.2595
     23  O         23.8530   25.0600   -8.5220 O.2   120  TRP120     -0.2718
     24  CB        24.5740   24.2380   -5.7090 C.3   120  TRP120      0.0564
     25  CG        25.1450   22.8840   -6.0510 C.ar  120  TRP120      0.0003
     26  CD1       26.2790   22.6290   -6.7510 C.ar  120  TRP120      0.0946
     27  CD2       24.5860   21.6090   -5.7090 C.ar  120  TRP120      0.0152
     28  NE1       26.4650   21.2750   -6.8670 N.ar  120  TRP120     -0.2442
     29  CE2       25.4390   20.6300   -6.2330 C.ar  120  TRP120      0.0810
     30  CE3       23.4490   21.2070   -5.0130 C.ar  120  TRP120      0.0012
     31  CZ2       25.1920   19.2760   -6.0830 C.ar  120  TRP120      0.0191
     32  CZ3       23.2060   19.8530   -4.8620 C.ar  120  TRP120      0.0001
     33  CH2       24.0700   18.9110   -5.3930 C.ar  120  TRP120      0.0015
     34  N         26.0840   25.1900   -8.7420 N.am  121  ILE121     -0.1966
     35  CA        26.0420   24.9850  -10.1950 C.3   121  ILE121      0.1727
     36  C         26.7660   23.7220  -10.5820 C.2   121  ILE121      0.2617
     37  O         27.9670   23.5770  -10.3630 O.2   121  ILE121     -0.2715
     38  CB        26.6210   26.1950  -10.9740 C.3   121  ILE121      0.0290
     39  CG1       25.8510   27.4590  -10.6000 C.3   121  ILE121      0.0022
     40  CG2       26.5170   25.9820  -12.4820 C.3   121  ILE121      0.0023
     41  CD1       26.3500   28.6570  -11.2930 C.3   121  ILE121      0.0001
     42  N         26.0120   22.7990  -11.1660 N.am  122  GLY122     -0.1940
     43  CA        26.5380   21.4890  -11.5050 C.3   122  GLY122      0.2014
     44  C         27.5620   21.4790  -12.6140 C.2   122  GLY122      0.2638
     45  O         27.7860   22.4770  -13.3090 O.2   122  GLY122     -0.2714
     46  N         28.2100   20.3300  -12.7690 N.am  123  ARG123     -0.1977
     47  CA        29.2540   20.1600  -13.7690 C.3   123  ARG123      0.1597
     48  C         28.7010   20.2730  -15.1830 C.2   123  ARG123      0.2287
     49  O         27.5980   19.8100  -15.4730 O.2   123  ARG123     -0.2864
     50  CB        29.9550   18.8120  -13.5870 C.3   123  ARG123      0.0334
     51  CG        30.8290   18.4030  -14.7610 C.3   123  ARG123      0.0492
     52  CD        31.2140   16.9350  -14.6780 C.3   123  ARG123      0.2205
     53  NE        32.6220   16.7560  -14.3400 N.pl3 123  ARG123     -0.0865
     54  CZ        33.5520   16.3530  -15.2000 C.cat 123  ARG123      0.5346
     55  NH1       33.2240   16.0850  -16.4560 N.pl3 123  ARG123      0.1354
     56  NH2       34.8100   16.2180  -14.8040 N.pl3 123  ARG123      0.1354
     57  N         19.8670   25.8530   -7.3650 N.3   138  ILE138     -0.1231
     58  CA        20.6120   24.6480   -7.7190 C.3   138  ILE138      0.1692
     59  C         20.3790   24.3080   -9.1840 C.2   138  ILE138      0.2592
     60  O         19.2590   24.0730   -9.6150 O.2   138  ILE138     -0.2718
     61  CB        20.1820   23.4550   -6.8500 C.3   138  ILE138      0.0266
     62  CG1       20.6120   23.6860   -5.4010 C.3   138  ILE138      0.0019
     63  CG2       20.8130   22.1760   -7.3730 C.3   138  ILE138      0.0020
     64  CD1       19.9850   22.7470   -4.4090 C.3   138  ILE138      0.0001
     65  N         21.4560   24.2900   -9.9530 N.am  139  ILE139     -0.1966
     66  CA        21.3550   23.9780  -11.3630 C.3   139  ILE139      0.1727
     67  C         21.9570   22.6130  -11.5940 C.2   139  ILE139      0.2616
     68  O         23.1260   22.3740  -11.2730 O.2   139  ILE139     -0.2715
     69  CB        22.1380   24.9880  -12.2270 C.3   139  ILE139      0.0290
     70  CG1       22.0270   26.4130  -11.6770 C.3   139  ILE139      0.0022
     71  CG2       21.6940   24.8960  -13.6660 C.3   139  ILE139      0.0023
     72  CD1       20.7160   27.0470  -11.8440 C.3   139  ILE139      0.0001
     73  N         21.1530   21.7220  -12.1610 N.am  140  ALA140     -0.1963
     74  CA        21.5760   20.3530  -12.4480 C.3   140  ALA140      0.1728
     75  C         22.7110   20.3070  -13.4350 C.2   140  ALA140      0.2616
     76  O         22.8100   21.1460  -14.3270 O.2   140  ALA140     -0.2715
     77  CB        20.4030   19.5670  -12.9940 C.3   140  ALA140      0.0334
     78  N         23.5670   19.3090  -13.2710 N.am  141  ALA141     -0.1977
     79  CA        24.6460   19.0760  -14.2220 C.3   141  ALA141      0.1597
     80  C         24.1340   18.9830  -15.6610 C.2   141  ALA141      0.2287
     81  O         23.0300   18.4990  -15.9070 O.2   141  ALA141     -0.2864
     82  CB        25.3980   17.8080  -13.8350 C.3   141  ALA141      0.0319
@<TRIPOS>BOND
     1    55    54    1
     2    81    80    2
     3    80    79    1
     4    49    48    2
     5    54    56    1
     6    54    53    2
     7    48    47    1
     8    16    15    2
     9    15    14    1
    10    51    52    1
    11    51    50    1
    12    52    53    1
    13    76    75    2
    14    79    82    1
    15    79    78    1
    16    47    50    1
    17    47    46    1
    18    71    69    1
    19    14    17    1
    20    14    13    1
    21    17    18    1
    22    75    78   am
    23    75    74    1
    24    45    44    2
    25    12    11    2
    26    77    74    1
    27    46    44   am
    28    44    43    1
    29    13    11   am
    30    13    19    1
    31    40    38    1
    32    74    73    1
    33    11    10    1
    34    69    70    1
    35    69    66    1
    36    73    67   am
    37    18    19    1
    38    72    70    1
    39    67    66    1
    40    67    68    2
    41    43    42    1
    42    66    65    1
    43    41    39    1
    44     4     3    2
    45    42    36   am
    46    10     9    1
    47    38    39    1
    48    38    35    1
    49     3     2    1
    50    36    37    2
    51    36    35    1
    52    35    34    1
    53    65    59   am
    54    60    59    2
    55     1     2    1
    56     2     5    1
    57    59    58    1
    58    34    22   am
    59     5     6    1
    60    23    22    2
    61     6     8   ar
    62     6     7   ar
    63    22    21    1
    64    58    57    1
    65    58    61    1
    66    63    61    1
    67    28    26   ar
    68    28    29   ar
    69    61    62    1
    70    26    25   ar
    71    21    20    1
    72    21    24    1
    73    29    31   ar
    74    29    27   ar
    75    31    33   ar
    76    25    24    1
    77    25    27   ar
    78    27    30   ar
    79    62    64    1
    80    33    32   ar
    81    30    32   ar
