@<TRIPOS>MOLECULE
tmp/4hutA01.pdb
 188 184 0 0 0
SMALL
GASTEIGER

@<TRIPOS>ATOM
      1  N        -25.7850  -15.6350   18.3960 N.3    32  ASN32      -0.1296
      2  CA       -26.5730  -15.0450   17.3130 C.3    32  ASN32       0.1339
      3  C        -27.4930  -13.9090   17.7330 C.3    32  ASN32       0.2014
      4  O        -28.1030  -13.1820   16.8570 O.3    32  ASN32      -0.2188
      5  CB       -27.4400  -16.1230   16.6560 C.3    32  ASN32       0.1102
      6  CG       -26.6110  -17.0780   15.8190 C.2    32  ASN32       0.2623
      7  OD1      -27.0970  -18.1060   15.4130 O.2    32  ASN32      -0.2716
      8  ND2      -25.3600  -16.7440   15.5810 N.am   32  ASN32      -0.0877
      9  N        -15.4510   -4.4160    9.6290 N.3    60  ILE60      -0.1231
     10  CA       -16.4410   -4.1740    8.5920 C.3    60  ILE60       0.1692
     11  C        -16.3270   -2.7460    8.1320 C.2    60  ILE60       0.2591
     12  O        -15.8060   -1.9280    8.8650 O.2    60  ILE60      -0.2718
     13  CB       -17.8560   -4.4720    9.0580 C.3    60  ILE60       0.0266
     14  CG1      -18.2660   -3.5880   10.2470 C.3    60  ILE60       0.0019
     15  CG2      -18.0040   -6.0080    9.2830 C.3    60  ILE60       0.0020
     16  CD1      -19.7760   -3.6790   10.4290 C.3    60  ILE60       0.0001
     17  N        -16.7790   -2.4770    6.9070 N.am   61  LYS61      -0.1980
     18  CA       -16.6850   -1.1620    6.2690 C.3    61  LYS61       0.1596
     19  C        -17.6170   -0.1920    7.0330 C.2    61  LYS61       0.2287
     20  O        -18.5140   -0.6410    7.7550 O.2    61  LYS61      -0.2864
     21  CB       -17.0630   -1.2750    4.7880 C.3    61  LYS61       0.0298
     22  CG       -18.5220   -1.7150    4.5440 C.3    61  LYS61       0.0038
     23  CD       -18.9270   -1.7390    3.0660 C.3    61  LYS61       0.0206
     24  CE       -18.0610   -2.6640    2.2150 C.3    61  LYS61       0.1093
     25  NZ       -18.3440   -2.5930    0.7400 N.3    61  LYS61      -0.1314
     26  N        -19.6870    2.3260    5.8540 N.3    63  THR63      -0.1203
     27  CA       -20.5980    3.0620    4.9840 C.3    63  THR63       0.1994
     28  C        -21.9480    3.4430    5.6500 C.2    63  THR63       0.2618
     29  O        -22.5700    4.4260    5.2730 O.2    63  THR63      -0.2717
     30  CB       -20.9210    2.2440    3.7440 C.3    63  THR63       0.1784
     31  OG1      -21.6270    1.0790    4.1800 O.3    63  THR63      -0.2211
     32  CG2      -19.6360    1.8690    2.9960 C.3    63  THR63       0.0376
     33  N        -22.4330    2.6560    6.5990 N.am   64  TRP64      -0.1962
     34  CA       -23.6530    3.0600    7.3370 C.3    64  TRP64       0.1760
     35  C        -23.3340    4.0780    8.4230 C.2    64  TRP64       0.2499
     36  O        -22.2440    4.0320    8.9780 O.2    64  TRP64      -0.2727
     37  CB       -24.3300    1.8450    7.9280 C.3    64  TRP64       0.0590
     38  CG       -25.0920    1.1380    6.8810 C.ar   64  TRP64       0.0006
     39  CD1      -24.6110    0.7090    5.6410 C.ar   64  TRP64       0.0946
     40  CD2      -26.4860    0.7910    6.9140 C.ar   64  TRP64       0.0152
     41  NE1      -25.6190    0.0980    4.9380 N.ar   64  TRP64      -0.2442
     42  CE2      -26.7810    0.1350    5.6850 C.ar   64  TRP64       0.0810
     43  CE3      -27.5190    0.9510    7.8640 C.ar   64  TRP64       0.0012
     44  CZ2      -28.0690   -0.3430    5.3840 C.ar   64  TRP64       0.0191
     45  CZ3      -28.8330    0.4360    7.5530 C.ar   64  TRP64       0.0001
     46  CH2      -29.0760   -0.1940    6.3390 C.ar   64  TRP64       0.0015
     47  N        -24.2800    4.9950    8.7370 N.am   65  PRO65      -0.2504
     48  CA       -23.9750    5.9400    9.8050 C.3    65  PRO65       0.1487
     49  C        -23.7520    5.1600   11.1180 C.2    65  PRO65       0.2276
     50  O        -24.3230    4.0790   11.3300 O.2    65  PRO65      -0.2865
     51  CB       -25.2050    6.8420    9.8790 C.3    65  PRO65       0.0556
     52  CG       -26.2260    6.2470    8.9820 C.2    65  PRO65      -0.0078
     53  CD       -25.6820    5.0630    8.2710 C.2    65  PRO65       0.0634
     54  N        -22.2270    4.9110   17.6700 N.3    68  GLU68      -0.1245
     55  CA       -21.2380    4.6740   18.6840 C.3    68  GLU68       0.1567
     56  C        -19.9830    5.4070   18.2550 C.2    68  GLU68       0.2260
     57  O        -19.3330    5.9920   19.1150 O.2    68  GLU68      -0.2867
     58  CB       -20.8050    3.1790   18.8470 C.3    68  GLU68       0.0388
     59  CG       -21.8290    2.1070   18.9260 C.3    68  GLU68       0.1160
     60  CD       -22.3540    1.7150   17.5650 C.2    68  GLU68       0.3649
     61  OE1      -23.3160    2.3500   17.1550 O.co2  68  GLU68      -0.2457
     62  OE2      -21.8580    0.7540   16.9590 O.co2  68  GLU68      -0.2457
     63  N        -15.7170   -6.7860   -0.2250 N.3    87  THR87      -0.1203
     64  CA       -16.8260   -7.4640   -0.8930 C.3    87  THR87       0.1994
     65  C        -17.3880   -8.7430   -0.3000 C.2    87  THR87       0.2617
     66  O        -18.5300   -9.0130   -0.4830 O.2    87  THR87      -0.2717
     67  CB       -16.5200   -7.7670   -2.3670 C.3    87  THR87       0.1784
     68  OG1      -15.5920   -8.8310   -2.4590 O.3    87  THR87      -0.2211
     69  CG2      -15.9400   -6.5770   -3.0510 C.3    87  THR87       0.0376
     70  N        -16.5560   -9.5630    0.3180 N.am   88  TRP88      -0.1975
     71  CA       -16.9460  -10.8690    0.7990 C.3    88  TRP88       0.1640
     72  C        -17.0040  -11.8730   -0.2880 C.2    88  TRP88       0.2290
     73  O        -17.2870  -13.0260   -0.0420 O.2    88  TRP88      -0.2864
     74  CB       -18.3060  -10.8460    1.4720 C.3    88  TRP88       0.0576
     75  CG       -18.3400  -10.0760    2.7380 C.ar   88  TRP88       0.0006
     76  CD1      -18.7510   -8.7870    2.9160 C.ar   88  TRP88       0.0946
     77  CD2      -17.9040  -10.5070    4.0540 C.ar   88  TRP88       0.0152
     78  NE1      -18.6240   -8.4190    4.1880 N.ar   88  TRP88      -0.2442
     79  CE2      -18.1120   -9.3890    4.9240 C.ar   88  TRP88       0.0810
     80  CE3      -17.3890  -11.6580    4.5640 C.ar   88  TRP88       0.0012
     81  CZ2      -17.8170   -9.4410    6.2540 C.ar   88  TRP88       0.0191
     82  CZ3      -17.0810  -11.6990    5.8950 C.ar   88  TRP88       0.0001
     83  CH2      -17.2940  -10.6120    6.7210 C.ar   88  TRP88       0.0015
     84  N        -16.3240   -7.5960   15.2740 N.3   123  GLU123     -0.1245
     85  CA       -16.5330   -8.5340   14.1400 C.3   123  GLU123      0.1567
     86  C        -15.2600   -9.2390   13.6880 C.2   123  GLU123      0.2260
     87  O        -15.1750   -9.7030   12.5690 O.2   123  GLU123     -0.2867
     88  CB       -17.2480   -7.9080   12.9040 C.3   123  GLU123      0.0388
     89  CG       -18.1950   -6.7850   13.2390 C.3   123  GLU123      0.1160
     90  CD       -19.4010   -7.3160   13.9810 C.2   123  GLU123      0.3649
     91  OE1      -19.4750   -8.5600   14.2030 O.co2 123  GLU123     -0.2457
     92  OE2      -20.2600   -6.4480   14.3540 O.co2 123  GLU123     -0.2457
     93  N        -15.3350  -13.2270   12.1080 N.3   126  TYR126     -0.1241
     94  CA       -15.4500  -13.5850   10.6750 C.3   126  TYR126      0.1605
     95  C        -14.1540  -13.6190    9.9260 C.2   126  TYR126      0.2264
     96  O        -14.0300  -14.3860    8.9560 O.2   126  TYR126     -0.2867
     97  CB       -16.4210  -12.6790    9.9220 C.3   126  TYR126      0.0534
     98  CG       -17.7170  -12.5930   10.6110 C.ar  126  TYR126     -0.0201
     99  CD1      -18.0420  -11.4360   11.3700 C.ar  126  TYR126     -0.0009
    100  CD2      -18.6030  -13.6660   10.5730 C.ar  126  TYR126     -0.0009
    101  CE1      -19.2380  -11.3270   12.0280 C.ar  126  TYR126      0.0417
    102  CE2      -19.8300  -13.5940   11.2280 C.ar  126  TYR126      0.0417
    103  CZ       -20.1490  -12.4350   11.9670 C.ar  126  TYR126      0.1957
    104  OH       -21.3200  -12.4070   12.6560 O.3   126  TYR126     -0.2866
    105  N        -13.3750  -16.9220    8.0490 N.3   130  TYR130     -0.1241
    106  CA       -13.3920  -16.9020    6.5790 C.3   130  TYR130      0.1605
    107  C        -12.0140  -16.8350    5.9640 C.2   130  TYR130      0.2264
    108  O        -11.8790  -16.5300    4.7900 O.2   130  TYR130     -0.2867
    109  CB       -14.2460  -15.7480    6.0980 C.3   130  TYR130      0.0534
    110  CG       -15.6900  -16.0350    6.3840 C.ar  130  TYR130     -0.0201
    111  CD1      -16.1230  -17.3460    6.5490 C.ar  130  TYR130     -0.0009
    112  CD2      -16.6300  -15.0230    6.4160 C.ar  130  TYR130     -0.0009
    113  CE1      -17.4550  -17.6290    6.7780 C.ar  130  TYR130      0.0417
    114  CE2      -17.9620  -15.2870    6.6250 C.ar  130  TYR130      0.0417
    115  CZ       -18.3710  -16.5850    6.8180 C.ar  130  TYR130      0.1957
    116  OH       -19.7060  -16.8460    7.0140 O.3   130  TYR130     -0.2866
    117  N        -20.3130  -13.4560   15.6970 N.3   156  ARG156     -0.1245
    118  CA       -20.7850  -14.8480   15.6880 C.3   156  ARG156      0.1563
    119  C        -19.6240  -15.7350   15.3390 C.2   156  ARG156      0.2260
    120  O        -18.6780  -15.2900   14.6500 O.2   156  ARG156     -0.2867
    121  CB       -21.7900  -15.0470   14.5400 C.3   156  ARG156      0.0307
    122  CG       -23.1450  -14.4570   14.8150 C.3   156  ARG156      0.0489
    123  CD       -24.0030  -14.4950   13.5550 C.3   156  ARG156      0.2205
    124  NE       -25.2880  -13.9200   13.9460 N.pl3 156  ARG156     -0.0865
    125  CZ       -26.4520  -14.3310   13.4600 C.cat 156  ARG156      0.5346
    126  NH1      -26.4480  -15.2740   12.4860 N.pl3 156  ARG156      0.1354
    127  NH2      -27.5910  -13.7990   13.9160 N.pl3 156  ARG156      0.1354
    128  N        -36.2640  -11.9030   18.4770 N.3   177  HIS177     -0.1241
    129  CA       -35.7810  -10.7300   17.7950 C.3   177  HIS177      0.1621
    130  C        -36.8780  -10.0800   16.9580 C.2   177  HIS177      0.2264
    131  O        -37.5990  -10.7870   16.2020 O.2   177  HIS177     -0.2867
    132  CB       -34.5630  -11.0220   16.9250 C.3   177  HIS177      0.0745
    133  CG       -33.7770   -9.7840   16.6020 C.ar  177  HIS177      0.0817
    134  ND1      -34.2280   -8.8220   15.7200 N.ar  177  HIS177     -0.2268
    135  CD2      -32.5540   -9.3540   17.0340 C.ar  177  HIS177      0.1154
    136  CE1      -33.3470   -7.8250   15.6600 C.ar  177  HIS177      0.1986
    137  NE2      -32.3130   -8.1240   16.4410 N.ar  177  HIS177     -0.2212
    138  N        -36.7990   -8.2450   14.3270 N.3   179  PHE179     -0.1227
    139  CA       -36.6910   -8.6840   12.9230 C.3   179  PHE179      0.1736
    140  C        -37.6200   -9.8460   12.5070 C.2   179  PHE179      0.2595
    141  O        -38.1900   -9.7660   11.4460 O.2   179  PHE179     -0.2718
    142  CB       -35.2620   -9.0540   12.5760 C.3   179  PHE179      0.0547
    143  CG       -35.0160   -9.2040   11.1010 C.ar  179  PHE179     -0.0202
    144  CD1      -34.9250   -8.0690   10.2640 C.ar  179  PHE179     -0.0042
    145  CD2      -34.8700  -10.4710   10.5370 C.ar  179  PHE179     -0.0042
    146  CE1      -34.6880   -8.2240    8.8960 C.ar  179  PHE179     -0.0003
    147  CE2      -34.6300  -10.6370    9.1660 C.ar  179  PHE179     -0.0003
    148  CZ       -34.5370   -9.5200    8.3460 C.ar  179  PHE179     -0.0000
    149  N        -37.7510  -10.9000   13.3140 N.am  180  ASP180     -0.1974
    150  CA       -38.5940  -12.0540   12.9800 C.3   180  ASP180      0.1709
    151  C        -40.0870  -11.6130   12.9940 C.2   180  ASP180      0.2293
    152  O        -40.9260  -12.3030   12.4480 O.2   180  ASP180     -0.2864
    153  CB       -38.4490  -13.2150   13.9910 C.3   180  ASP180      0.1436
    154  CG       -36.9840  -13.7200   14.1580 C.2   180  ASP180      0.3671
    155  OD1      -36.2200  -13.6570   13.1800 O.co2 180  ASP180     -0.2456
    156  OD2      -36.6080  -14.1200   15.2920 O.co2 180  ASP180     -0.2456
    157  N        -40.0280   -6.1650   12.1900 N.3   183  VAL183     -0.1245
    158  CA       -39.5680   -4.7910   12.5670 C.3   183  VAL183      0.1561
    159  C        -38.2380   -4.5220   11.8440 C.2   183  VAL183      0.2260
    160  O        -37.2580   -5.3120   11.9360 O.2   183  VAL183     -0.2867
    161  CB       -39.4200   -4.5670   14.1050 C.3   183  VAL183      0.0252
    162  CG1      -38.8410   -3.1630   14.3580 C.3   183  VAL183      0.0019
    163  CG2      -40.7550   -4.6960   14.8220 C.3   183  VAL183      0.0019
    164  N        -34.6430   -2.4800   10.4880 N.3   185  ALA185     -0.1245
    165  CA       -33.4600   -1.7660   11.1010 C.3   185  ALA185      0.1562
    166  C        -33.7960   -0.2870   11.3520 C.2   185  ALA185      0.2260
    167  O        -34.2950    0.3860   10.4370 O.2   185  ALA185     -0.2867
    168  CB       -32.2410   -1.8710   10.1910 C.3   185  ALA185      0.0290
    169  N        -30.3820   -0.4580   15.8510 N.3   190  ASP190     -0.1225
    170  CA       -29.7100   -1.4720   15.0600 C.3   190  ASP190      0.1805
    171  C        -28.4970   -0.9160   14.3640 C.2   190  ASP190      0.2597
    172  O        -27.6910   -1.6740   13.8760 O.2   190  ASP190     -0.2718
    173  CB       -30.6840   -2.1200   14.0640 C.3   190  ASP190      0.1424
    174  CG       -32.0130   -2.4220   14.7330 C.2   190  ASP190      0.3668
    175  OD1      -32.1740   -3.4660   15.3740 O.co2 190  ASP190     -0.2456
    176  OD2      -32.8530   -1.5280   14.7310 O.co2 190  ASP190     -0.2456
    177  N        -28.3340    0.3830   14.3700 N.am  191  TYR191     -0.1976
    178  CA       -27.0460    0.9720   13.8810 C.3   191  TYR191      0.1639
    179  C        -26.9300    2.4160   14.3220 C.2   191  TYR191      0.2290
    180  O        -27.9130    3.0700   14.7490 O.2   191  TYR191     -0.2864
    181  CB       -26.9300    0.8840   12.3170 C.3   191  TYR191      0.0560
    182  CG       -28.0300    1.6940   11.6330 C.ar  191  TYR191     -0.0198
    183  CD1      -27.8220    3.0450   11.2780 C.ar  191  TYR191     -0.0009
    184  CD2      -29.2870    1.1040   11.3410 C.ar  191  TYR191     -0.0009
    185  CE1      -28.8400    3.8030   10.6780 C.ar  191  TYR191      0.0417
    186  CE2      -30.2950    1.8240   10.7160 C.ar  191  TYR191      0.0417
    187  CZ       -30.0820    3.1680   10.4070 C.ar  191  TYR191      0.1957
    188  OH       -31.1070    3.8870    9.7960 O.3   191  TYR191     -0.2866
@<TRIPOS>BOND
     1    69    67    1
     2    68    67    1
     3    67    64    1
     4    64    65    1
     5    64    63    1
     6    66    65    2
     7    65    70   am
     8    72    73    2
     9    72    71    1
    10    70    71    1
    11    25    24    1
    12    71    74    1
    13    74    75    1
    14    24    23    1
    15    75    76   ar
    16    75    77   ar
    17    76    78   ar
    18    32    30    1
    19    23    22    1
    20    30    31    1
    21    30    27    1
    22    77    80   ar
    23    77    79   ar
    24    78    79   ar
    25    22    21    1
    26    80    82   ar
    27    21    18    1
    28   108   107    2
    29    79    81   ar
    30    41    39   ar
    31    41    42   ar
    32    27    28    1
    33    27    26    1
    34    29    28    2
    35    44    42   ar
    36    44    46   ar
    37    39    38   ar
    38    28    33   am
    39    42    40   ar
    40    82    83   ar
    41   107   106    1
    42   109   110    1
    43   109   106    1
    44    81    83   ar
    45    18    17    1
    46    18    19    1
    47    46    45   ar
    48   110   112   ar
    49   110   111   ar
    50   112   114   ar
    51   111   113   ar
    52   106   105    1
    53    33    34    1
    54   114   115   ar
    55   113   115   ar
    56   115   116    1
    57    38    40   ar
    58    38    37    1
    59    17    11   am
    60    40    43   ar
    61    19    20    2
    62    34    37    1
    63    34    35    1
    64    45    43   ar
    65    11    10    1
    66    11    12    2
    67    53    47    1
    68    53    52    2
    69   148   146   ar
    70   148   147   ar
    71    35    47   am
    72    35    36    2
    73    10    13    1
    74    10     9    1
    75    47    48    1
    76   146   144   ar
    77    96    95    2
    78    52    51    1
    79    13    15    1
    80    13    14    1
    81   147   145   ar
    82   188   187    1
    83    48    51    1
    84    48    49    1
    85    97    98    1
    86    97    94    1
    87    95    94    1
    88   168   165    1
    89    14    16    1
    90   144   143   ar
    91   187   185   ar
    92   187   186   ar
    93   167   166    2
    94   164   165    1
    95   145   143   ar
    96   100    98   ar
    97   100   102   ar
    98    98    99   ar
    99    94    93    1
   100   185   183   ar
   101   186   184   ar
   102   165   166    1
   103   143   142    1
   104    49    50    2
   105   102   103   ar
   106   183   182   ar
   107   184   182   ar
   108    99   101   ar
   109   141   140    2
   110   182   181    1
   111   159   160    2
   112   159   158    1
   113   103   101   ar
   114   103   104    1
   115   157   158    1
   116   181   178    1
   117   152   151    2
   118   126   125    1
   119   140   139    1
   120   140   149   am
   121   158   161    1
   122    87    86    2
   123   142   139    1
   124    88    89    1
   125    88    85    1
   126   139   138    1
   127   150   151    1
   128   150   149    1
   129   150   153    1
   130   155   154   ar
   131    89    90    1
   132   125   127    1
   133   125   124    2
   134   123   124    1
   135   123   122    1
   136    86    85    1
   137   172   171    2
   138   178   179    1
   139   178   177    1
   140    90    91   ar
   141    90    92   ar
   142   153   154    1
   143   173   174    1
   144   173   170    1
   145   161   162    1
   146   161   163    1
   147    85    84    1
   148   154   156   ar
   149   179   180    2
   150   171   177   am
   151   171   170    1
   152   121   122    1
   153   121   118    1
   154   120   119    2
   155   176   174   ar
   156   174   175   ar
   157   170   169    1
   158   119   118    1
   159     7     6    2
   160     8     6   am
   161   136   134   ar
   162   136   137   ar
   163   118   117    1
   164   134   133   ar
   165     6     5    1
   166   131   130    2
   167   137   135   ar
   168   133   132    1
   169   133   135   ar
   170     5     2    1
   171     4     3    1
   172   132   129    1
   173   130   129    1
   174    62    60   ar
   175    61    60   ar
   176     2     3    1
   177     2     1    1
   178    60    59    1
   179    54    55    1
   180   129   128    1
   181    56    55    1
   182    56    57    2
   183    55    58    1
   184    58    59    1
