@<TRIPOS>MOLECULE
tmp/4hutB01.pdb
 234 233 0 0 0
SMALL
GASTEIGER

@<TRIPOS>ATOM
      1  N        -26.0950   -4.8410   31.0480 N.3    15  THR15      -0.1218
      2  CA       -26.0800   -3.4090   31.2400 C.3    15  THR15       0.1862
      3  C        -25.1960   -2.7220   30.1910 C.2    15  THR15       0.2287
      4  O        -25.5470   -1.6680   29.6050 O.2    15  THR15      -0.2866
      5  CB       -25.4980   -3.1600   32.6400 C.3    15  THR15       0.1770
      6  OG1      -26.4570   -3.6100   33.5640 O.3    15  THR15      -0.2211
      7  CG2      -25.1190   -1.6110   32.9350 C.3    15  THR15       0.0375
      8  N        -31.8230    0.5190   38.9660 N.3    37  PHE37      -0.1227
      9  CA       -32.3040    0.0070   40.2250 C.3    37  PHE37       0.1736
     10  C        -31.1690   -0.6010   41.0210 C.2    37  PHE37       0.2595
     11  O        -30.2800   -1.1350   40.4490 O.2    37  PHE37      -0.2718
     12  CB       -33.3860   -1.0120   39.9750 C.3    37  PHE37       0.0547
     13  CG       -34.6300   -0.4200   39.4350 C.ar   37  PHE37      -0.0202
     14  CD1      -34.8580   -0.3900   38.1150 C.ar   37  PHE37      -0.0042
     15  CD2      -35.5470    0.1380   40.2660 C.ar   37  PHE37      -0.0042
     16  CE1      -36.0040    0.1660   37.6040 C.ar   37  PHE37      -0.0003
     17  CE2      -36.6940    0.7050   39.7760 C.ar   37  PHE37      -0.0003
     18  CZ       -36.9110    0.7280   38.4390 C.ar   37  PHE37      -0.0000
     19  N        -31.2240   -0.4610   42.3350 N.am   38  ILE38      -0.1966
     20  CA       -30.2280   -0.9610   43.2660 C.3    38  ILE38       0.1727
     21  C        -28.9230   -0.1660   43.2360 C.2    38  ILE38       0.2616
     22  O        -28.4100    0.2340   44.2370 O.2    38  ILE38      -0.2715
     23  CB       -29.9570   -2.4460   43.1090 C.3    38  ILE38       0.0290
     24  CG1      -31.1210   -3.2530   43.6610 C.3    38  ILE38       0.0022
     25  CG2      -28.7080   -2.8050   43.8450 C.3    38  ILE38       0.0023
     26  CD1      -31.1150   -4.7100   43.3110 C.3    38  ILE38       0.0001
     27  N        -28.4560    0.0680   42.0440 N.am   39  LYS39      -0.1963
     28  CA       -27.1830    0.6490   41.7730 C.3    39  LYS39       0.1728
     29  C        -27.0950    2.0920   42.2320 C.2    39  LYS39       0.2617
     30  O        -28.0700    2.7400   42.4000 O.2    39  LYS39      -0.2715
     31  CB       -26.9170    0.6070   40.2800 C.3    39  LYS39       0.0311
     32  CG       -26.3930   -0.6920   39.7580 C.3    39  LYS39       0.0038
     33  CD       -26.2660   -0.6640   38.2550 C.3    39  LYS39       0.0206
     34  CE       -25.6130   -1.9070   37.7140 C.3    39  LYS39       0.1093
     35  NZ       -25.4600   -1.8820   36.2680 N.3    39  LYS39      -0.1314
     36  N        -25.8670    2.5660   42.3810 N.am   40  GLY40      -0.1940
     37  CA       -25.6370    3.9300   42.7330 C.3    40  GLY40       0.2014
     38  C        -24.6300    4.2180   43.8070 C.2    40  GLY40       0.2640
     39  O        -24.3120    5.3410   44.0250 O.2    40  GLY40      -0.2714
     40  N        -24.1260    3.1960   44.4720 N.am   41  THR41      -0.1936
     41  CA       -23.1970    3.4480   45.5800 C.3    41  THR41       0.2028
     42  C        -21.7640    3.2210   45.0880 C.2    41  THR41       0.2642
     43  O        -20.8260    3.4360   45.8320 O.2    41  THR41      -0.2714
     44  CB       -23.4880    2.5890   46.8330 C.3    41  THR41       0.1808
     45  OG1      -23.1250    1.1860   46.6390 O.3    41  THR41      -0.2208
     46  CG2      -24.9040    2.6700   47.2030 C.3    41  THR41       0.0379
     47  N        -21.6110    2.7670   43.8390 N.am   42  TRP42      -0.1960
     48  CA       -20.3030    2.6320   43.2390 C.3    42  TRP42       0.1756
     49  C        -20.1320    3.6250   42.1000 C.2    42  TRP42       0.2462
     50  O        -21.1310    3.9860   41.4130 O.2    42  TRP42      -0.2730
     51  CB       -20.0910    1.2090   42.7060 C.3    42  TRP42       0.0590
     52  CG       -19.7450    0.1550   43.7900 C.ar   42  TRP42       0.0006
     53  CD1      -20.5560   -0.2240   44.8720 C.ar   42  TRP42       0.0946
     54  CD2      -18.5330   -0.6520   43.8900 C.ar   42  TRP42       0.0152
     55  NE1      -19.8890   -1.2060   45.6140 N.ar   42  TRP42      -0.2442
     56  CE2      -18.6630   -1.4690   45.0590 C.ar   42  TRP42       0.0810
     57  CE3      -17.3520   -0.7510   43.1120 C.ar   42  TRP42       0.0012
     58  CZ2      -17.6930   -2.4140   45.4520 C.ar   42  TRP42       0.0191
     59  CZ3      -16.3200   -1.6930   43.5210 C.ar   42  TRP42       0.0001
     60  CH2      -16.5070   -2.5150   44.6820 C.ar   42  TRP42       0.0015
     61  N        -18.8710    3.9910   41.7880 N.am   43  PRO43      -0.2716
     62  CA       -18.6290    4.8070   40.5470 C.3    43  PRO43       0.1536
     63  C        -19.2990    4.2160   39.2900 C.2    43  PRO43       0.2598
     64  O        -19.5060    2.9930   39.1990 O.2    43  PRO43      -0.2715
     65  CB       -17.1110    4.7470   40.3850 C.3    43  PRO43       0.0310
     66  CG       -16.6460    4.6160   41.8380 C.3    43  PRO43       0.0237
     67  CD       -17.5930    3.4790   42.3060 C.3    43  PRO43       0.0939
     68  N        -19.6390    5.0650   38.3240 N.am   44  ASN44      -0.1973
     69  CA       -20.5130    4.5750   37.2620 C.3    44  ASN44       0.1688
     70  C        -19.9590    5.2090   36.0060 C.2    44  ASN44       0.2292
     71  O        -20.2660    6.3680   35.7060 O.2    44  ASN44      -0.2864
     72  CB       -21.9690    4.9600   37.5990 C.3    44  ASN44       0.1181
     73  CG       -22.9500    4.5810   36.5070 C.2    44  ASN44       0.2629
     74  OD1      -22.5540    4.3350   35.3450 O.2    44  ASN44      -0.2716
     75  ND2      -24.2600    4.5130   36.8710 N.am   44  ASN44      -0.0877
     76  N        -20.3720    4.6270   32.7690 N.3    46  GLU46      -0.1245
     77  CA       -21.3530    4.9030   31.6920 C.3    46  GLU46       0.1567
     78  C        -22.0860    6.1990   32.0210 C.2    46  GLU46       0.2260
     79  O        -22.4030    6.9470   31.1180 O.2    46  GLU46      -0.2867
     80  CB       -22.5440    3.8910   31.6730 C.3    46  GLU46       0.0388
     81  CG       -22.2490    2.4680   31.5940 C.3    46  GLU46       0.1160
     82  CD       -21.9510    1.8280   32.9440 C.2    46  GLU46       0.3649
     83  OE1      -22.8020    1.0050   33.4100 O.co2  46  GLU46      -0.2457
     84  OE2      -20.7770    2.0150   33.4170 O.co2  46  GLU46      -0.2457
     85  N        -27.7620    0.2250   47.1100 N.3    63  GLY63      -0.1210
     86  CA       -26.7760   -0.8030   47.2290 C.3    63  GLY63       0.1956
     87  C        -27.3590   -2.2070   47.3320 C.2    63  GLY63       0.2612
     88  O        -28.5680   -2.3870   47.2880 O.2    63  GLY63      -0.2717
     89  N        -26.4770   -3.1870   47.4540 N.am   64  PHE64      -0.1962
     90  CA       -26.8530   -4.5860   47.4330 C.3    64  PHE64       0.1771
     91  C        -27.8900   -4.9300   48.4740 C.2    64  PHE64       0.2620
     92  O        -27.8540   -4.4820   49.6050 O.2    64  PHE64      -0.2715
     93  CB       -25.6420   -5.4440   47.7100 C.3    64  PHE64       0.0574
     94  CG       -24.5510   -5.3410   46.6570 C.ar   64  PHE64      -0.0200
     95  CD1      -23.2180   -5.1530   47.0320 C.ar   64  PHE64      -0.0042
     96  CD2      -24.8480   -5.4990   45.3010 C.ar   64  PHE64      -0.0042
     97  CE1      -22.1810   -5.0830   46.0530 C.ar   64  PHE64      -0.0003
     98  CE2      -23.8180   -5.4340   44.3200 C.ar   64  PHE64      -0.0003
     99  CZ       -22.4750   -5.2320   44.7140 C.ar   64  PHE64      -0.0000
    100  N        -28.8420   -5.7320   48.1130 N.am   65  THR65      -0.1937
    101  CA       -29.9090   -6.0140   49.0780 C.3    65  THR65       0.2028
    102  C        -29.3270   -6.8560   50.2320 C.2    65  THR65       0.2642
    103  O        -29.8030   -6.7890   51.3340 O.2    65  THR65      -0.2714
    104  CB       -31.0250   -6.8210   48.3770 C.3    65  THR65       0.1808
    105  OG1      -30.3900   -7.9200   47.7250 O.3    65  THR65      -0.2208
    106  CG2      -31.7190   -5.9810   47.3280 C.3    65  THR65       0.0379
    107  N        -28.2810   -7.6410   49.9930 N.am   66  TRP66      -0.1959
    108  CA       -27.6780   -8.3910   51.0770 C.3    66  TRP66       0.1771
    109  C        -26.7260   -7.5250   51.9310 C.2    66  TRP66       0.2619
    110  O        -26.2000   -8.0420   52.8900 O.2    66  TRP66      -0.2715
    111  CB       -26.9110   -9.6020   50.5920 C.3    66  TRP66       0.0590
    112  CG       -25.7080   -9.1960   49.7250 C.ar   66  TRP66       0.0006
    113  CD1      -24.4350   -8.7560   50.1450 C.ar   66  TRP66       0.0946
    114  CD2      -25.6780   -9.2090   48.2960 C.ar   66  TRP66       0.0152
    115  NE1      -23.6310   -8.5050   49.0210 N.ar   66  TRP66      -0.2442
    116  CE2      -24.3840   -8.7740   47.8880 C.ar   66  TRP66       0.0810
    117  CE3      -26.6240   -9.5710   47.3140 C.ar   66  TRP66       0.0012
    118  CZ2      -24.0440   -8.6550   46.5350 C.ar   66  TRP66       0.0191
    119  CZ3      -26.2730   -9.4560   45.9940 C.ar   66  TRP66       0.0001
    120  CH2      -24.9970   -9.0190   45.6140 C.ar   66  TRP66       0.0015
    121  N        -26.5170   -6.2450   51.5770 N.am   67  GLU67      -0.1977
    122  CA       -25.8020   -5.3060   52.4510 C.3    67  GLU67       0.1602
    123  C        -26.7640   -4.4590   53.2070 C.2    67  GLU67       0.2287
    124  O        -26.5390   -4.2090   54.3690 O.2    67  GLU67      -0.2864
    125  CB       -24.9250   -4.3020   51.6750 C.3    67  GLU67       0.0415
    126  CG       -23.8480   -4.8720   50.7840 C.3    67  GLU67       0.1163
    127  CD       -22.5430   -5.0710   51.4710 C.2    67  GLU67       0.3649
    128  OE1      -22.5540   -5.0540   52.7260 O.co2  67  GLU67      -0.2457
    129  OE2      -21.5310   -5.2410   50.7400 O.co2  67  GLU67      -0.2457
    130  N        -31.4110   -3.2290   35.6830 N.3   101  GLU101     -0.1245
    131  CA       -31.6230   -4.0730   36.8880 C.3   101  GLU101      0.1567
    132  C        -33.0740   -3.9610   37.3840 C.2   101  GLU101      0.2260
    133  O        -33.3340   -4.1530   38.5620 O.2   101  GLU101     -0.2867
    134  CB       -30.6410   -3.7910   38.0530 C.3   101  GLU101      0.0388
    135  CG       -29.2110   -3.4180   37.5560 C.3   101  GLU101      0.1160
    136  CD       -28.5520   -4.4700   36.6870 C.2   101  GLU101      0.3649
    137  OE1      -29.0920   -5.6110   36.5170 O.co2 101  GLU101     -0.2457
    138  OE2      -27.4040   -4.2170   36.2100 O.co2 101  GLU101     -0.2457
    139  N        -34.9040   -7.4770   39.2630 N.3   104  TYR104     -0.1241
    140  CA       -34.9630   -7.8140   40.6500 C.3   104  TYR104      0.1605
    141  C        -36.0990   -7.1330   41.4070 C.2   104  TYR104      0.2264
    142  O        -36.6090   -7.7000   42.3640 O.2   104  TYR104     -0.2867
    143  CB       -33.6770   -7.3950   41.3210 C.3   104  TYR104      0.0534
    144  CG       -32.4590   -7.9280   40.6660 C.ar  104  TYR104     -0.0201
    145  CD1      -31.7420   -7.1480   39.7480 C.ar  104  TYR104     -0.0009
    146  CD2      -32.0060   -9.2110   40.9560 C.ar  104  TYR104     -0.0009
    147  CE1      -30.5730   -7.6370   39.1530 C.ar  104  TYR104      0.0417
    148  CE2      -30.8370   -9.7200   40.3800 C.ar  104  TYR104      0.0417
    149  CZ       -30.1310   -8.9150   39.4810 C.ar  104  TYR104      0.1957
    150  OH       -28.9810   -9.4100   38.8930 O.3   104  TYR104     -0.2866
    151  N        -38.4020   -9.4870   43.5530 N.3   108  TYR108     -0.1241
    152  CA       -38.3910   -9.4380   45.0370 C.3   108  TYR108      0.1605
    153  C        -39.6230   -8.7740   45.5940 C.2   108  TYR108      0.2264
    154  O        -39.6060   -8.3610   46.7450 O.2   108  TYR108     -0.2867
    155  CB       -37.2760   -8.5430   45.5400 C.3   108  TYR108      0.0534
    156  CG       -35.9000   -9.0430   45.1680 C.ar  108  TYR108     -0.0201
    157  CD1      -35.7090  -10.3320   44.6650 C.ar  108  TYR108     -0.0009
    158  CD2      -34.7910   -8.2230   45.3640 C.ar  108  TYR108     -0.0009
    159  CE1      -34.4270  -10.7990   44.3530 C.ar  108  TYR108      0.0417
    160  CE2      -33.5160   -8.6620   45.0280 C.ar  108  TYR108      0.0417
    161  CZ       -33.3420   -9.9320   44.5420 C.ar  108  TYR108      0.1957
    162  OH       -32.0400  -10.3020   44.2620 O.3   108  TYR108     -0.2866
    163  N        -30.6990  -10.1560   35.5240 N.3   134  ARG134     -0.1245
    164  CA       -30.9070  -11.5830   35.7640 C.3   134  ARG134      0.1563
    165  C        -32.3630  -11.8440   36.1150 C.2   134  ARG134      0.2260
    166  O        -32.9700  -10.9960   36.7440 O.2   134  ARG134     -0.2867
    167  CB       -30.0980  -11.9680   36.9830 C.3   134  ARG134      0.0307
    168  CG       -28.6070  -12.0460   36.6300 C.3   134  ARG134      0.0489
    169  CD       -27.7670  -12.4920   37.8430 C.3   134  ARG134      0.2205
    170  NE       -26.3960  -12.8490   37.3940 N.pl3 134  ARG134     -0.0865
    171  CZ       -25.5590  -13.6820   38.0360 C.cat 134  ARG134      0.5346
    172  NH1      -25.9240  -14.3200   39.1520 N.pl3 134  ARG134      0.1354
    173  NH2      -24.3940  -13.9640   37.4990 N.pl3 134  ARG134      0.1354
    174  N        -16.3430  -16.5070   33.0830 N.3   155  HIS155     -0.1241
    175  CA       -16.2220  -15.1820   33.6320 C.3   155  HIS155      0.1621
    176  C        -14.9280  -15.0800   34.4360 C.2   155  HIS155      0.2264
    177  O        -14.6400  -15.9680   35.2650 O.2   155  HIS155     -0.2867
    178  CB       -17.4110  -14.8100   34.5070 C.3   155  HIS155      0.0745
    179  CG       -17.4420  -13.3440   34.8130 C.ar  155  HIS155      0.0817
    180  ND1      -16.4970  -12.7370   35.6230 N.ar  155  HIS155     -0.2268
    181  CD2      -18.1910  -12.3340   34.3020 C.ar  155  HIS155      0.1154
    182  CE1      -16.7390  -11.4350   35.7000 C.ar  155  HIS155      0.1986
    183  NE2      -17.7590  -11.1600   34.8900 N.ar  155  HIS155     -0.2212
    184  N        -13.9910  -13.4020   36.9250 N.3   157  PHE157     -0.1227
    185  CA       -14.1650  -13.5070   38.3970 C.3   157  PHE157      0.1736
    186  C        -13.9850  -14.9580   38.9150 C.2   157  PHE157      0.2595
    187  O        -13.4070  -15.1810   39.9720 O.2   157  PHE157     -0.2718
    188  CB       -15.5350  -12.9910   38.8020 C.3   157  PHE157      0.0547
    189  CG       -15.7050  -12.8090   40.2700 C.ar  157  PHE157     -0.0202
    190  CD1      -14.8360  -11.9810   41.0040 C.ar  157  PHE157     -0.0042
    191  CD2      -16.7500  -13.4390   40.9180 C.ar  157  PHE157     -0.0042
    192  CE1      -15.0380  -11.8090   42.3750 C.ar  157  PHE157     -0.0003
    193  CE2      -16.9590  -13.2650   42.2920 C.ar  157  PHE157     -0.0003
    194  CZ       -16.0910  -12.4570   43.0190 C.ar  157  PHE157     -0.0000
    195  N        -14.4550  -15.9260   38.1600 N.am  158  ASP158     -0.1974
    196  CA       -14.2110  -17.3340   38.4990 C.3   158  ASP158      0.1709
    197  C        -12.7640  -17.7350   38.5230 C.2   158  ASP158      0.2293
    198  O        -12.3880  -18.6300   39.2790 O.2   158  ASP158     -0.2864
    199  CB       -14.9980  -18.2190   37.5530 C.3   158  ASP158      0.1436
    200  CG       -16.4900  -17.9600   37.6860 C.2   158  ASP158      0.3671
    201  OD1      -16.8890  -17.4590   38.7530 O.co2 158  ASP158     -0.2456
    202  OD2      -17.2270  -18.1520   36.7190 O.co2 158  ASP158     -0.2456
    203  N        -10.0690  -13.0340   39.0110 N.3   161  VAL161     -0.1245
    204  CA        -9.7400  -11.6480   38.6250 C.3   161  VAL161      0.1561
    205  C        -10.6850  -10.6890   39.3190 C.2   161  VAL161      0.2260
    206  O        -11.9390  -10.8790   39.2850 O.2   161  VAL161     -0.2867
    207  CB        -9.7210  -11.4540   37.0860 C.3   161  VAL161      0.0252
    208  CG1       -9.3890   -9.9920   36.7460 C.3   161  VAL161      0.0019
    209  CG2       -8.7050  -12.4270   36.5140 C.3   161  VAL161      0.0019
    210  N        -12.8400   -7.2380   40.2550 N.3   163  ALA163     -0.1245
    211  CA       -13.5590   -6.1770   39.5200 C.3   163  ALA163      0.1562
    212  C        -12.6790   -4.9420   39.3830 C.2   163  ALA163      0.2260
    213  O        -12.0530   -4.5660   40.3430 O.2   163  ALA163     -0.2867
    214  CB       -14.7960   -5.7770   40.2510 C.3   163  ALA163      0.0290
    215  N        -15.5350   -3.4980   34.9170 N.3   168  ASP168     -0.1225
    216  CA       -16.6890   -3.9810   35.6260 C.3   168  ASP168      0.1805
    217  C        -17.6340   -2.9220   36.1640 C.2   168  ASP168      0.2597
    218  O        -18.7110   -3.2530   36.5630 O.2   168  ASP168     -0.2718
    219  CB       -16.2710   -4.9550   36.6990 C.3   168  ASP168      0.1424
    220  CG       -15.2800   -5.9480   36.2040 C.2   168  ASP168      0.3668
    221  OD1      -15.6940   -6.9460   35.6840 O.co2 168  ASP168     -0.2456
    222  OD2      -14.0970   -5.6890   36.3080 O.co2 168  ASP168     -0.2456
    223  N        -17.2120   -1.6600   36.1510 N.am  169  TYR169     -0.1976
    224  CA       -18.0550   -0.5360   36.5910 C.3   169  TYR169      0.1639
    225  C        -17.3960    0.7440   36.2130 C.2   169  TYR169      0.2290
    226  O        -16.2340    0.6700   35.8100 O.2   169  TYR169     -0.2864
    227  CB       -18.3380   -0.5340   38.1080 C.3   169  TYR169      0.0560
    228  CG       -17.0620   -0.3250   38.9340 C.ar  169  TYR169     -0.0198
    229  CD1      -16.7310    0.9590   39.3920 C.ar  169  TYR169     -0.0009
    230  CD2      -16.2200   -1.4000   39.2690 C.ar  169  TYR169     -0.0009
    231  CE1      -15.5820    1.1990   40.1710 C.ar  169  TYR169      0.0417
    232  CE2      -15.0860   -1.1770   40.0680 C.ar  169  TYR169      0.0417
    233  CZ       -14.7520    0.1380   40.4560 C.ar  169  TYR169      0.1957
    234  OH       -13.7260    0.4370   41.3120 O.3   169  TYR169     -0.2866
@<TRIPOS>BOND
     1     4     3    2
     2     3     2    1
     3     1     2    1
     4    79    78    2
     5     2     5    1
     6    81    80    1
     7    81    82    1
     8    80    77    1
     9    77    78    1
    10    77    76    1
    11     5     7    1
    12     5     6    1
    13    82    83   ar
    14    82    84   ar
    15   174   175    1
    16   175   176    1
    17   175   178    1
    18   181   179   ar
    19   181   183   ar
    20   176   177    2
    21   178   179    1
    22   179   180   ar
    23   183   182   ar
    24   215   216    1
    25    74    73    2
    26   163   164    1
    27   180   182   ar
    28   216   217    1
    29   216   219    1
    30   130   131    1
    31   221   220   ar
    32    71    70    2
    33   164   165    1
    34   164   167    1
    35   226   225    2
    36    70    69    1
    37   165   166    2
    38   223   217   am
    39   223   224    1
    40   217   218    2
    41   220   222   ar
    42   220   219    1
    43   138   136   ar
    44   225   224    1
    45    35    34    1
    46    73    75   am
    47    73    72    1
    48   209   207    1
    49   137   136   ar
    50   224   227    1
    51   168   167    1
    52   168   169    1
    53   136   135    1
    54   202   200   ar
    55   208   207    1
    56   131   132    1
    57   131   134    1
    58   184   185    1
    59   207   204    1
    60    69    72    1
    61    69    68    1
    62   132   133    2
    63   170   169    1
    64   170   171    2
    65   173   171    1
    66   199   200    1
    67   199   196    1
    68   135   134    1
    69    16    14   ar
    70    16    18   ar
    71   200   201   ar
    72    34    33    1
    73   171   172    1
    74   227   228    1
    75    14    13   ar
    76   195   196    1
    77   195   186   am
    78    33    32    1
    79    68    63   am
    80   185   188    1
    81   185   186    1
    82    18    17   ar
    83   196   197    1
    84   197   198    2
    85   204   203    1
    86   204   205    1
    87   188   189    1
    88   150   149    1
    89   186   187    2
    90   228   230   ar
    91   228   229   ar
    92     8     9    1
    93   147   149   ar
    94   147   145   ar
    95    64    63    2
    96   139   140    1
    97   230   232   ar
    98   206   205    2
    99    63    62    1
   100   212   211    1
   101   212   213    2
   102   229   231   ar
   103    13    12    1
   104    13    15   ar
   105   149   148   ar
   106   211   214    1
   107   211   210    1
   108   145   144   ar
   109    32    31    1
   110    17    15   ar
   111    12     9    1
   112   232   233   ar
   113   231   233   ar
   114     9    10    1
   115   189   191   ar
   116   189   190   ar
   117    31    28    1
   118   148   146   ar
   119    65    62    1
   120    65    66    1
   121    11    10    2
   122   233   234    1
   123    62    61    1
   124   140   143    1
   125   140   141    1
   126   144   146   ar
   127   144   143    1
   128   191   193   ar
   129   190   192   ar
   130    10    19   am
   131   141   142    2
   132    50    49    2
   133    28    27    1
   134    28    29    1
   135    61    49   am
   136    61    67    1
   137    66    67    1
   138    27    21   am
   139    49    48    1
   140    29    36   am
   141    29    30    2
   142   193   194   ar
   143    19    20    1
   144   192   194   ar
   145    36    37    1
   146    51    48    1
   147    51    52    1
   148    37    38    1
   149    23    20    1
   150    23    24    1
   151    23    25    1
   152    57    59   ar
   153    57    54   ar
   154    21    20    1
   155    21    22    2
   156    48    47    1
   157    26    24    1
   158    59    60   ar
   159   151   152    1
   160    52    54   ar
   161    52    53   ar
   162    38    39    2
   163    38    40   am
   164    47    42   am
   165    54    56   ar
   166   162   161    1
   167    98    99   ar
   168    98    96   ar
   169   159   161   ar
   170   159   157   ar
   171    40    41    1
   172   161   160   ar
   173   157   156   ar
   174    60    58   ar
   175    99    97   ar
   176    53    55   ar
   177   160   158   ar
   178   152   155    1
   179   152   153    1
   180    56    58   ar
   181    56    55   ar
   182    42    41    1
   183    42    43    2
   184   156   158   ar
   185   156   155    1
   186    96    94   ar
   187    41    44    1
   188   153   154    2
   189   120   119   ar
   190   120   118   ar
   191   119   117   ar
   192    97    95   ar
   193   118   116   ar
   194    45    44    1
   195    94    95   ar
   196    94    93    1
   197    44    46    1
   198    85    86    1
   199    86    87    1
   200    88    87    2
   201   117   114   ar
   202   106   104    1
   203    87    89   am
   204    90    89    1
   205    90    93    1
   206    90    91    1
   207   105   104    1
   208   116   114   ar
   209   116   115   ar
   210   100    91   am
   211   100   101    1
   212   114   112   ar
   213   104   101    1
   214    91    92    2
   215   115   113   ar
   216   101   102    1
   217   112   113   ar
   218   112   111    1
   219   107   102   am
   220   107   108    1
   221   102   103    2
   222   111   108    1
   223   129   127   ar
   224   126   127    1
   225   126   125    1
   226   108   109    1
   227   127   128   ar
   228   121   109   am
   229   121   122    1
   230   125   122    1
   231   109   110    2
   232   122   123    1
   233   123   124    2
