@<TRIPOS>MOLECULE
tmp/4hutA00.pdb
 158 153 0 0 0
SMALL
GASTEIGER

@<TRIPOS>ATOM
      1  N        -25.7850  -15.6350   18.3960 N.3    32  ASN32      -0.1225
      2  CA       -26.5730  -15.0450   17.3130 C.3    32  ASN32       0.1785
      3  C        -27.4930  -13.9090   17.7330 C.2    32  ASN32       0.2598
      4  O        -28.1030  -13.1820   16.8570 O.2    32  ASN32      -0.2718
      5  CB       -27.4400  -16.1230   16.6560 C.3    32  ASN32       0.1169
      6  CG       -26.6110  -17.0780   15.8190 C.2    32  ASN32       0.2627
      7  OD1      -27.0970  -18.1060   15.4130 O.2    32  ASN32      -0.2716
      8  ND2      -25.3600  -16.7440   15.5810 N.am   32  ASN32      -0.0877
      9  N        -27.6230  -13.7410   19.0370 N.am   33  GLY33      -0.1942
     10  CA       -28.5240  -12.6730   19.5280 C.3    33  GLY33       0.2014
     11  C        -27.9580  -11.2590   19.4380 C.2    33  GLY33       0.2639
     12  O        -26.7500  -11.0810   19.3830 O.2    33  GLY33      -0.2714
     13  N        -28.8160  -10.2220   19.4670 N.am   34  LYS34      -0.1963
     14  CA       -28.3200   -8.8260   19.3300 C.3    34  LYS34       0.1728
     15  C        -27.6270   -8.4160   20.6560 C.2    34  LYS34       0.2617
     16  O        -28.1140   -8.7780   21.7270 O.2    34  LYS34      -0.2715
     17  CB       -29.5320   -7.8900   19.0340 C.3    34  LYS34       0.0311
     18  CG       -29.2010   -6.3840   18.9380 C.3    34  LYS34       0.0038
     19  CD       -30.4320   -5.5820   19.3340 C.3    34  LYS34       0.0206
     20  CE       -30.3310   -4.1550   18.7660 C.3    34  LYS34       0.1093
     21  NZ       -29.0100   -3.5160   19.0590 N.3    34  LYS34      -0.1314
     22  N        -26.5440   -7.6090   20.6130 N.am   35  GLY35      -0.1940
     23  CA       -25.9910   -7.2020   21.8840 C.3    35  GLY35       0.2014
     24  C        -24.4600   -7.2940   21.9520 C.2    35  GLY35       0.2639
     25  O        -23.8940   -6.7980   22.8940 O.2    35  GLY35      -0.2714
     26  N        -23.8150   -7.8600   20.9290 N.am   36  LYS36      -0.1963
     27  CA       -22.3800   -8.1380   21.0240 C.3    36  LYS36       0.1728
     28  C        -21.6080   -6.8520   20.8470 C.2    36  LYS36       0.2617
     29  O        -20.9030   -6.3840   21.7650 O.2    36  LYS36      -0.2715
     30  CB       -21.9640   -9.1370   19.9640 C.3    36  LYS36       0.0311
     31  CG       -22.5650  -10.5540   20.1640 C.3    36  LYS36       0.0038
     32  CD       -22.1850  -11.4470   18.9460 C.3    36  LYS36       0.0206
     33  CE       -22.8810  -11.0170   17.6100 C.3    36  LYS36       0.1093
     34  NZ       -24.3880  -11.1480   17.7050 N.3    36  LYS36      -0.1314
     35  N        -21.7350   -6.2750   19.6730 N.am   37  THR37      -0.1937
     36  CA       -21.1460   -4.9350   19.4060 C.3    37  THR37       0.2028
     37  C        -21.5930   -3.8800   20.3970 C.2    37  THR37       0.2642
     38  O        -20.7940   -3.1240   20.8790 O.2    37  THR37      -0.2714
     39  CB       -21.4140   -4.5260   17.9550 C.3    37  THR37       0.1808
     40  OG1      -20.7050   -5.4530   17.1230 O.3    37  THR37      -0.2208
     41  CG2      -20.9720   -3.0860   17.6630 C.3    37  THR37       0.0379
     42  N        -22.8990   -3.7900   20.6990 N.am   38  THR38      -0.1950
     43  CA       -23.3220   -2.7930   21.6500 C.3    38  THR38       0.1897
     44  C        -22.7370   -3.0540   23.0650 C.2    38  THR38       0.2313
     45  O        -22.2930   -2.1330   23.7220 O.2    38  THR38      -0.2863
     46  CB       -24.8750   -2.6580   21.6520 C.3    38  THR38       0.1794
     47  OG1      -25.5260   -3.9380   21.5880 O.3    38  THR38      -0.2208
     48  CG2      -25.2760   -1.9010   20.3790 C.3    38  THR38       0.0378
     49  N        -22.2270    4.9110   17.6700 N.3    68  GLU68      -0.1245
     50  CA       -21.2380    4.6740   18.6840 C.3    68  GLU68       0.1567
     51  C        -19.9830    5.4070   18.2550 C.2    68  GLU68       0.2260
     52  O        -19.3330    5.9920   19.1150 O.2    68  GLU68      -0.2867
     53  CB       -20.8050    3.1790   18.8470 C.3    68  GLU68       0.0388
     54  CG       -21.8290    2.1070   18.9260 C.3    68  GLU68       0.1160
     55  CD       -22.3540    1.7150   17.5650 C.2    68  GLU68       0.3649
     56  OE1      -23.3160    2.3500   17.1550 O.co2  68  GLU68      -0.2457
     57  OE2      -21.8580    0.7540   16.9590 O.co2  68  GLU68      -0.2457
     58  N        -16.3240   -7.5960   15.2740 N.3   123  GLU123     -0.1245
     59  CA       -16.5330   -8.5340   14.1400 C.3   123  GLU123      0.1567
     60  C        -15.2600   -9.2390   13.6880 C.2   123  GLU123      0.2260
     61  O        -15.1750   -9.7030   12.5690 O.2   123  GLU123     -0.2867
     62  CB       -17.2480   -7.9080   12.9040 C.3   123  GLU123      0.0388
     63  CG       -18.1950   -6.7850   13.2390 C.3   123  GLU123      0.1160
     64  CD       -19.4010   -7.3160   13.9810 C.2   123  GLU123      0.3649
     65  OE1      -19.4750   -8.5600   14.2030 O.co2 123  GLU123     -0.2457
     66  OE2      -20.2600   -6.4480   14.3540 O.co2 123  GLU123     -0.2457
     67  N        -15.3350  -13.2270   12.1080 N.3   126  TYR126     -0.1241
     68  CA       -15.4500  -13.5850   10.6750 C.3   126  TYR126      0.1605
     69  C        -14.1540  -13.6190    9.9260 C.2   126  TYR126      0.2264
     70  O        -14.0300  -14.3860    8.9560 O.2   126  TYR126     -0.2867
     71  CB       -16.4210  -12.6790    9.9220 C.3   126  TYR126      0.0534
     72  CG       -17.7170  -12.5930   10.6110 C.ar  126  TYR126     -0.0201
     73  CD1      -18.0420  -11.4360   11.3700 C.ar  126  TYR126     -0.0009
     74  CD2      -18.6030  -13.6660   10.5730 C.ar  126  TYR126     -0.0009
     75  CE1      -19.2380  -11.3270   12.0280 C.ar  126  TYR126      0.0417
     76  CE2      -19.8300  -13.5940   11.2280 C.ar  126  TYR126      0.0417
     77  CZ       -20.1490  -12.4350   11.9670 C.ar  126  TYR126      0.1957
     78  OH       -21.3200  -12.4070   12.6560 O.3   126  TYR126     -0.2866
     79  N        -20.3130  -13.4560   15.6970 N.3   156  ARG156     -0.1245
     80  CA       -20.7850  -14.8480   15.6880 C.3   156  ARG156      0.1563
     81  C        -19.6240  -15.7350   15.3390 C.2   156  ARG156      0.2260
     82  O        -18.6780  -15.2900   14.6500 O.2   156  ARG156     -0.2867
     83  CB       -21.7900  -15.0470   14.5400 C.3   156  ARG156      0.0307
     84  CG       -23.1450  -14.4570   14.8150 C.3   156  ARG156      0.0489
     85  CD       -24.0030  -14.4950   13.5550 C.3   156  ARG156      0.2205
     86  NE       -25.2880  -13.9200   13.9460 N.pl3 156  ARG156     -0.0865
     87  CZ       -26.4520  -14.3310   13.4600 C.cat 156  ARG156      0.5346
     88  NH1      -26.4480  -15.2740   12.4860 N.pl3 156  ARG156      0.1354
     89  NH2      -27.5910  -13.7990   13.9160 N.pl3 156  ARG156      0.1354
     90  N        -30.3130  -15.7330   20.9230 N.3   174  PRO174     -0.2116
     91  CA       -31.3890  -14.9390   20.3630 C.3   174  PRO174      0.1372
     92  C        -32.7320  -15.5170   20.7920 C.2   174  PRO174      0.2244
     93  O        -33.4020  -16.1540   19.9830 O.2   174  PRO174     -0.2868
     94  CB       -31.1980  -15.1650   18.8710 C.3   174  PRO174      0.0268
     95  CG       -30.7170  -16.5790   18.8000 C.3   174  PRO174      0.0207
     96  CD       -29.6800  -16.5870   19.8960 C.3   174  PRO174      0.0892
     97  N        -36.2640  -11.9030   18.4770 N.3   177  HIS177     -0.1241
     98  CA       -35.7810  -10.7300   17.7950 C.3   177  HIS177      0.1621
     99  C        -36.8780  -10.0800   16.9580 C.2   177  HIS177      0.2264
    100  O        -37.5990  -10.7870   16.2020 O.2   177  HIS177     -0.2867
    101  CB       -34.5630  -11.0220   16.9250 C.3   177  HIS177      0.0745
    102  CG       -33.7770   -9.7840   16.6020 C.ar  177  HIS177      0.0817
    103  ND1      -34.2280   -8.8220   15.7200 N.ar  177  HIS177     -0.2268
    104  CD2      -32.5540   -9.3540   17.0340 C.ar  177  HIS177      0.1154
    105  CE1      -33.3470   -7.8250   15.6600 C.ar  177  HIS177      0.1986
    106  NE2      -32.3130   -8.1240   16.4410 N.ar  177  HIS177     -0.2212
    107  N        -36.7990   -8.2450   14.3270 N.3   179  PHE179     -0.1227
    108  CA       -36.6910   -8.6840   12.9230 C.3   179  PHE179      0.1736
    109  C        -37.6200   -9.8460   12.5070 C.2   179  PHE179      0.2595
    110  O        -38.1900   -9.7660   11.4460 O.2   179  PHE179     -0.2718
    111  CB       -35.2620   -9.0540   12.5760 C.3   179  PHE179      0.0547
    112  CG       -35.0160   -9.2040   11.1010 C.ar  179  PHE179     -0.0202
    113  CD1      -34.9250   -8.0690   10.2640 C.ar  179  PHE179     -0.0042
    114  CD2      -34.8700  -10.4710   10.5370 C.ar  179  PHE179     -0.0042
    115  CE1      -34.6880   -8.2240    8.8960 C.ar  179  PHE179     -0.0003
    116  CE2      -34.6300  -10.6370    9.1660 C.ar  179  PHE179     -0.0003
    117  CZ       -34.5370   -9.5200    8.3460 C.ar  179  PHE179     -0.0000
    118  N        -37.7510  -10.9000   13.3140 N.am  180  ASP180     -0.1974
    119  CA       -38.5940  -12.0540   12.9800 C.3   180  ASP180      0.1709
    120  C        -40.0870  -11.6130   12.9940 C.2   180  ASP180      0.2293
    121  O        -40.9260  -12.3030   12.4480 O.2   180  ASP180     -0.2864
    122  CB       -38.4490  -13.2150   13.9910 C.3   180  ASP180      0.1436
    123  CG       -36.9840  -13.7200   14.1580 C.2   180  ASP180      0.3671
    124  OD1      -36.2200  -13.6570   13.1800 O.co2 180  ASP180     -0.2456
    125  OD2      -36.6080  -14.1200   15.2920 O.co2 180  ASP180     -0.2456
    126  N        -34.6430   -2.4800   10.4880 N.3   185  ALA185     -0.1245
    127  CA       -33.4600   -1.7660   11.1010 C.3   185  ALA185      0.1562
    128  C        -33.7960   -0.2870   11.3520 C.2   185  ALA185      0.2260
    129  O        -34.2950    0.3860   10.4370 O.2   185  ALA185     -0.2867
    130  CB       -32.2410   -1.8710   10.1910 C.3   185  ALA185      0.0290
    131  N        -30.8840    2.1300   17.1810 N.3   189  ILE189     -0.1231
    132  CA       -31.1560    0.7970   17.7730 C.3   189  ILE189      0.1692
    133  C        -30.2670   -0.3120   17.1600 C.2   189  ILE189      0.2592
    134  O        -29.4450   -0.9360   17.8670 O.2   189  ILE189     -0.2718
    135  CB       -32.6520    0.4360   17.6860 C.3   189  ILE189      0.0266
    136  CG1      -33.4910    1.5190   18.4660 C.3   189  ILE189      0.0019
    137  CG2      -32.8470   -0.9540   18.2800 C.3   189  ILE189      0.0020
    138  CD1      -34.9800    1.4270   18.1380 C.3   189  ILE189      0.0001
    139  N        -30.3820   -0.4580   15.8510 N.am  190  ASP190     -0.1960
    140  CA       -29.7100   -1.4720   15.0600 C.3   190  ASP190      0.1840
    141  C        -28.4970   -0.9160   14.3640 C.2   190  ASP190      0.2622
    142  O        -27.6910   -1.6740   13.8760 O.2   190  ASP190     -0.2715
    143  CB       -30.6840   -2.1200   14.0640 C.3   190  ASP190      0.1450
    144  CG       -32.0130   -2.4220   14.7330 C.2   190  ASP190      0.3671
    145  OD1      -32.1740   -3.4660   15.3740 O.co2 190  ASP190     -0.2456
    146  OD2      -32.8530   -1.5280   14.7310 O.co2 190  ASP190     -0.2456
    147  N        -28.3340    0.3830   14.3700 N.am  191  TYR191     -0.1974
    148  CA       -27.0460    0.9720   13.8810 C.3   191  TYR191      0.1639
    149  C        -26.9300    2.4160   14.3220 C.2   191  TYR191      0.2290
    150  O        -27.9130    3.0700   14.7490 O.2   191  TYR191     -0.2864
    151  CB       -26.9300    0.8840   12.3170 C.3   191  TYR191      0.0560
    152  CG       -28.0300    1.6940   11.6330 C.ar  191  TYR191     -0.0198
    153  CD1      -27.8220    3.0450   11.2780 C.ar  191  TYR191     -0.0009
    154  CD2      -29.2870    1.1040   11.3410 C.ar  191  TYR191     -0.0009
    155  CE1      -28.8400    3.8030   10.6780 C.ar  191  TYR191      0.0417
    156  CE2      -30.2950    1.8240   10.7160 C.ar  191  TYR191      0.0417
    157  CZ       -30.0820    3.1680   10.4070 C.ar  191  TYR191      0.1957
    158  OH       -31.1070    3.8870    9.7960 O.3   191  TYR191     -0.2866
@<TRIPOS>BOND
     1   117   115   ar
     2   117   116   ar
     3   115   113   ar
     4    70    69    2
     5   116   114   ar
     6   158   157    1
     7    71    72    1
     8    71    68    1
     9    69    68    1
    10   130   127    1
    11   113   112   ar
    12   157   155   ar
    13   157   156   ar
    14   129   128    2
    15   126   127    1
    16   114   112   ar
    17    74    72   ar
    18    74    76   ar
    19    72    73   ar
    20    68    67    1
    21   155   153   ar
    22   156   154   ar
    23   112   111    1
    24   127   128    1
    25    76    77   ar
    26   153   152   ar
    27   154   152   ar
    28    73    75   ar
    29   110   109    2
    30   152   151    1
    31    77    75   ar
    32    77    78    1
    33   151   148    1
    34   121   120    2
    35    88    87    1
    36   109   108    1
    37   109   118   am
    38    61    60    2
    39   111   108    1
    40    62    63    1
    41    62    59    1
    42   108   107    1
    43   119   120    1
    44   119   118    1
    45   119   122    1
    46   124   123   ar
    47    63    64    1
    48    87    89    1
    49    87    86    2
    50    85    86    1
    51    85    84    1
    52    60    59    1
    53   142   141    2
    54   148   149    1
    55   148   147    1
    56    64    65   ar
    57    64    66   ar
    58   122   123    1
    59   143   144    1
    60   143   140    1
    61    59    58    1
    62   123   125   ar
    63   149   150    2
    64   141   147   am
    65   141   140    1
    66    83    84    1
    67    83    80    1
    68    82    81    2
    69   146   144   ar
    70   144   145   ar
    71   140   139    1
    72    81    80    1
    73     7     6    2
    74     8     6   am
    75   105   103   ar
    76   105   106   ar
    77    80    79    1
    78   103   102   ar
    79     6     5    1
    80   139   133   am
    81   100    99    2
    82   106   104   ar
    83   102   101    1
    84   102   104   ar
    85     5     2    1
    86     4     3    2
    87   101    98    1
    88    99    98    1
    89    57    55   ar
    90    40    39    1
    91    56    55   ar
    92   133   132    1
    93   133   134    2
    94   131   132    1
    95     2     3    1
    96     2     1    1
    97    55    54    1
    98    33    34    1
    99    33    32    1
   100    41    39    1
   101    49    50    1
   102   135   132    1
   103   135   137    1
   104   135   136    1
   105     3     9   am
   106    98    97    1
   107    39    36    1
   108   138   136    1
   109    51    50    1
   110    51    52    2
   111    50    53    1
   112    20    21    1
   113    20    19    1
   114    95    94    1
   115    95    96    1
   116    53    54    1
   117    94    91    1
   118    18    17    1
   119    18    19    1
   120    32    31    1
   121    17    14    1
   122     9    10    1
   123    14    13    1
   124    14    15    1
   125    12    11    2
   126    36    35    1
   127    36    37    1
   128    11    13   am
   129    11    10    1
   130    35    28   am
   131    96    90    1
   132    30    31    1
   133    30    27    1
   134    93    92    2
   135    91    92    1
   136    91    90    1
   137    48    46    1
   138    37    42   am
   139    37    38    2
   140    22    15   am
   141    22    23    1
   142    15    16    2
   143    42    43    1
   144    28    27    1
   145    28    29    2
   146    26    27    1
   147    26    24   am
   148    47    46    1
   149    43    46    1
   150    43    44    1
   151    23    24    1
   152    24    25    2
   153    44    45    2
