@<TRIPOS>MOLECULE
tmp/4hv3A00.pdb
 165 158 0 0 0
SMALL
GASTEIGER

@<TRIPOS>ATOM
      1  N        -25.1280    3.8240  -15.1780 N.3    79  ASN79      -0.1296
      2  CA       -24.7780    5.2850  -14.9810 C.3    79  ASN79       0.1339
      3  C        -23.5350    5.3650  -14.1110 C.3    79  ASN79       0.2014
      4  O        -23.1700    6.5220  -13.8200 O.3    79  ASN79      -0.2188
      5  CB       -25.9350    6.0470  -14.3500 C.3    79  ASN79       0.1102
      6  CG       -26.4710    5.3100  -13.0950 C.2    79  ASN79       0.2623
      7  OD1      -25.7740    4.5000  -12.4480 O.2    79  ASN79      -0.2716
      8  ND2      -27.7470    5.5860  -12.7690 N.am   79  ASN79      -0.0877
      9  N        -23.3190    4.9350  -11.0510 N.3    81  TYR81      -0.1227
     10  CA       -23.6250    5.4710   -9.7010 C.3    81  TYR81       0.1736
     11  C        -23.3290    4.4830   -8.6270 C.2    81  TYR81       0.2595
     12  O        -23.5140    3.2790   -8.7800 O.2    81  TYR81      -0.2718
     13  CB       -25.1160    5.8140   -9.6080 C.3    81  TYR81       0.0548
     14  CG       -25.4420    7.2290   -9.9810 C.ar   81  TYR81      -0.0200
     15  CD1      -26.1380    8.0790   -9.1090 C.ar   81  TYR81      -0.0009
     16  CD2      -25.0500    7.7500  -11.2490 C.ar   81  TYR81      -0.0009
     17  CE1      -26.4290    9.4060   -9.5220 C.ar   81  TYR81       0.0417
     18  CE2      -25.3340    9.0710  -11.6470 C.ar   81  TYR81       0.0417
     19  CZ       -25.9890    9.9380  -10.7520 C.ar   81  TYR81       0.1957
     20  OH       -26.1940   11.2600  -11.2010 O.3    81  TYR81      -0.2866
     21  N        -22.7690    4.9990   -7.4990 N.am   82  VAL82      -0.1980
     22  CA       -22.6190    4.1100   -6.3300 C.3    82  VAL82       0.1595
     23  C        -23.9950    3.9900   -5.6970 C.2    82  VAL82       0.2287
     24  O        -24.5410    5.0010   -5.3070 O.2    82  VAL82      -0.2864
     25  CB       -21.6520    4.8180   -5.3630 C.3    82  VAL82       0.0276
     26  CG1      -21.5820    4.0380   -4.0390 C.3    82  VAL82       0.0022
     27  CG2      -20.2540    4.9620   -6.0540 C.3    82  VAL82       0.0022
     28  N        -28.3620    3.6510   -0.7120 N.3    94  PHE94      -0.1241
     29  CA       -29.0740    4.9120   -0.8300 C.3    94  PHE94       0.1605
     30  C        -30.5800    4.6810   -1.1550 C.2    94  PHE94       0.2264
     31  O        -30.9260    3.6070   -1.7040 O.2    94  PHE94      -0.2867
     32  CB       -28.5040    5.9080   -1.8790 C.3    94  PHE94       0.0534
     33  CG       -27.1010    6.2470   -1.5940 C.ar   94  PHE94      -0.0203
     34  CD1      -26.8080    7.0690   -0.5090 C.ar   94  PHE94      -0.0042
     35  CD2      -26.0680    5.8000   -2.4200 C.ar   94  PHE94      -0.0042
     36  CE1      -25.4640    7.4400   -0.2190 C.ar   94  PHE94      -0.0003
     37  CE2      -24.7520    6.1560   -2.1140 C.ar   94  PHE94      -0.0003
     38  CZ       -24.4220    7.0180   -1.0200 C.ar   94  PHE94      -0.0000
     39  N        -34.6140    5.5100   -6.2150 N.3    97  ASP97      -0.1239
     40  CA       -35.3290    6.4260   -7.0020 C.3    97  ASP97       0.1674
     41  C        -36.6660    5.9070   -7.5450 C.2    97  ASP97       0.2266
     42  O        -37.5150    6.7080   -7.9290 O.2    97  ASP97      -0.2867
     43  CB       -34.4870    6.7470   -8.2430 C.3    97  ASP97       0.1410
     44  CG       -33.4170    7.8070   -7.9920 C.2    97  ASP97       0.3668
     45  OD1      -32.6960    8.1430   -8.9690 O.co2  97  ASP97      -0.2456
     46  OD2      -33.3180    8.3360   -6.8640 O.co2  97  ASP97      -0.2456
     47  N        -28.6980    9.3490   -2.7380 N.3   122  GLY122     -0.1210
     48  CA       -27.2390    9.5150   -2.8140 C.3   122  GLY122      0.1956
     49  C        -26.8210   10.5540   -3.8640 C.2   122  GLY122      0.2612
     50  O        -25.5830   10.5160   -4.2130 O.2   122  GLY122     -0.2717
     51  N        -27.6150   11.5060   -4.3620 N.am  123  ASN123     -0.1960
     52  CA       -27.2030   12.5530   -5.2980 C.3   123  ASN123      0.1819
     53  C        -26.2760   13.5510   -4.6020 C.2   123  ASN123      0.2621
     54  O        -26.3130   13.6700   -3.3510 O.2   123  ASN123     -0.2715
     55  CB       -28.4210   13.2520   -5.9110 C.3   123  ASN123      0.1195
     56  CG       -29.3440   13.8250   -4.8260 C.2   123  ASN123      0.2630
     57  OD1      -29.1210   14.9770   -4.4270 O.2   123  ASN123     -0.2716
     58  ND2      -30.3200   12.9790   -4.2730 N.am  123  ASN123     -0.0877
     59  N        -25.4280   14.2470   -5.3500 N.am  124  TYR124     -0.1960
     60  CA       -24.4890   15.1690   -4.7280 C.3   124  TYR124      0.1771
     61  C        -25.2130   16.2250   -3.8670 C.2   124  TYR124      0.2619
     62  O        -24.7060   16.4720   -2.7850 O.2   124  TYR124     -0.2715
     63  CB       -23.6750   15.9610   -5.7510 C.3   124  TYR124      0.0574
     64  CG       -22.5690   15.1670   -6.4460 C.ar  124  TYR124     -0.0198
     65  CD1      -21.7300   14.2930   -5.7300 C.ar  124  TYR124     -0.0009
     66  CD2      -22.4260   15.3640   -7.8310 C.ar  124  TYR124     -0.0009
     67  CE1      -20.6950   13.6300   -6.3900 C.ar  124  TYR124      0.0417
     68  CE2      -21.4000   14.6650   -8.5050 C.ar  124  TYR124      0.0417
     69  CZ       -20.6130   13.8210   -7.7720 C.ar  124  TYR124      0.1957
     70  OH       -19.5670   13.2020   -8.4630 O.3   124  TYR124     -0.2866
     71  N        -26.3390   16.7440   -4.3260 N.am  125  ASP125     -0.1971
     72  CA       -26.9460   17.8840   -3.5350 C.3   125  ASP125      0.1709
     73  C        -27.3330   17.3480   -2.1450 C.2   125  ASP125      0.2293
     74  O        -26.9660   17.9860   -1.1010 O.2   125  ASP125     -0.2864
     75  CB       -28.1540   18.3110   -4.2910 C.3   125  ASP125      0.1436
     76  CG       -28.8280   19.5300   -3.6830 C.2   125  ASP125      0.3671
     77  OD1      -28.2880   20.2910   -2.8690 O.co2 125  ASP125     -0.2456
     78  OD2      -29.9800   19.7370   -4.0770 O.co2 125  ASP125     -0.2456
     79  N        -17.2670    8.7720   -4.7050 N.3   173  ILE173     -0.1245
     80  CA       -17.9600    8.9080   -6.0050 C.3   173  ILE173      0.1561
     81  C        -17.0770    9.6590   -6.9770 C.2   173  ILE173      0.2260
     82  O        -16.9710    9.2420   -8.1490 O.2   173  ILE173     -0.2867
     83  CB       -19.3070    9.6470   -5.7710 C.3   173  ILE173      0.0252
     84  CG1      -20.2110    8.7700   -4.9290 C.3   173  ILE173      0.0019
     85  CG2      -19.8940   10.1810   -7.0750 C.3   173  ILE173      0.0019
     86  CD1      -21.3520    9.6760   -4.3210 C.3   173  ILE173      0.0001
     87  N        -16.3640    6.8400   -9.6030 N.3   177  SER177     -0.1202
     88  CA       -17.3750    7.0100  -10.7020 C.3   177  SER177      0.2020
     89  C        -17.0340    8.1720  -11.6370 C.2   177  SER177      0.2618
     90  O        -17.0780    8.0280  -12.8960 O.2   177  SER177     -0.2717
     91  CB       -18.7410    7.2420  -10.1360 C.3   177  SER177      0.2103
     92  OG       -19.0250    6.1450   -9.2710 O.3   177  SER177     -0.2182
     93  N        -16.6800    9.3420  -11.0840 N.am  178  GLU178     -0.1979
     94  CA       -16.4160   10.4490  -11.9740 C.3   178  GLU178      0.1602
     95  C        -15.1140   10.3000  -12.7310 C.2   178  GLU178      0.2287
     96  O        -15.0410   10.6560  -13.9450 O.2   178  GLU178     -0.2864
     97  CB       -16.3560   11.8290  -11.2470 C.3   178  GLU178      0.0415
     98  CG       -17.6290   12.2260  -10.5710 C.3   178  GLU178      0.1163
     99  CD       -18.7500   12.6140  -11.5300 C.2   178  GLU178      0.3649
    100  OE1      -18.6990   12.3910  -12.7620 O.co2 178  GLU178     -0.2457
    101  OE2      -19.7900   13.0960  -10.9830 O.co2 178  GLU178     -0.2457
    102  N        -16.0240    8.1340  -15.5970 N.3   181  ARG181     -0.1245
    103  CA       -16.7560    8.8480  -16.6150 C.3   181  ARG181      0.1563
    104  C        -15.8520    9.7570  -17.4570 C.2   181  ARG181      0.2260
    105  O        -16.1660    9.9740  -18.6530 O.2   181  ARG181     -0.2867
    106  CB       -17.9080    9.6520  -15.9580 C.3   181  ARG181      0.0307
    107  CG       -18.9950    8.7780  -15.3910 C.3   181  ARG181      0.0489
    108  CD       -19.8600    9.7700  -14.5950 C.3   181  ARG181      0.2205
    109  NE       -20.8300    8.9380  -13.8410 N.pl3 181  ARG181     -0.0865
    110  CZ       -21.1380    9.1080  -12.5200 C.cat 181  ARG181      0.5346
    111  NH1      -20.6410   10.1660  -11.8260 N.pl3 181  ARG181      0.1354
    112  NH2      -21.9890    8.2710  -11.9700 N.pl3 181  ARG181      0.1354
    113  N        -18.6650   17.2790  -13.8950 N.3   209  GLU209     -0.1231
    114  CA       -19.5710   16.4580  -13.0680 C.3   209  GLU209      0.1699
    115  C        -21.0350   16.9630  -13.2660 C.2   209  GLU209      0.2592
    116  O        -21.9490   16.1400  -13.4730 O.2   209  GLU209     -0.2718
    117  CB       -19.2210   16.5660  -11.6020 C.3   209  GLU209      0.0402
    118  CG       -17.7650   16.0580  -11.3160 C.3   209  GLU209      0.1161
    119  CD       -17.3940   16.1890   -9.8970 C.2   209  GLU209      0.3649
    120  OE1      -18.1390   16.7290   -9.0950 O.co2 209  GLU209     -0.2457
    121  OE2      -16.3060   15.6550   -9.4760 O.co2 209  GLU209     -0.2457
    122  N        -21.1800   18.2970  -13.1870 N.am  210  ASN210     -0.1974
    123  CA       -22.5300   18.7970  -13.2070 C.3   210  ASN210      0.1688
    124  C        -23.1780   18.6350  -14.5590 C.2   210  ASN210      0.2292
    125  O        -24.4510   18.7610  -14.6300 O.2   210  ASN210     -0.2864
    126  CB       -22.5400   20.2850  -12.8850 C.3   210  ASN210      0.1181
    127  CG       -22.2350   20.5920  -11.3980 C.2   210  ASN210      0.2629
    128  OD1      -21.9450   21.8450  -11.1020 O.2   210  ASN210     -0.2716
    129  ND2      -22.3250   19.6640  -10.5680 N.am  210  ASN210     -0.0877
    130  N        -22.5990   16.0200  -16.9210 N.3   212  TRP212     -0.1227
    131  CA       -22.3780   14.7100  -17.6530 C.3   212  TRP212      0.1737
    132  C        -23.6000   14.2830  -18.4250 C.2   212  TRP212      0.2596
    133  O        -23.4960   13.7810  -19.5550 O.2   212  TRP212     -0.2718
    134  CB       -22.0350   13.6320  -16.6350 C.3   212  TRP212      0.0564
    135  CG       -21.7220   12.2750  -17.2700 C.ar  212  TRP212      0.0003
    136  CD1      -20.7880   12.0240  -18.2560 C.ar  212  TRP212      0.0946
    137  CD2      -22.2840   11.0180  -16.8780 C.ar  212  TRP212      0.0152
    138  NE1      -20.7470   10.6570  -18.4770 N.ar  212  TRP212     -0.2442
    139  CE2      -21.6430   10.0210  -17.6910 C.ar  212  TRP212      0.0810
    140  CE3      -23.2690   10.6350  -15.9230 C.ar  212  TRP212      0.0012
    141  CZ2      -21.9400    8.6610  -17.5370 C.ar  212  TRP212      0.0191
    142  CZ3      -23.5900    9.2540  -15.7840 C.ar  212  TRP212      0.0001
    143  CH2      -22.9220    8.2760  -16.5930 C.ar  212  TRP212      0.0015
    144  N        -24.7740   14.3970  -17.8480 N.am  213  GLY213     -0.1957
    145  CA       -25.9830   14.0230  -18.5760 C.3   213  GLY213      0.1869
    146  C        -26.2590   14.9360  -19.7500 C.2   213  GLY213      0.2309
    147  O        -26.6270   14.3880  -20.8390 O.2   213  GLY213     -0.2863
    148  N        -23.7770    8.2760  -20.4700 N.3   257  VAL257     -0.1245
    149  CA       -25.0160    7.5700  -20.0580 C.3   257  VAL257      0.1561
    150  C        -25.8890    7.4630  -21.3320 C.2   257  VAL257      0.2260
    151  O        -25.8930    8.3570  -22.1740 O.2   257  VAL257     -0.2867
    152  CB       -25.7280    8.3360  -18.8540 C.3   257  VAL257      0.0252
    153  CG1      -26.0430    9.7890  -19.2840 C.3   257  VAL257      0.0019
    154  CG2      -26.9950    7.6280  -18.4120 C.3   257  VAL257      0.0019
    155  N        -28.8520    7.9630  -23.6250 N.3   259  ARG259     -0.1245
    156  CA       -29.9010    9.0300  -23.6340 C.3   259  ARG259      0.1563
    157  C        -30.8290    8.8230  -24.7840 C.2   259  ARG259      0.2260
    158  O        -32.0080    8.9340  -24.6370 O.2   259  ARG259     -0.2867
    159  CB       -29.2990   10.4390  -23.6720 C.3   259  ARG259      0.0307
    160  CG       -28.6070   10.8200  -22.3870 C.3   259  ARG259      0.0489
    161  CD       -29.7530   11.0430  -21.4210 C.3   259  ARG259      0.2205
    162  NE       -29.7080   10.4190  -20.1020 N.pl3 259  ARG259     -0.0865
    163  CZ       -29.4440   11.1930  -19.1080 C.cat 259  ARG259      0.5346
    164  NH1      -29.2310   12.4420  -19.4620 N.pl3 259  ARG259      0.1354
    165  NH2      -29.3810   10.8610  -17.8190 N.pl3 259  ARG259      0.1354
@<TRIPOS>BOND
     1   157   158    2
     2   157   156    1
     3   159   156    1
     4   159   160    1
     5   156   155    1
     6   160   161    1
     7   151   150    2
     8   161   162    1
     9   150   149    1
    10   147   146    2
    11   148   149    1
    12   162   163    2
    13   149   152    1
    14   146   145    1
    15   133   132    2
    16   164   163    1
    17   153   152    1
    18   163   165    1
    19   152   154    1
    20   105   104    2
    21   145   144    1
    22   138   136   ar
    23   138   139   ar
    24   132   144   am
    25   132   131    1
    26   136   135   ar
    27   139   141   ar
    28   139   137   ar
    29   131   130    1
    30   131   134    1
    31   141   143   ar
    32   104   103    1
    33   135   137   ar
    34   135   134    1
    35   137   140   ar
    36   103   106    1
    37   103   102    1
    38   143   142   ar
    39   106   107    1
    40   140   142   ar
    41   107   108    1
    42     1     2    1
    43     2     5    1
    44     2     3    1
    45   125   124    2
    46   108   109    1
    47   124   123    1
    48     5     6    1
    49     3     4    1
    50    96    95    2
    51   113   114    1
    52   109   110    2
    53   116   115    2
    54   115   122   am
    55   115   114    1
    56   123   122    1
    57   123   126    1
    58     6     8   am
    59     6     7    2
    60   114   117    1
    61    90    89    2
    62   126   127    1
    63   100    99   ar
    64    95    94    1
    65   110   112    1
    66   110   111    1
    67    94    97    1
    68    94    93    1
    69    18    16   ar
    70    18    19   ar
    71    89    93   am
    72    89    88    1
    73   117   118    1
    74    99   101   ar
    75    99    98    1
    76   127   128    2
    77   127   129   am
    78   118   119    1
    79    16    14   ar
    80    97    98    1
    81    20    19    1
    82     9    10    1
    83    19    17   ar
    84    88    91    1
    85    88    87    1
    86    91    92    1
    87    14    13    1
    88    14    15   ar
    89   119   121   ar
    90   119   120   ar
    91    10    13    1
    92    10    11    1
    93    17    15   ar
    94    45    44   ar
    95    12    11    2
    96    11    21   am
    97    68    66   ar
    98    68    69   ar
    99    70    69    1
   100    43    44    1
   101    43    40    1
   102    82    81    2
   103    44    46   ar
   104    42    41    2
   105    66    64   ar
   106    69    67   ar
   107    41    40    1
   108    21    22    1
   109    85    83    1
   110    40    39    1
   111    81    80    1
   112    64    63    1
   113    64    65   ar
   114    67    65   ar
   115    22    23    1
   116    22    25    1
   117    27    25    1
   118    80    83    1
   119    80    79    1
   120    55    52    1
   121    55    56    1
   122    83    84    1
   123    63    60    1
   124    23    24    2
   125    25    26    1
   126    59    60    1
   127    59    53   am
   128    52    53    1
   129    52    51    1
   130    84    86    1
   131    56    57    2
   132    56    58   am
   133    60    61    1
   134    53    54    2
   135    51    49   am
   136    71    61   am
   137    71    72    1
   138    75    76    1
   139    75    72    1
   140    50    49    2
   141    78    76   ar
   142    61    62    2
   143    49    48    1
   144    76    77   ar
   145    72    73    1
   146    48    47    1
   147    35    37   ar
   148    35    33   ar
   149    73    74    2
   150    37    38   ar
   151    32    33    1
   152    32    29    1
   153    31    30    2
   154    33    34   ar
   155    30    29    1
   156    38    36   ar
   157    29    28    1
   158    34    36   ar
