@<TRIPOS>MOLECULE
tmp/4hv4A00.pdb
 156 151 0 0 0
SMALL
GASTEIGER

@<TRIPOS>ATOM
      1  N         28.8510   38.1930   13.0100 N.3   109  THR109     -0.1203
      2  CA        28.0400   39.3680   12.7660 C.3   109  THR109      0.1994
      3  C         26.8450   39.0210   11.8650 C.2   109  THR109      0.2618
      4  O         25.7500   39.5660   12.0590 O.2   109  THR109     -0.2717
      5  CB        28.8700   40.4600   12.0770 C.3   109  THR109      0.1784
      6  OG1       30.0730   40.6840   12.8110 O.3   109  THR109     -0.2211
      7  CG2       28.0820   41.7550   11.9730 C.3   109  THR109      0.0376
      8  N         27.0620   38.1490   10.8750 N.am  110  HIS110     -0.1961
      9  CA        25.9800   37.7160    9.9510 C.3   110  HIS110      0.1787
     10  C         25.9880   36.2120    9.7580 C.2   110  HIS110      0.2621
     11  O         27.0440   35.6090    9.6650 O.2   110  HIS110     -0.2715
     12  CB        26.1730   38.2930    8.5390 C.3   110  HIS110      0.0785
     13  CG        26.6200   39.7220    8.5130 C.ar  110  HIS110      0.0821
     14  ND1       25.8170   40.7600    8.9270 N.ar  110  HIS110     -0.2267
     15  CD2       27.7790   40.2870    8.0920 C.ar  110  HIS110      0.1154
     16  CE1       26.4630   41.9050    8.7750 C.ar  110  HIS110      0.1986
     17  NE2       27.6590   41.6460    8.2770 N.ar  110  HIS110     -0.2212
     18  N         24.8190   35.5920    9.7030 N.am  111  GLY111     -0.1940
     19  CA        24.7350   34.1570    9.4200 C.3   111  GLY111      0.2014
     20  C         24.5840   33.2310   10.6010 C.2   111  GLY111      0.2639
     21  O         24.4330   32.0170   10.4090 O.2   111  GLY111     -0.2714
     22  N         24.6760   33.7790   11.8110 N.am  112  LYS112     -0.1963
     23  CA        24.5670   33.0060   13.0410 C.3   112  LYS112      0.1728
     24  C         23.3340   32.1490   13.1230 C.2   112  LYS112      0.2617
     25  O         23.4040   30.9700   13.4640 O.2   112  LYS112     -0.2715
     26  CB        24.4450   33.9300   14.2660 C.3   112  LYS112      0.0311
     27  CG        25.6670   34.5800   14.7830 C.3   112  LYS112      0.0038
     28  CD        25.2830   35.4390   16.0010 C.3   112  LYS112      0.0206
     29  CE        24.4700   36.6600   15.5840 C.3   112  LYS112      0.1093
     30  NZ        23.8330   37.2760   16.7070 N.3   112  LYS112     -0.1314
     31  N         22.1880   32.7770   12.9040 N.am  113  THR113     -0.1937
     32  CA        20.9090   32.0820   13.0200 C.3   113  THR113      0.2028
     33  C         20.7530   30.9610   12.0150 C.2   113  THR113      0.2642
     34  O         20.3530   29.8560   12.3730 O.2   113  THR113     -0.2714
     35  CB        19.7430   33.0300   12.8780 C.3   113  THR113      0.1808
     36  OG1       19.8250   33.9970   13.9200 O.3   113  THR113     -0.2208
     37  CG2       18.4240   32.2600   13.0020 C.3   113  THR113      0.0379
     38  N         21.0930   31.2470   10.7680 N.am  114  THR114     -0.1950
     39  CA        21.0060   30.2490    9.7240 C.3   114  THR114      0.1897
     40  C         21.9090   29.0860    9.9910 C.2   114  THR114      0.2313
     41  O         21.4970   27.9360    9.8570 O.2   114  THR114     -0.2863
     42  CB        21.3430   30.8670    8.3670 C.3   114  THR114      0.1794
     43  OG1       20.3560   31.8600    8.1020 O.3   114  THR114     -0.2208
     44  CG2       21.3470   29.8070    7.2570 C.3   114  THR114      0.0378
     45  N         31.4080   33.0670   12.1320 N.3   175  THR175     -0.1203
     46  CA        31.0910   33.1810   10.6940 C.3   175  THR175      0.1994
     47  C         31.7710   34.3590   10.0280 C.2   175  THR175      0.2617
     48  O         32.1210   34.2980    8.8620 O.2   175  THR175     -0.2717
     49  CB        29.5700   33.3580   10.4660 C.3   175  THR175      0.1784
     50  OG1       29.1130   34.5140   11.1870 O.3   175  THR175     -0.2211
     51  CG2       28.8190   32.1470   10.9230 C.3   175  THR175      0.0376
     52  N         31.9290   35.4420   10.7790 N.am  176  ASN176     -0.1974
     53  CA        32.5680   36.6530   10.2700 C.3   176  ASN176      0.1688
     54  C         32.4830   37.7460   11.3320 C.2   176  ASN176      0.2292
     55  O         31.7120   37.6460   12.2570 O.2   176  ASN176     -0.2864
     56  CB        31.8880   37.0940    8.9720 C.3   176  ASN176      0.1181
     57  CG        30.3740   37.1950    9.1260 C.2   176  ASN176      0.2629
     58  OD1       29.8800   37.9280    9.9880 O.2   176  ASN176     -0.2716
     59  ND2       29.6290   36.4450    8.3020 N.am  176  ASN176     -0.0877
     60  N         26.6610   32.9640    0.3760 N.3   274  HIS274     -0.1226
     61  CA        26.7170   33.1670    1.8230 C.3   274  HIS274      0.1752
     62  C         26.1000   31.9730    2.5770 C.2   274  HIS274      0.2596
     63  O         26.5400   31.6100    3.6910 O.2   274  HIS274     -0.2718
     64  CB        26.0360   34.4970    2.2040 C.3   274  HIS274      0.0759
     65  CG        24.5650   34.5300    1.9170 C.ar  274  HIS274      0.0818
     66  ND1       24.0530   34.8090    0.6640 N.ar  274  HIS274     -0.2268
     67  CD2       23.4950   34.3430    2.7320 C.ar  274  HIS274      0.1154
     68  CE1       22.7330   34.7780    0.7190 C.ar  274  HIS274      0.1986
     69  NE2       22.3700   34.4920    1.9610 N.ar  274  HIS274     -0.2212
     70  N         25.0770   31.3540    1.9980 N.am  275  ASN275     -0.1974
     71  CA        24.4930   30.1600    2.6410 C.3   275  ASN275      0.1688
     72  C         25.3840   28.9290    2.4550 C.2   275  ASN275      0.2292
     73  O         25.3300   27.9990    3.2530 O.2   275  ASN275     -0.2864
     74  CB        23.0460   29.9270    2.2300 C.3   275  ASN275      0.1181
     75  CG        22.0920   30.8200    2.9870 C.2   275  ASN275      0.2629
     76  OD1       22.2690   31.0280    4.1860 O.2   275  ASN275     -0.2716
     77  ND2       21.0670   31.3490    2.3020 N.am  275  ASN275     -0.0877
     78  N         28.5960   29.2110    2.6540 N.3   277  LEU277     -0.1231
     79  CA        29.5540   29.4340    3.7480 C.3   277  LEU277      0.1693
     80  C         28.9860   28.9420    5.0630 C.2   277  LEU277      0.2592
     81  O         29.6550   28.2340    5.8110 O.2   277  LEU277     -0.2718
     82  CB        29.9400   30.9110    3.8660 C.3   277  LEU277      0.0284
     83  CG        30.8380   31.4860    2.7530 C.3   277  LEU277      0.0019
     84  CD1       30.9270   33.0130    2.8330 C.3   277  LEU277      0.0001
     85  CD2       32.2270   30.8730    2.8320 C.3   277  LEU277      0.0001
     86  N         27.7490   29.3180    5.3520 N.am  278  ASN278     -0.1974
     87  CA        27.0900   28.8920    6.5850 C.3   278  ASN278      0.1688
     88  C         27.0540   27.3520    6.6770 C.2   278  ASN278      0.2292
     89  O         27.2820   26.7680    7.7440 O.2   278  ASN278     -0.2864
     90  CB        25.6750   29.4700    6.6340 C.3   278  ASN278      0.1181
     91  CG        25.6680   30.9920    6.7230 C.2   278  ASN278      0.2629
     92  OD1       26.6490   31.5900    7.1640 O.2   278  ASN278     -0.2716
     93  ND2       24.5610   31.6230    6.2970 N.am  278  ASN278     -0.0877
     94  N         14.3660   34.6360    6.9440 N.3   309  ARG309     -0.1245
     95  CA        15.6860   34.5230    6.3360 C.3   309  ARG309      0.1563
     96  C         15.4360   33.9840    4.9260 C.2   309  ARG309      0.2260
     97  O         15.2450   32.7980    4.7360 O.2   309  ARG309     -0.2867
     98  CB        16.6350   33.6270    7.1160 C.3   309  ARG309      0.0307
     99  CG        17.3300   34.3090    8.2880 C.3   309  ARG309      0.0489
    100  CD        16.4320   34.5860    9.4670 C.3   309  ARG309      0.2205
    101  NE        17.1840   35.1490   10.5840 N.pl3 309  ARG309     -0.0865
    102  CZ        16.6420   35.5410   11.7310 C.cat 309  ARG309      0.5346
    103  NH1       15.3470   35.4380   11.9010 N.pl3 309  ARG309      0.1354
    104  NH2       17.3900   36.0390   12.7140 N.pl3 309  ARG309      0.1354
    105  N         12.7610   39.0720    4.1880 N.3   333  ASP333     -0.1225
    106  CA        14.0890   39.0140    4.8210 C.3   333  ASP333      0.1805
    107  C         14.3020   40.0870    5.8940 C.2   333  ASP333      0.2598
    108  O         14.0480   41.2640    5.6630 O.2   333  ASP333     -0.2718
    109  CB        15.1970   39.1430    3.8080 C.3   333  ASP333      0.1424
    110  CG        16.5180   38.6360    4.3500 C.2   333  ASP333      0.3668
    111  OD1       16.6610   37.3960    4.4620 O.co2 333  ASP333     -0.2456
    112  OD2       17.4270   39.4580    4.6040 O.co2 333  ASP333     -0.2456
    113  N         14.8020   39.7010    7.0660 N.am  334  TYR334     -0.1962
    114  CA        14.9910   40.6740    8.1420 C.3   334  TYR334      0.1771
    115  C         16.3270   41.4210    8.0330 C.2   334  TYR334      0.2620
    116  O         16.5740   42.3640    8.7900 O.2   334  TYR334     -0.2715
    117  CB        14.8800   40.0060    9.5200 C.3   334  TYR334      0.0574
    118  CG        16.1900   39.5170   10.0860 C.ar  334  TYR334     -0.0198
    119  CD1       16.7050   40.0650   11.2600 C.ar  334  TYR334     -0.0009
    120  CD2       16.9340   38.5570    9.4360 C.ar  334  TYR334     -0.0009
    121  CE1       17.9080   39.6260   11.7940 C.ar  334  TYR334      0.0417
    122  CE2       18.1350   38.1160    9.9500 C.ar  334  TYR334      0.0417
    123  CZ        18.6220   38.6580   11.1230 C.ar  334  TYR334      0.1957
    124  OH        19.8210   38.2130   11.6150 O.3   334  TYR334     -0.2866
    125  N         17.1910   41.0080    7.1080 N.am  335  GLY335     -0.1954
    126  CA        18.4750   41.7010    6.9070 C.3   335  GLY335      0.1869
    127  C         18.3940   43.2170    7.0060 C.2   335  GLY335      0.2309
    128  O         17.5950   43.8390    6.3330 O.2   335  GLY335     -0.2863
    129  N         25.4080   44.6950    4.2400 N.3   339  THR339     -0.1203
    130  CA        25.9820   43.4210    3.7750 C.3   339  THR339      0.1994
    131  C         24.9050   42.3540    3.6310 C.2   339  THR339      0.2617
    132  O         24.9440   41.5380    2.7060 O.2   339  THR339     -0.2717
    133  CB        27.0160   42.8750    4.7590 C.3   339  THR339      0.1784
    134  OG1       28.1650   43.7300    4.7600 O.3   339  THR339     -0.2211
    135  CG2       27.4250   41.4430    4.3680 C.3   339  THR339      0.0376
    136  N         23.9750   42.3580    4.5900 N.am  340  GLU340     -0.1979
    137  CA        22.8660   41.4240    4.6360 C.3   340  GLU340      0.1602
    138  C         21.8830   41.6890    3.4710 C.2   340  GLU340      0.2287
    139  O         21.4260   40.7610    2.7980 O.2   340  GLU340     -0.2864
    140  CB        22.1860   41.5200    6.0100 C.3   340  GLU340      0.0415
    141  CG        23.0730   40.9570    7.1560 C.3   340  GLU340      0.1163
    142  CD        22.6250   41.3380    8.5730 C.2   340  GLU340      0.3649
    143  OE1       21.6380   42.0860    8.7280 O.co2 340  GLU340     -0.2457
    144  OE2       23.3160   40.9230    9.5470 O.co2 340  GLU340     -0.2457
    145  N         23.5780   40.5650    0.2020 N.3   343  ALA343     -0.1231
    146  CA        23.5760   39.1080    0.0520 C.3   343  ALA343      0.1694
    147  C         22.2050   38.6190   -0.4220 C.2   343  ALA343      0.2592
    148  O         22.1230   37.7480   -1.2920 O.2   343  ALA343     -0.2718
    149  CB        23.9710   38.4200    1.3700 C.3   343  ALA343      0.0304
    150  N         21.1340   39.1930    0.1340 N.am  344  THR344     -0.1953
    151  CA        19.7580   38.8220   -0.2420 C.3   344  THR344      0.1897
    152  C         19.4830   39.1570   -1.7120 C.2   344  THR344      0.2313
    153  O         18.8550   38.3820   -2.4370 O.2   344  THR344     -0.2863
    154  CB        18.7220   39.5480    0.6330 C.3   344  THR344      0.1794
    155  OG1       18.9180   39.2110    2.0170 O.3   344  THR344     -0.2208
    156  CG2       17.2990   39.1680    0.2310 C.3   344  THR344      0.0378
@<TRIPOS>BOND
     1   153   152    2
     2   152   151    1
     3   148   147    2
     4   147   146    1
     5   147   150   am
     6   151   150    1
     7   151   154    1
     8   146   145    1
     9   146   149    1
    10   156   154    1
    11    60    61    1
    12   154   155    1
    13    66    68   ar
    14    66    65   ar
    15    68    69   ar
    16    61    64    1
    17    61    62    1
    18    65    64    1
    19    65    67   ar
    20    69    67   ar
    21    70    62   am
    22    70    71    1
    23    74    71    1
    24    74    75    1
    25    77    75   am
    26    72    71    1
    27    72    73    2
    28    62    63    2
    29    78    79    1
    30   132   131    2
    31    83    85    1
    32    83    84    1
    33    83    82    1
    34   139   138    2
    35    75    76    2
    36   138   137    1
    37   131   130    1
    38   131   136   am
    39    79    82    1
    40    79    80    1
    41   130   129    1
    42   130   133    1
    43   109   110    1
    44   109   106    1
    45   105   106    1
    46   110   111   ar
    47   110   112   ar
    48   135   133    1
    49   136   137    1
    50   137   140    1
    51    97    96    2
    52   133   134    1
    53   106   107    1
    54    96    95    1
    55    80    86   am
    56    80    81    2
    57    86    87    1
    58   108   107    2
    59   107   113   am
    60   140   141    1
    61    93    91   am
    62   128   127    2
    63    95    94    1
    64    95    98    1
    65    87    90    1
    66    87    88    1
    67    90    91    1
    68    88    89    2
    69    91    92    2
    70   126   127    1
    71   126   125    1
    72   113   114    1
    73   125   115   am
    74    98    99    1
    75   141   142    1
    76    44    42    1
    77   115   114    1
    78   115   116    2
    79    15    17   ar
    80    15    13   ar
    81    43    42    1
    82   114   117    1
    83    17    16   ar
    84    99   100    1
    85    59    57   am
    86    42    39    1
    87    13    12    1
    88    13    14   ar
    89    12     9    1
    90   142   143   ar
    91   142   144   ar
    92    16    14   ar
    93    48    47    2
    94    56    57    1
    95    56    53    1
    96    57    58    2
    97    19    18    1
    98    19    20    1
    99   120   122   ar
   100   120   118   ar
   101   100   101    1
   102   117   118    1
   103    11    10    2
   104    18    10   am
   105    39    40    1
   106    39    38    1
   107    10     9    1
   108    41    40    2
   109   122   123   ar
   110     9     8    1
   111    47    46    1
   112    47    52   am
   113   118   119   ar
   114    53    52    1
   115    53    54    1
   116    21    20    2
   117    49    46    1
   118    49    51    1
   119    49    50    1
   120   101   102    2
   121    20    22   am
   122    46    45    1
   123    38    33   am
   124     8     3   am
   125   123   124    1
   126   123   121   ar
   127   119   121   ar
   128    54    55    2
   129   102   103    1
   130   102   104    1
   131    22    23    1
   132     3     4    2
   133     3     2    1
   134     7     5    1
   135    33    34    2
   136    33    32    1
   137     5     2    1
   138     5     6    1
   139     2     1    1
   140    35    37    1
   141    35    32    1
   142    35    36    1
   143    31    32    1
   144    31    24   am
   145    23    24    1
   146    23    26    1
   147    24    25    2
   148    26    27    1
   149    27    28    1
   150    29    28    1
   151    29    30    1
