@<TRIPOS>MOLECULE
tmp/4hv7A00.pdb
 153 148 0 0 0
SMALL
GASTEIGER

@<TRIPOS>ATOM
      1  N         23.3480   -5.0520  -11.1550 N.3    76  TYR76      -0.1227
      2  CA        23.7880   -5.6100   -9.8780 C.3    76  TYR76       0.1736
      3  C         23.4530   -4.6760   -8.7140 C.2    76  TYR76       0.2595
      4  O         23.6840   -3.4730   -8.7950 O.2    76  TYR76      -0.2718
      5  CB        25.3000   -5.8340   -9.9580 C.3    76  TYR76       0.0548
      6  CG        25.8960   -6.7160   -8.8920 C.ar   76  TYR76      -0.0200
      7  CD1       26.0830   -8.0710   -9.1140 C.ar   76  TYR76      -0.0009
      8  CD2       26.3030   -6.1880   -7.6770 C.ar   76  TYR76      -0.0009
      9  CE1       26.6410   -8.8850   -8.1530 C.ar   76  TYR76       0.0417
     10  CE2       26.8660   -6.9940   -6.6980 C.ar   76  TYR76       0.0417
     11  CZ        27.0300   -8.3430   -6.9440 C.ar   76  TYR76       0.1957
     12  OH        27.5910   -9.1530   -5.9840 O.3    76  TYR76      -0.2866
     13  N         22.8890   -5.2260   -7.6390 N.am   77  VAL77      -0.1980
     14  CA        22.6520   -4.4460   -6.4340 C.3    77  VAL77       0.1595
     15  C         23.9910   -4.3210   -5.7170 C.2    77  VAL77       0.2287
     16  O         24.5340   -5.3240   -5.2390 O.2    77  VAL77      -0.2864
     17  CB        21.6480   -5.1450   -5.4950 C.3    77  VAL77       0.0276
     18  CG1       21.5090   -4.3580   -4.1890 C.3    77  VAL77       0.0022
     19  CG2       20.2730   -5.2960   -6.1770 C.3    77  VAL77       0.0022
     20  N         28.5090   -3.9310   -0.6980 N.3    89  PHE89      -0.1241
     21  CA        29.1970   -5.2070   -0.8130 C.3    89  PHE89       0.1605
     22  C         30.6780   -4.9880   -1.1360 C.2    89  PHE89       0.2264
     23  O         31.0550   -3.9420   -1.6760 O.2    89  PHE89      -0.2867
     24  CB        28.5540   -6.0960   -1.8820 C.3    89  PHE89       0.0534
     25  CG        27.1460   -6.5210   -1.5600 C.ar   89  PHE89      -0.0203
     26  CD1       26.8860   -7.3810   -0.5020 C.ar   89  PHE89      -0.0042
     27  CD2       26.0810   -6.0840   -2.3460 C.ar   89  PHE89      -0.0042
     28  CE1       25.5950   -7.7880   -0.2140 C.ar   89  PHE89      -0.0003
     29  CE2       24.7810   -6.4830   -2.0630 C.ar   89  PHE89      -0.0003
     30  CZ        24.5400   -7.3330   -0.9930 C.ar   89  PHE89      -0.0000
     31  N         28.6940   -9.6970   -2.9430 N.3   117  GLY117     -0.1210
     32  CA        27.2470   -9.8140   -2.9970 C.3   117  GLY117      0.1956
     33  C         26.6850  -10.8580   -3.9480 C.2   117  GLY117      0.2612
     34  O         25.4850  -10.8680   -4.1990 O.2   117  GLY117     -0.2717
     35  N         27.5340  -11.7390   -4.4740 N.am  118  ASN118     -0.1960
     36  CA        27.0690  -12.8040   -5.3620 C.3   118  ASN118      0.1819
     37  C         26.1830  -13.8110   -4.6280 C.2   118  ASN118      0.2621
     38  O         26.3030  -13.9700   -3.4140 O.2   118  ASN118     -0.2715
     39  CB        28.2570  -13.5360   -6.0050 C.3   118  ASN118      0.1195
     40  CG        28.9150  -12.7360   -7.1240 C.2   118  ASN118      0.2630
     41  OD1       28.5590  -11.5840   -7.3830 O.2   118  ASN118     -0.2716
     42  ND2       29.8950  -13.3480   -7.7840 N.am  118  ASN118     -0.0877
     43  N         25.3200  -14.5120   -5.3620 N.am  119  TYR119     -0.1960
     44  CA        24.4040  -15.4660   -4.7410 C.3   119  TYR119      0.1771
     45  C         25.1660  -16.4780   -3.8790 C.2   119  TYR119      0.2619
     46  O         24.7590  -16.7810   -2.7630 O.2   119  TYR119     -0.2715
     47  CB        23.5930  -16.2260   -5.7920 C.3   119  TYR119      0.0574
     48  CG        22.4910  -15.4330   -6.4650 C.ar  119  TYR119     -0.0198
     49  CD1       21.6670  -14.5760   -5.7340 C.ar  119  TYR119     -0.0009
     50  CD2       22.2760  -15.5450   -7.8330 C.ar  119  TYR119     -0.0009
     51  CE1       20.6530  -13.8520   -6.3560 C.ar  119  TYR119      0.0417
     52  CE2       21.2680  -14.8290   -8.4640 C.ar  119  TYR119      0.0417
     53  CZ        20.4630  -13.9830   -7.7190 C.ar  119  TYR119      0.1957
     54  OH        19.4630  -13.2840   -8.3510 O.3   119  TYR119     -0.2866
     55  N         26.2580  -17.0160   -4.4090 N.am  120  ASP120     -0.1971
     56  CA        26.9690  -18.0670   -3.6940 C.3   120  ASP120      0.1709
     57  C         27.3260  -17.6210   -2.2780 C.2   120  ASP120      0.2293
     58  O         27.0640  -18.3390   -1.3080 O.2   120  ASP120     -0.2864
     59  CB        28.2120  -18.5150   -4.4660 C.3   120  ASP120      0.1436
     60  CG        28.8750  -19.7290   -3.8420 C.2   120  ASP120      0.3671
     61  OD1       28.3110  -20.2990   -2.8810 O.co2 120  ASP120     -0.2456
     62  OD2       29.9610  -20.1210   -4.3140 O.co2 120  ASP120     -0.2456
     63  N         18.8210  -20.2770   -2.7430 N.3   130  ARG130     -0.1245
     64  CA        17.7060  -19.6210   -3.4090 C.3   130  ARG130      0.1563
     65  C         16.5010  -20.5460   -3.4950 C.2   130  ARG130      0.2260
     66  O         15.3630  -20.1220   -3.2730 O.2   130  ARG130     -0.2867
     67  CB        18.1180  -19.1570   -4.8080 C.3   130  ARG130      0.0307
     68  CG        18.9730  -17.9130   -4.7910 C.3   130  ARG130      0.0489
     69  CD        19.5610  -17.6310   -6.1910 C.3   130  ARG130      0.2205
     70  NE        20.7090  -18.4920   -6.4630 N.pl3 130  ARG130     -0.0865
     71  CZ        21.1470  -18.7970   -7.6790 C.cat 130  ARG130      0.5346
     72  NH1       20.5260  -18.3200   -8.7550 N.pl3 130  ARG130      0.1354
     73  NH2       22.2110  -19.5810   -7.8200 N.pl3 130  ARG130      0.1354
     74  N         17.2390   -8.8530   -4.6910 N.3   168  ILE168     -0.1245
     75  CA        17.9640   -9.0220   -5.9620 C.3   168  ILE168      0.1561
     76  C         17.0860   -9.7420   -6.9760 C.2   168  ILE168      0.2260
     77  O         17.0060   -9.3360   -8.1220 O.2   168  ILE168     -0.2867
     78  CB        19.2860   -9.7870   -5.7500 C.3   168  ILE168      0.0252
     79  CG1       20.2410   -8.9640   -4.8390 C.3   168  ILE168      0.0019
     80  CG2       19.9310  -10.2010   -7.0790 C.3   168  ILE168      0.0019
     81  CD1       21.3510   -9.8000   -4.2390 C.3   168  ILE168      0.0001
     82  N         16.4260   -6.9590   -9.6430 N.3   172  SER172     -0.1202
     83  CA        17.4200   -7.1740  -10.6990 C.3   172  SER172      0.2020
     84  C         17.0790   -8.3190  -11.6510 C.2   172  SER172      0.2618
     85  O         17.1320   -8.1430  -12.8810 O.2   172  SER172     -0.2717
     86  CB        18.8100   -7.3920  -10.0880 C.3   172  SER172      0.2103
     87  OG        19.1390   -6.3040   -9.2380 O.3   172  SER172     -0.2182
     88  N         16.7310   -9.4890  -11.1180 N.am  173  GLU173     -0.1979
     89  CA        16.4450  -10.6290  -12.0050 C.3   173  GLU173      0.1602
     90  C         15.1560  -10.4070  -12.8020 C.2   173  GLU173      0.2287
     91  O         15.0640  -10.7710  -13.9830 O.2   173  GLU173     -0.2864
     92  CB        16.3840  -11.9570  -11.2440 C.3   173  GLU173      0.0415
     93  CG        17.6530  -12.3380  -10.4960 C.3   173  GLU173      0.1163
     94  CD        18.8120  -12.7390  -11.4080 C.2   173  GLU173      0.3649
     95  OE1       18.7130  -12.5550  -12.6380 O.co2 173  GLU173     -0.2457
     96  OE2       19.8300  -13.2360  -10.8800 O.co2 173  GLU173     -0.2457
     97  N         16.0180   -8.2010  -15.6350 N.3   176  ARG176     -0.1245
     98  CA        16.7670   -8.9440  -16.6690 C.3   176  ARG176      0.1563
     99  C         15.8910   -9.8730  -17.5310 C.2   176  ARG176      0.2260
    100  O         16.1450  -10.0420  -18.7360 O.2   176  ARG176     -0.2867
    101  CB        17.8870   -9.7820  -16.0400 C.3   176  ARG176      0.0307
    102  CG        19.0110   -8.9600  -15.4170 C.3   176  ARG176      0.0489
    103  CD        19.9430   -9.8750  -14.6090 C.3   176  ARG176      0.2205
    104  NE        21.0040   -9.1390  -13.9150 N.pl3 176  ARG176     -0.0865
    105  CZ        21.3140   -9.3200  -12.6330 C.cat 176  ARG176      0.5346
    106  NH1       20.6490  -10.2120  -11.9080 N.pl3 176  ARG176      0.1354
    107  NH2       22.2970   -8.6190  -12.0790 N.pl3 176  ARG176      0.1354
    108  N         18.5820  -17.5340  -13.9630 N.3   204  GLU204     -0.1231
    109  CA        19.4170  -16.6540  -13.1410 C.3   204  GLU204      0.1699
    110  C         20.8850  -17.0210  -13.3070 C.2   204  GLU204      0.2592
    111  O         21.7330  -16.1590  -13.5650 O.2   204  GLU204     -0.2718
    112  CB        19.0260  -16.7390  -11.6570 C.3   204  GLU204      0.0402
    113  CG        17.6700  -16.1030  -11.3140 C.3   204  GLU204      0.1161
    114  CD        17.2580  -16.3180   -9.8750 C.2   204  GLU204      0.3649
    115  OE1       18.0050  -16.9970   -9.1350 O.co2 204  GLU204     -0.2457
    116  OE2       16.1850  -15.8020   -9.4790 O.co2 204  GLU204     -0.2457
    117  N         21.1760  -18.3100  -13.1690 N.am  205  ASN205     -0.1974
    118  CA        22.5490  -18.7930  -13.2820 C.3   205  ASN205      0.1688
    119  C         23.1650  -18.6250  -14.6700 C.2   205  ASN205      0.2292
    120  O         24.3840  -18.5450  -14.7960 O.2   205  ASN205     -0.2864
    121  CB        22.6370  -20.2590  -12.8700 C.3   205  ASN205      0.1181
    122  CG        22.3140  -20.4680  -11.4000 C.2   205  ASN205      0.2629
    123  OD1       22.4740  -19.5630  -10.5790 O.2   205  ASN205     -0.2716
    124  ND2       21.8760  -21.6670  -11.0630 N.am  205  ASN205     -0.0877
    125  N         22.4230  -16.1800  -17.0450 N.3   207  TRP207     -0.1227
    126  CA        22.3000  -14.8520  -17.6610 C.3   207  TRP207      0.1737
    127  C         23.5700  -14.4340  -18.4010 C.2   207  TRP207      0.2596
    128  O         23.5070  -13.9940  -19.5390 O.2   207  TRP207     -0.2718
    129  CB        21.9310  -13.7810  -16.6220 C.3   207  TRP207      0.0564
    130  CG        21.6600  -12.4080  -17.2240 C.ar  207  TRP207      0.0003
    131  CD1       20.7270  -12.1010  -18.1710 C.ar  207  TRP207      0.0946
    132  CD2       22.2910  -11.1650  -16.8610 C.ar  207  TRP207      0.0152
    133  NE1       20.7530  -10.7480  -18.4380 N.ar  207  TRP207     -0.2442
    134  CE2       21.7020  -10.1570  -17.6550 C.ar  207  TRP207      0.0810
    135  CE3       23.3000  -10.8170  -15.9590 C.ar  207  TRP207      0.0012
    136  CZ2       22.0880   -8.8130  -17.5600 C.ar  207  TRP207      0.0191
    137  CZ3       23.6920   -9.4780  -15.8760 C.ar  207  TRP207      0.0001
    138  CH2       23.0850   -8.4940  -16.6740 C.ar  207  TRP207      0.0015
    139  N         24.7230  -14.5590  -17.7510 N.am  208  GLY208     -0.1957
    140  CA        25.9810  -14.1830  -18.3880 C.3   208  GLY208      0.1869
    141  C         26.2680  -14.9970  -19.6430 C.2   208  GLY208      0.2309
    142  O         26.6530  -14.4430  -20.6930 O.2   208  GLY208     -0.2863
    143  N         28.8730   -7.7030  -23.7760 N.3   254  ARG254     -0.1245
    144  CA        30.0560   -8.5660  -23.9030 C.3   254  ARG254      0.1563
    145  C         30.9770   -8.1570  -25.0430 C.2   254  ARG254      0.2260
    146  O         32.1810   -7.9750  -24.8420 O.2   254  ARG254     -0.2867
    147  CB        29.6460  -10.0160  -24.1360 C.3   254  ARG254      0.0307
    148  CG        28.8420  -10.6050  -23.0530 C.3   254  ARG254      0.0489
    149  CD        29.5750  -10.4950  -21.7690 C.3   254  ARG254      0.2205
    150  NE        29.2940  -11.6490  -20.9450 N.pl3 254  ARG254     -0.0865
    151  CZ        29.3490  -11.6570  -19.6280 C.cat 254  ARG254      0.5346
    152  NH1       29.6820  -10.5540  -18.9720 N.pl3 254  ARG254      0.1354
    153  NH2       29.0730  -12.7770  -18.9830 N.pl3 254  ARG254      0.1354
@<TRIPOS>BOND
     1   145   146    2
     2   145   144    1
     3   147   144    1
     4   147   148    1
     5   144   143    1
     6   148   149    1
     7   149   150    1
     8   150   151    2
     9   142   141    2
    10   141   140    1
    11   151   153    1
    12   151   152    1
    13   128   127    2
    14   100    99    2
    15   133   131   ar
    16   133   134   ar
    17   127   139   am
    18   127   126    1
    19   140   139    1
    20   131   130   ar
    21   126   125    1
    22   126   129    1
    23   134   136   ar
    24   134   132   ar
    25   136   138   ar
    26    99    98    1
    27   130   132   ar
    28   130   129    1
    29   132   135   ar
    30   138   137   ar
    31    98   101    1
    32    98    97    1
    33   101   102    1
    34   135   137   ar
    35   102   103    1
    36   120   119    2
    37   119   118    1
    38   103   104    1
    39    91    90    2
    40   108   109    1
    41   104   105    2
    42   111   110    2
    43   110   117   am
    44   110   109    1
    45   118   117    1
    46   118   121    1
    47   109   112    1
    48    85    84    2
    49   121   122    1
    50    90    89    1
    51    95    94   ar
    52   105   107    1
    53   105   106    1
    54    89    92    1
    55    89    88    1
    56   112   113    1
    57    84    88   am
    58    84    83    1
    59    94    96   ar
    60    94    93    1
    61   122   124   am
    62   122   123    2
    63   113   114    1
    64    92    93    1
    65     1     2    1
    66    83    86    1
    67    83    82    1
    68    86    87    1
    69     5     2    1
    70     5     6    1
    71     2     3    1
    72   114   116   ar
    73   114   115   ar
    74     7     6   ar
    75     7     9   ar
    76     6     8   ar
    77     4     3    2
    78    72    71    1
    79     3    13   am
    80    52    50   ar
    81    52    53   ar
    82    54    53    1
    83     9    11   ar
    84    77    76    2
    85    50    48   ar
    86    73    71    1
    87    42    40   am
    88    53    51   ar
    89    71    70    2
    90     8    10   ar
    91    13    14    1
    92    41    40    2
    93    40    39    1
    94    80    78    1
    95    76    75    1
    96    11    10   ar
    97    11    12    1
    98    48    47    1
    99    48    49   ar
   100    70    69    1
   101    14    15    1
   102    14    17    1
   103    51    49   ar
   104    69    68    1
   105    19    17    1
   106    39    36    1
   107    75    78    1
   108    75    74    1
   109    47    44    1
   110    78    79    1
   111    15    16    2
   112    17    18    1
   113    43    44    1
   114    43    37   am
   115    36    37    1
   116    36    35    1
   117    79    81    1
   118    67    68    1
   119    67    64    1
   120    44    45    1
   121    37    38    2
   122    35    33   am
   123    59    60    1
   124    59    56    1
   125    55    45   am
   126    55    56    1
   127    62    60   ar
   128    34    33    2
   129    33    32    1
   130    45    46    2
   131    60    61   ar
   132    56    57    1
   133    65    64    1
   134    65    66    2
   135    64    63    1
   136    32    31    1
   137    27    29   ar
   138    27    25   ar
   139    57    58    2
   140    29    30   ar
   141    24    25    1
   142    24    21    1
   143    23    22    2
   144    25    26   ar
   145    22    21    1
   146    30    28   ar
   147    21    20    1
   148    26    28   ar
