@<TRIPOS>MOLECULE
tmp/4hvaB01.pdb
 152 147 0 0 0
SMALL
GASTEIGER

@<TRIPOS>ATOM
      1  N         -1.7400   -5.7020   50.8820 N.3    31  THR31      -0.1203
      2  CA        -0.3450   -5.2490   51.0640 C.3    31  THR31       0.1994
      3  C          0.3520   -4.7300   49.7870 C.2    31  THR31       0.2618
      4  O          1.4960   -5.0850   49.5010 O.2    31  THR31      -0.2717
      5  CB         0.5450   -6.3020   51.8200 C.3    31  THR31       0.1784
      6  OG1        0.6210   -7.5220   51.0810 O.3    31  THR31      -0.2211
      7  CG2       -0.0710   -6.6090   53.1270 C.3    31  THR31       0.0376
      8  N         -0.3450   -3.8600   49.0540 N.am   32  LEU32      -0.1966
      9  CA         0.1720   -3.2600   47.8090 C.3    32  LEU32       0.1713
     10  C          0.4280   -1.7980   48.0980 C.2    32  LEU32       0.2458
     11  O         -0.3480   -1.1860   48.8150 O.2    32  LEU32      -0.2730
     12  CB        -0.8510   -3.3650   46.7010 C.3    32  LEU32       0.0310
     13  CG        -1.1640   -4.7720   46.2200 C.3    32  LEU32       0.0022
     14  CD1       -2.3430   -4.7520   45.2500 C.3    32  LEU32       0.0001
     15  CD2        0.1020   -5.4000   45.5760 C.3    32  LEU32       0.0001
     16  N          1.5290   -1.2380   47.5670 N.am   33  PRO33      -0.2727
     17  CA         1.8600    0.1620   47.8720 C.3    33  PRO33       0.1402
     18  C          1.0390    1.1450   47.0430 C.2    33  PRO33       0.2269
     19  O          0.5040    0.8130   45.9910 O.2    33  PRO33      -0.2865
     20  CB         3.3420    0.2670   47.4690 C.3    33  PRO33       0.0296
     21  CG         3.4850   -0.7580   46.3980 C.3    33  PRO33       0.0237
     22  CD         2.6240   -1.9180   46.8620 C.3    33  PRO33       0.0939
     23  N          1.6130    6.4830   43.6130 N.3    36  ARG36      -0.1245
     24  CA         1.8500    7.9090   43.4160 C.3    36  ARG36       0.1563
     25  C          2.3490    8.1150   42.0030 C.2    36  ARG36       0.2260
     26  O          3.1880    7.3360   41.5180 O.2    36  ARG36      -0.2867
     27  CB         2.8960    8.4320   44.4030 C.3    36  ARG36       0.0307
     28  CG         2.4070    8.5760   45.7980 C.3    36  ARG36       0.0489
     29  CD         3.5230    9.1060   46.6960 C.3    36  ARG36       0.2205
     30  NE         4.7030    8.2320   46.6920 N.pl3  36  ARG36      -0.0865
     31  CZ         5.8700    8.5510   47.2690 C.cat  36  ARG36       0.5346
     32  NH1        5.9980    9.7230   47.8960 N.pl3  36  ARG36       0.1354
     33  NH2        6.9060    7.7030   47.2450 N.pl3  36  ARG36       0.1354
     34  N         -1.6530   -2.0130   39.7840 N.3    92  HIS92      -0.1226
     35  CA        -0.6370   -3.0540   39.9940 C.3    92  HIS92       0.1752
     36  C         -1.0750   -4.2970   39.2710 C.2    92  HIS92       0.2597
     37  O         -2.2530   -4.4520   38.9380 O.2    92  HIS92      -0.2718
     38  CB        -0.4480   -3.4190   41.4690 C.3    92  HIS92       0.0759
     39  CG         0.3040   -2.3960   42.2460 C.ar   92  HIS92       0.0818
     40  ND1        1.6100   -2.0530   41.9450 N.ar   92  HIS92      -0.2268
     41  CD2       -0.0570   -1.6410   43.3150 C.ar   92  HIS92       0.1154
     42  CE1        2.0180   -1.1240   42.8000 C.ar   92  HIS92       0.1986
     43  NE2        1.0300   -0.8610   43.6420 N.ar   92  HIS92      -0.2212
     44  N         -0.1240   -5.1940   39.0100 N.am   93  GLY93      -0.1942
     45  CA        -0.4770   -6.3870   38.2950 C.3    93  GLY93       0.2014
     46  C          0.6190   -7.4230   38.3100 C.2    93  GLY93       0.2638
     47  O          1.7580   -7.1820   38.7640 O.2    93  GLY93      -0.2714
     48  N          0.2420   -8.6050   37.8230 N.am   94  GLU94      -0.1977
     49  CA         1.1440   -9.7500   37.7440 C.3    94  GLU94       0.1602
     50  C          0.4980  -10.7590   36.8550 C.2    94  GLU94       0.2287
     51  O         -0.7290  -10.7010   36.6340 O.2    94  GLU94      -0.2864
     52  CB         1.3830  -10.4000   39.0970 C.3    94  GLU94       0.0415
     53  CG         2.6180  -11.2540   39.0830 C.3    94  GLU94       0.1163
     54  CD         3.1500  -11.4990   40.4600 C.2    94  GLU94       0.3649
     55  OE1        2.4700  -11.0870   41.4390 O.co2  94  GLU94      -0.2457
     56  OE2        4.2500  -12.0970   40.5530 O.co2  94  GLU94      -0.2457
     57  N         -5.0140   -5.4730   39.4800 N.3    99  TYR99      -0.1241
     58  CA        -5.7880   -5.3110   40.7090 C.3    99  TYR99       0.1605
     59  C         -6.8480   -4.2050   40.6620 C.2    99  TYR99       0.2264
     60  O         -6.5950   -3.0760   40.2160 O.2    99  TYR99      -0.2867
     61  CB        -4.8650   -5.0650   41.8960 C.3    99  TYR99       0.0534
     62  CG        -4.1680   -6.3180   42.3350 C.ar   99  TYR99      -0.0201
     63  CD1       -4.6560   -7.0560   43.3820 C.ar   99  TYR99      -0.0009
     64  CD2       -3.0330   -6.7830   41.6550 C.ar   99  TYR99      -0.0009
     65  CE1       -4.0250   -8.2240   43.7710 C.ar   99  TYR99       0.0417
     66  CE2       -2.3840   -7.9590   42.0330 C.ar   99  TYR99       0.0417
     67  CZ        -2.8930   -8.6800   43.0910 C.ar   99  TYR99       0.1957
     68  OH        -2.2910   -9.8550   43.5010 O.3    99  TYR99      -0.2866
     69  N          2.5690   -4.1640   36.1640 N.3   134  CYS134     -0.1235
     70  CA         3.5910   -5.1990   36.0530 C.3   134  CYS134      0.1677
     71  C          3.0060   -6.4900   35.4530 C.2   134  CYS134      0.2270
     72  O          1.8490   -6.7470   35.5860 O.2   134  CYS134     -0.2867
     73  CB         4.2720   -5.5030   37.3840 C.3   134  CYS134      0.0956
     74  SG         5.0100   -4.1610   38.1370 S.3   134  CYS134     -0.0801
     75  N         13.2790   -8.1090   36.0230 N.3   139  HIS139     -0.1241
     76  CA        13.6200   -6.6990   35.8290 C.3   139  HIS139      0.1621
     77  C         14.5560   -6.6810   34.6320 C.2   139  HIS139      0.2264
     78  O         15.6880   -7.2090   34.6960 O.2   139  HIS139     -0.2867
     79  CB        14.2830   -6.1040   37.0980 C.3   139  HIS139      0.0745
     80  CG        14.1000   -4.6190   37.2270 C.ar  139  HIS139      0.0817
     81  ND1       14.5000   -3.9120   38.3470 N.ar  139  HIS139     -0.2268
     82  CD2       13.5290   -3.7100   36.3910 C.ar  139  HIS139      0.1154
     83  CE1       14.2030   -2.6280   38.1840 C.ar  139  HIS139      0.1986
     84  NE2       13.6090   -2.4780   37.0030 N.ar  139  HIS139     -0.2212
     85  N          8.7550   -6.3010   35.1580 N.3   167  TYR167     -0.1241
     86  CA         8.4060   -5.0710   35.8950 C.3   167  TYR167      0.1605
     87  C          8.1120   -3.9270   34.9450 C.2   167  TYR167      0.2264
     88  O          8.7950   -3.7860   33.9060 O.2   167  TYR167     -0.2867
     89  CB         9.5930   -4.5700   36.7230 C.3   167  TYR167      0.0534
     90  CG         9.9240   -5.3400   37.9590 C.ar  167  TYR167     -0.0201
     91  CD1        9.0420   -6.2790   38.4960 C.ar  167  TYR167     -0.0009
     92  CD2       11.1210   -5.0930   38.6220 C.ar  167  TYR167     -0.0009
     93  CE1        9.3770   -6.9700   39.6580 C.ar  167  TYR167      0.0417
     94  CE2       11.4740   -5.7670   39.7630 C.ar  167  TYR167      0.0417
     95  CZ        10.6080   -6.7190   40.2700 C.ar  167  TYR167      0.1957
     96  OH        10.9460   -7.3830   41.4120 O.3   167  TYR167     -0.2866
     97  N          7.6320    0.3660   35.1120 N.3   169  HIS169     -0.1226
     98  CA         8.0830    1.4780   35.9730 C.3   169  HIS169      0.1752
     99  C          7.1860    2.7390   36.0140 C.2   169  HIS169      0.2595
    100  O          6.5360    3.1080   35.0380 O.2   169  HIS169     -0.2718
    101  CB         9.4480    1.9290   35.5260 C.3   169  HIS169      0.0759
    102  CG        10.4550    0.8290   35.4620 C.ar  169  HIS169      0.0818
    103  ND1       10.6890    0.0880   34.3200 N.ar  169  HIS169     -0.2268
    104  CD2       11.3280    0.3760   36.3920 C.ar  169  HIS169      0.1154
    105  CE1       11.6610   -0.7770   34.5560 C.ar  169  HIS169      0.1986
    106  NE2       12.0590   -0.6260   35.8130 N.ar  169  HIS169     -0.2212
    107  N          7.1900    3.4090   37.1680 N.am  170  ARG170     -0.1980
    108  CA         6.3870    4.6050   37.3970 C.3   170  ARG170      0.1597
    109  C          7.1850    5.6490   38.1740 C.2   170  ARG170      0.2287
    110  O          7.8230    5.3380   39.1760 O.2   170  ARG170     -0.2864
    111  CB         5.1250    4.2050   38.1930 C.3   170  ARG170      0.0334
    112  CG         4.2760    5.4160   38.7490 C.3   170  ARG170      0.0492
    113  CD         2.9280    4.8890   39.3650 C.3   170  ARG170      0.2205
    114  NE         3.1360    3.6100   40.0740 N.pl3 170  ARG170     -0.0865
    115  CZ         3.7360    3.4920   41.2650 C.cat 170  ARG170      0.5346
    116  NH1        4.2020    4.5650   41.9120 N.pl3 170  ARG170      0.1354
    117  NH2        3.9010    2.2970   41.8040 N.pl3 170  ARG170      0.1354
    118  N         16.4900    3.2850   34.8530 N.3   211  VAL211     -0.1245
    119  CA        16.2950    3.6700   36.2300 C.3   211  VAL211      0.1561
    120  C         17.5850    4.3960   36.6270 C.2   211  VAL211      0.2260
    121  O         18.6830    3.8080   36.5620 O.2   211  VAL211     -0.2867
    122  CB        16.1080    2.4510   37.1380 C.3   211  VAL211      0.0252
    123  CG1       15.9790    2.9210   38.5490 C.3   211  VAL211      0.0019
    124  CG2       14.8930    1.5680   36.7040 C.3   211  VAL211      0.0019
    125  N         16.6740    5.3110   42.6680 N.3   214  CYS214     -0.1221
    126  CA        15.8130    4.2440   43.1490 C.3   214  CYS214      0.1808
    127  C         16.1880    3.8720   44.5740 C.2   214  CYS214      0.2601
    128  O         17.3780    3.8360   44.9580 O.2   214  CYS214     -0.2717
    129  CB        15.9680    3.0270   42.2540 C.3   214  CYS214      0.0970
    130  SG        14.7640    1.7080   42.5660 S.3   214  CYS214     -0.0800
    131  N         15.1720    3.5800   45.3600 N.am  215  LYS215     -0.1965
    132  CA        15.3760    3.1900   46.7580 C.3   215  LYS215      0.1728
    133  C         16.2410    1.9250   46.8160 C.2   215  LYS215      0.2616
    134  O         17.0690    1.7490   47.7240 O.2   215  LYS215     -0.2715
    135  CB        14.0150    2.9430   47.4240 C.3   215  LYS215      0.0311
    136  CG        13.9740    3.2130   48.9160 C.3   215  LYS215      0.0038
    137  CD        12.5320    3.5350   49.3380 C.3   215  LYS215      0.0206
    138  CE        11.9860    4.7300   48.5540 C.3   215  LYS215      0.1093
    139  NZ        10.6020    5.1230   48.9370 N.3   215  LYS215     -0.1314
    140  N         16.0220    1.0680   45.8290 N.am  216  ASP216     -0.1971
    141  CA        16.7150   -0.2210   45.6470 C.3   216  ASP216      0.1709
    142  C         17.9120   -0.0560   44.6860 C.2   216  ASP216      0.2293
    143  O         17.7300    0.0250   43.4540 O.2   216  ASP216     -0.2864
    144  CB        15.7230   -1.2390   45.0600 C.3   216  ASP216      0.1436
    145  CG        16.3460   -2.6130   44.8120 C.2   216  ASP216      0.3671
    146  OD1       17.5630   -2.7750   45.0190 O.co2 216  ASP216     -0.2456
    147  OD2       15.6120   -3.5480   44.4060 O.co2 216  ASP216     -0.2456
    148  N         18.3640   -1.8350   41.3220 N.3   219  ALA219     -0.1245
    149  CA        17.5040   -1.4980   40.1870 C.3   219  ALA219      0.1562
    150  C         18.1520   -0.4790   39.2010 C.2   219  ALA219      0.2260
    151  O         17.6960   -0.3630   38.0480 O.2   219  ALA219     -0.2867
    152  CB        16.1350   -1.0420   40.6470 C.3   219  ALA219      0.0290
@<TRIPOS>BOND
     1    88    87    2
     2   103   105   ar
     3   103   102   ar
     4   105   106   ar
     5    77    78    2
     6    77    76    1
     7   118   119    1
     8    87    86    1
     9   100    99    2
    10    97    98    1
    11    85    86    1
    12    71    72    2
    13    71    70    1
    14   102   101    1
    15   102   104   ar
    16   101    98    1
    17   106   104   ar
    18    76    75    1
    19    76    79    1
    20    86    89    1
    21    98    99    1
    22    99   107   am
    23    70    69    1
    24    70    73    1
    25   119   120    1
    26   119   122    1
    27    82    84   ar
    28    82    80   ar
    29   121   120    2
    30    51    50    2
    31   124   122    1
    32    89    90    1
    33    50    49    1
    34    84    83   ar
    35    79    80    1
    36   122   123    1
    37   107   108    1
    38    80    81   ar
    39    73    74    1
    40   108   109    1
    41   108   111    1
    42    49    48    1
    43    49    52    1
    44    48    46   am
    45    90    91   ar
    46    90    92   ar
    47   151   150    2
    48   109   110    2
    49    83    81   ar
    50   111   112    1
    51    45    46    1
    52    45    44    1
    53    46    47    2
    54    91    93   ar
    55    92    94   ar
    56   112   113    1
    57    37    36    2
    58    44    36   am
    59    53    52    1
    60    53    54    1
    61   150   149    1
    62    36    35    1
    63   113   114    1
    64    57    58    1
    65    93    95   ar
    66    94    95   ar
    67    34    35    1
    68    35    38    1
    69   114   115    2
    70   149   152    1
    71   149   148    1
    72    60    59    2
    73    95    96    1
    74    54    56   ar
    75    54    55   ar
    76    59    58    1
    77    58    61    1
    78   115   117    1
    79   115   116    1
    80    38    39    1
    81    26    25    2
    82    64    66   ar
    83    64    62   ar
    84    61    62    1
    85    40    39   ar
    86    40    42   ar
    87    25    24    1
    88    66    67   ar
    89    39    41   ar
    90   129   130    1
    91   129   126    1
    92    62    63   ar
    93   125   126    1
    94    42    43   ar
    95    67    68    1
    96    67    65   ar
    97   126   127    1
    98    41    43   ar
    99    63    65   ar
   100    24    23    1
   101    24    27    1
   102   143   142    2
   103    27    28    1
   104   147   145   ar
   105   127   128    2
   106   127   131   am
   107   142   141    1
   108   145   146   ar
   109   145   144    1
   110   144   141    1
   111    14    13    1
   112   131   132    1
   113    15    13    1
   114   141   140    1
   115    28    29    1
   116   140   133   am
   117    19    18    2
   118    13    12    1
   119    21    22    1
   120    21    20    1
   121    30    29    1
   122    30    31    2
   123    12     9    1
   124   132   133    1
   125   132   135    1
   126   133   134    2
   127    22    16    1
   128    18    17    1
   129    33    31    1
   130    31    32    1
   131   135   136    1
   132    20    17    1
   133    16    17    1
   134    16    10   am
   135     9    10    1
   136     9     8    1
   137    10    11    2
   138   138   139    1
   139   138   137    1
   140   136   137    1
   141     8     3   am
   142     4     3    2
   143     3     2    1
   144     1     2    1
   145     2     5    1
   146     6     5    1
   147     5     7    1
