@<TRIPOS>MOLECULE
tmp/4hvaB00.pdb
 209 210 0 0 0
SMALL
GASTEIGER

@<TRIPOS>ATOM
      1  N          1.5290   -1.2380   47.5670 N.3    33  PRO33      -0.2102
      2  CA         1.8600    0.1620   47.8720 C.3    33  PRO33       0.1504
      3  C          1.0390    1.1450   47.0430 C.2    33  PRO33       0.2576
      4  O          0.5040    0.8130   45.9910 O.2    33  PRO33      -0.2718
      5  CB         3.3420    0.2670   47.4690 C.3    33  PRO33       0.0282
      6  CG         3.4850   -0.7580   46.3980 C.3    33  PRO33       0.0208
      7  CD         2.6240   -1.9180   46.8620 C.3    33  PRO33       0.0893
      8  N          0.9580    2.3760   47.5130 N.am   34  GLU34      -0.1966
      9  CA         0.2050    3.4040   46.7990 C.3    34  GLU34       0.1733
     10  C          0.8610    3.7080   45.4650 C.2    34  GLU34       0.2616
     11  O          2.0880    3.6070   45.3300 O.2    34  GLU34      -0.2715
     12  CB         0.0980    4.6670   47.6590 C.3    34  GLU34       0.0429
     13  CG        -0.7730    5.7140   46.9950 C.3    34  GLU34       0.1163
     14  CD        -1.1190    6.8320   47.9640 C.2    34  GLU34       0.3649
     15  OE1       -0.7320    6.7050   49.1470 O.co2  34  GLU34      -0.2457
     16  OE2       -1.7700    7.8180   47.5430 O.co2  34  GLU34      -0.2457
     17  N          0.0620    4.0220   44.4400 N.am   35  ARG35      -0.1963
     18  CA         0.6560    4.2800   43.1290 C.3    35  ARG35       0.1729
     19  C          0.7750    5.7910   42.8320 C.2    35  ARG35       0.2616
     20  O          0.1170    6.3190   41.9300 O.2    35  ARG35      -0.2715
     21  CB        -0.1180    3.5310   42.0550 C.3    35  ARG35       0.0348
     22  CG        -0.1580    2.0240   42.3030 C.3    35  ARG35       0.0492
     23  CD        -0.8370    1.2810   41.1610 C.3    35  ARG35       0.2205
     24  NE        -0.2010    1.6020   39.8920 N.pl3  35  ARG35      -0.0865
     25  CZ        -0.6790    2.4450   38.9680 C.cat  35  ARG35       0.5346
     26  NH1       -1.8960    3.0570   39.0840 N.pl3  35  ARG35       0.1354
     27  NH2        0.0560    2.6470   37.8920 N.pl3  35  ARG35       0.1354
     28  N          1.6130    6.4830   43.6130 N.am   36  ARG36      -0.1977
     29  CA         1.8500    7.9090   43.4160 C.3    36  ARG36       0.1597
     30  C          2.3490    8.1150   42.0030 C.2    36  ARG36       0.2287
     31  O          3.1880    7.3360   41.5180 O.2    36  ARG36      -0.2864
     32  CB         2.8960    8.4320   44.4030 C.3    36  ARG36       0.0334
     33  CG         2.4070    8.5760   45.7980 C.3    36  ARG36       0.0492
     34  CD         3.5230    9.1060   46.6960 C.3    36  ARG36       0.2205
     35  NE         4.7030    8.2320   46.6920 N.pl3  36  ARG36      -0.0865
     36  CZ         5.8700    8.5510   47.2690 C.cat  36  ARG36       0.5346
     37  NH1        5.9980    9.7230   47.8960 N.pl3  36  ARG36       0.1354
     38  NH2        6.9060    7.7030   47.2450 N.pl3  36  ARG36       0.1354
     39  N         -2.9270    0.1490   37.1360 N.3    91  SER91      -0.1202
     40  CA        -2.9370   -0.4490   38.4630 C.3    91  SER91       0.2020
     41  C         -1.6620   -1.2580   38.6840 C.2    91  SER91       0.2619
     42  O         -0.6970   -1.1990   37.8600 O.2    91  SER91      -0.2717
     43  CB        -4.1870   -1.3510   38.5970 C.3    91  SER91       0.2103
     44  OG        -4.3690   -1.8210   39.9210 O.3    91  SER91      -0.2182
     45  N         -1.6530   -2.0130   39.7840 N.am   92  HIS92      -0.1961
     46  CA        -0.6370   -3.0540   39.9940 C.3    92  HIS92       0.1787
     47  C         -1.0750   -4.2970   39.2710 C.2    92  HIS92       0.2620
     48  O         -2.2530   -4.4520   38.9380 O.2    92  HIS92      -0.2715
     49  CB        -0.4480   -3.4190   41.4690 C.3    92  HIS92       0.0785
     50  CG         0.3040   -2.3960   42.2460 C.ar   92  HIS92       0.0821
     51  ND1        1.6100   -2.0530   41.9450 N.ar   92  HIS92      -0.2267
     52  CD2       -0.0570   -1.6410   43.3150 C.ar   92  HIS92       0.1154
     53  CE1        2.0180   -1.1240   42.8000 C.ar   92  HIS92       0.1986
     54  NE2        1.0300   -0.8610   43.6420 N.ar   92  HIS92      -0.2212
     55  N         -0.1240   -5.1940   39.0100 N.am   93  GLY93      -0.1954
     56  CA        -0.4770   -6.3870   38.2950 C.3    93  GLY93       0.1869
     57  C          0.6190   -7.4230   38.3100 C.2    93  GLY93       0.2309
     58  O          1.7580   -7.1820   38.7640 O.2    93  GLY93      -0.2863
     59  N         -1.3080   -0.3400   31.9740 N.3   132  GLN132     -0.1231
     60  CA        -0.0870    0.0200   32.7550 C.3   132  GLN132      0.1698
     61  C         -0.1380   -0.7770   34.0630 C.2   132  GLN132      0.2592
     62  O         -0.9910   -0.5210   34.9310 O.2   132  GLN132     -0.2718
     63  CB        -0.1020    1.5260   33.0650 C.3   132  GLN132      0.0381
     64  CG         0.9300    1.9860   34.1260 C.3   132  GLN132      0.0905
     65  CD         2.3570    1.5860   33.7560 C.2   132  GLN132      0.2608
     66  OE1        2.8140    1.7900   32.6140 O.2   132  GLN132     -0.2717
     67  NE2        3.0640    0.9820   34.7150 N.am  132  GLN132     -0.0878
     68  N          0.7060   -1.8010   34.1510 N.am  133  ALA133     -0.1966
     69  CA         0.7770   -2.7250   35.3090 C.3   133  ALA133      0.1728
     70  C          2.0160   -3.5970   35.1000 C.2   133  ALA133      0.2616
     71  O          2.4730   -3.7540   33.9520 O.2   133  ALA133     -0.2715
     72  CB        -0.4790   -3.6310   35.4020 C.3   133  ALA133      0.0334
     73  N          2.5690   -4.1640   36.1640 N.am  134  CYS134     -0.1968
     74  CA         3.5910   -5.1990   36.0530 C.3   134  CYS134      0.1712
     75  C          3.0060   -6.4900   35.4530 C.2   134  CYS134      0.2296
     76  O          1.8490   -6.7470   35.5860 O.2   134  CYS134     -0.2864
     77  CB         4.2720   -5.5030   37.3840 C.3   134  CYS134      0.0983
     78  SG         5.0100   -4.1610   38.1370 S.3   134  CYS134     -0.0798
     79  N         13.2790   -8.1090   36.0230 N.3   139  HIS139     -0.1241
     80  CA        13.6200   -6.6990   35.8290 C.3   139  HIS139      0.1621
     81  C         14.5560   -6.6810   34.6320 C.2   139  HIS139      0.2264
     82  O         15.6880   -7.2090   34.6960 O.2   139  HIS139     -0.2867
     83  CB        14.2830   -6.1040   37.0980 C.3   139  HIS139      0.0745
     84  CG        14.1000   -4.6190   37.2270 C.ar  139  HIS139      0.0817
     85  ND1       14.5000   -3.9120   38.3470 N.ar  139  HIS139     -0.2268
     86  CD2       13.5290   -3.7100   36.3910 C.ar  139  HIS139      0.1154
     87  CE1       14.2030   -2.6280   38.1840 C.ar  139  HIS139      0.1986
     88  NE2       13.6090   -2.4780   37.0030 N.ar  139  HIS139     -0.2212
     89  N          8.7550   -6.3010   35.1580 N.3   167  TYR167     -0.1227
     90  CA         8.4060   -5.0710   35.8950 C.3   167  TYR167      0.1736
     91  C          8.1120   -3.9270   34.9450 C.2   167  TYR167      0.2596
     92  O          8.7950   -3.7860   33.9060 O.2   167  TYR167     -0.2718
     93  CB         9.5930   -4.5700   36.7230 C.3   167  TYR167      0.0548
     94  CG         9.9240   -5.3400   37.9590 C.ar  167  TYR167     -0.0200
     95  CD1        9.0420   -6.2790   38.4960 C.ar  167  TYR167     -0.0009
     96  CD2       11.1210   -5.0930   38.6220 C.ar  167  TYR167     -0.0009
     97  CE1        9.3770   -6.9700   39.6580 C.ar  167  TYR167      0.0417
     98  CE2       11.4740   -5.7670   39.7630 C.ar  167  TYR167      0.0417
     99  CZ        10.6080   -6.7190   40.2700 C.ar  167  TYR167      0.1957
    100  OH        10.9460   -7.3830   41.4120 O.3   167  TYR167     -0.2866
    101  N          7.1230   -3.1140   35.3290 N.am  168  SER168     -0.1938
    102  CA         6.7740   -1.9100   34.6380 C.3   168  SER168      0.2055
    103  C          7.0170   -0.7180   35.5930 C.2   168  SER168      0.2643
    104  O          6.6560   -0.7930   36.7680 O.2   168  SER168     -0.2714
    105  CB         5.3030   -1.9560   34.2090 C.3   168  SER168      0.2130
    106  OG         5.0440   -0.7450   33.5420 O.3   168  SER168     -0.2179
    107  N          7.6320    0.3660   35.1120 N.am  169  HIS169     -0.1959
    108  CA         8.0830    1.4780   35.9730 C.3   169  HIS169      0.1787
    109  C          7.1860    2.7390   36.0140 C.2   169  HIS169      0.2620
    110  O          6.5360    3.1080   35.0380 O.2   169  HIS169     -0.2715
    111  CB         9.4480    1.9290   35.5260 C.3   169  HIS169      0.0785
    112  CG        10.4550    0.8290   35.4620 C.ar  169  HIS169      0.0821
    113  ND1       10.6890    0.0880   34.3200 N.ar  169  HIS169     -0.2267
    114  CD2       11.3280    0.3760   36.3920 C.ar  169  HIS169      0.1154
    115  CE1       11.6610   -0.7770   34.5560 C.ar  169  HIS169      0.1986
    116  NE2       12.0590   -0.6260   35.8130 N.ar  169  HIS169     -0.2212
    117  N          7.1900    3.4090   37.1680 N.am  170  ARG170     -0.1963
    118  CA         6.3870    4.6050   37.3970 C.3   170  ARG170      0.1729
    119  C          7.1850    5.6490   38.1740 C.2   170  ARG170      0.2616
    120  O          7.8230    5.3380   39.1760 O.2   170  ARG170     -0.2715
    121  CB         5.1250    4.2050   38.1930 C.3   170  ARG170      0.0348
    122  CG         4.2760    5.4160   38.7490 C.3   170  ARG170      0.0492
    123  CD         2.9280    4.8890   39.3650 C.3   170  ARG170      0.2205
    124  NE         3.1360    3.6100   40.0740 N.pl3 170  ARG170     -0.0865
    125  CZ         3.7360    3.4920   41.2650 C.cat 170  ARG170      0.5346
    126  NH1        4.2020    4.5650   41.9120 N.pl3 170  ARG170      0.1354
    127  NH2        3.9010    2.2970   41.8040 N.pl3 170  ARG170      0.1354
    128  N          7.1670    6.8910   37.7140 N.am  171  GLU171     -0.1963
    129  CA         7.7270    7.9900   38.5010 C.3   171  GLU171      0.1733
    130  C          6.6630    8.5690   39.4380 C.2   171  GLU171      0.2617
    131  O          5.4850    8.6320   39.0920 O.2   171  GLU171     -0.2715
    132  CB         8.3140    9.0530   37.5720 C.3   171  GLU171      0.0429
    133  CG         9.3710    8.4590   36.6110 C.3   171  GLU171      0.1163
    134  CD        10.1120    9.5280   35.8130 C.2   171  GLU171      0.3649
    135  OE1       11.3660    9.5750   35.9460 O.co2 171  GLU171     -0.2457
    136  OE2        9.4510   10.2930   35.0520 O.co2 171  GLU171     -0.2457
    137  N          7.0730    8.9790   40.6310 N.am  172  THR172     -0.1951
    138  CA         6.1060    9.3180   41.6670 C.3   172  THR172      0.1897
    139  C          5.4250   10.6660   41.3970 C.2   172  THR172      0.2313
    140  O          4.3700   10.9270   41.9520 O.2   172  THR172     -0.2863
    141  CB         6.7350    9.2920   43.0760 C.3   172  THR172      0.1794
    142  OG1        7.9020   10.1270   43.0780 O.3   172  THR172     -0.2208
    143  CG2        7.1900    7.8550   43.4490 C.3   172  THR172      0.0378
    144  N          6.4530    5.4020   33.0350 N.3   177  TRP177     -0.1241
    145  CA         7.2660    5.6180   31.8280 C.3   177  TRP177      0.1605
    146  C          6.3920    5.5440   30.5900 C.2   177  TRP177      0.2264
    147  O          6.4540    6.3980   29.6850 O.2   177  TRP177     -0.2867
    148  CB         8.3460    4.5480   31.6910 C.3   177  TRP177      0.0550
    149  CG         9.4830    4.7060   32.6730 C.ar  177  TRP177      0.0003
    150  CD1        9.5850    5.6090   33.6780 C.ar  177  TRP177      0.0946
    151  CD2       10.6590    3.8900   32.7290 C.ar  177  TRP177      0.0152
    152  NE1       10.7580    5.4140   34.3740 N.ar  177  TRP177     -0.2442
    153  CE2       11.4490    4.3710   33.7900 C.ar  177  TRP177      0.0810
    154  CE3       11.1390    2.8190   31.9360 C.ar  177  TRP177      0.0012
    155  CZ2       12.7230    3.8250   34.1030 C.ar  177  TRP177      0.0191
    156  CZ3       12.3900    2.2520   32.2550 C.ar  177  TRP177      0.0001
    157  CH2       13.1580    2.7600   33.3410 C.ar  177  TRP177      0.0015
    158  N         16.0410    4.6160   31.4950 N.3   210  ARG210     -0.1231
    159  CA        16.7120    3.7120   32.4380 C.3   210  ARG210      0.1694
    160  C         16.4250    4.1870   33.8690 C.2   210  ARG210      0.2592
    161  O         16.0940    5.3440   34.0620 O.2   210  ARG210     -0.2718
    162  CB        18.2250    3.6710   32.1750 C.3   210  ARG210      0.0321
    163  CG        18.9330    5.0060   32.5060 C.3   210  ARG210      0.0489
    164  CD        20.4330    4.9640   32.1260 C.3   210  ARG210      0.2205
    165  NE        21.2910    4.0880   32.9620 N.pl3 210  ARG210     -0.0865
    166  CZ        21.8110    4.3980   34.1670 C.cat 210  ARG210      0.5346
    167  NH1       21.5540    5.5510   34.7840 N.pl3 210  ARG210      0.1354
    168  NH2       22.5770    3.5260   34.8010 N.pl3 210  ARG210      0.1354
    169  N         16.4900    3.2850   34.8530 N.am  211  VAL211     -0.1966
    170  CA        16.2950    3.6700   36.2300 C.3   211  VAL211      0.1727
    171  C         17.5850    4.3960   36.6270 C.2   211  VAL211      0.2616
    172  O         18.6830    3.8080   36.5620 O.2   211  VAL211     -0.2715
    173  CB        16.1080    2.4510   37.1380 C.3   211  VAL211      0.0290
    174  CG1       15.9790    2.9210   38.5490 C.3   211  VAL211      0.0023
    175  CG2       14.8930    1.5680   36.7040 C.3   211  VAL211      0.0023
    176  N         17.4540    5.6770   36.9830 N.am  212  ASP212     -0.1957
    177  CA        18.5920    6.5770   37.2870 C.3   212  ASP212      0.1840
    178  C         18.7350    6.7920   38.7840 C.2   212  ASP212      0.2622
    179  O         19.7940    7.1570   39.2890 O.2   212  ASP212     -0.2715
    180  CB        18.4000    7.9420   36.5940 C.3   212  ASP212      0.1450
    181  CG        18.6500    7.8740   35.0810 C.2   212  ASP212      0.3671
    182  OD1       19.7250    7.3740   34.6570 O.co2 212  ASP212     -0.2456
    183  OD2       17.7550    8.3060   34.3040 O.co2 212  ASP212     -0.2456
    184  N         17.6350    6.6160   39.4920 N.am  213  PHE213     -0.1960
    185  CA        17.6030    6.7300   40.9560 C.3   213  PHE213      0.1771
    186  C         16.5020    5.8210   41.4610 C.2   213  PHE213      0.2620
    187  O         15.5140    5.5770   40.7700 O.2   213  PHE213     -0.2715
    188  CB        17.3130    8.1640   41.4460 C.3   213  PHE213      0.0574
    189  CG        17.0440    9.1520   40.3440 C.ar  213  PHE213     -0.0200
    190  CD1       15.7840    9.2040   39.7150 C.ar  213  PHE213     -0.0042
    191  CD2       18.0440   10.0450   39.9480 C.ar  213  PHE213     -0.0042
    192  CE1       15.5310   10.1130   38.6880 C.ar  213  PHE213     -0.0003
    193  CE2       17.8100   10.9610   38.9330 C.ar  213  PHE213     -0.0003
    194  CZ        16.5500   10.9990   38.2970 C.ar  213  PHE213     -0.0000
    195  N         16.6740    5.3110   42.6680 N.am  214  CYS214     -0.1954
    196  CA        15.8130    4.2440   43.1490 C.3   214  CYS214      0.1843
    197  C         16.1880    3.8720   44.5740 C.2   214  CYS214      0.2625
    198  O         17.3780    3.8360   44.9580 O.2   214  CYS214     -0.2714
    199  CB        15.9680    3.0270   42.2540 C.3   214  CYS214      0.0997
    200  SG        14.7640    1.7080   42.5660 S.3   214  CYS214     -0.0797
    201  N         15.1720    3.5800   45.3600 N.am  215  LYS215     -0.1977
    202  CA        15.3760    3.1900   46.7580 C.3   215  LYS215      0.1596
    203  C         16.2410    1.9250   46.8160 C.2   215  LYS215      0.2287
    204  O         17.0690    1.7490   47.7240 O.2   215  LYS215     -0.2864
    205  CB        14.0150    2.9430   47.4240 C.3   215  LYS215      0.0298
    206  CG        13.9740    3.2130   48.9160 C.3   215  LYS215      0.0038
    207  CD        12.5320    3.5350   49.3380 C.3   215  LYS215      0.0206
    208  CE        11.9860    4.7300   48.5540 C.3   215  LYS215      0.1093
    209  NZ        10.6020    5.1230   48.9370 N.3   215  LYS215     -0.1314
@<TRIPOS>BOND
     1   147   146    2
     2   146   145    1
     3   158   159    1
     4   148   145    1
     5   148   149    1
     6   145   144    1
     7   154   156   ar
     8   154   151   ar
     9    59    60    1
    10   164   163    1
    11   164   165    1
    12   162   159    1
    13   162   163    1
    14   156   157   ar
    15   159   160    1
    16    66    65    2
    17   149   151   ar
    18   149   150   ar
    19   151   153   ar
    20    60    63    1
    21    60    61    1
    22   165   166    2
    23    63    64    1
    24   157   155   ar
    25   106   105    1
    26   150   152   ar
    27    65    64    1
    28    65    67   am
    29   153   155   ar
    30   153   152   ar
    31   160   161    2
    32   160   169   am
    33    92    91    2
    34    71    70    2
    35    61    68   am
    36    61    62    2
    37    68    69    1
    38   166   167    1
    39   166   168    1
    40   105   102    1
    41   183   181   ar
    42   113   115   ar
    43   113   112   ar
    44   115   116   ar
    45    81    82    2
    46    81    80    1
    47   102   101    1
    48   102   103    1
    49   182   181   ar
    50   169   170    1
    51    91   101   am
    52    91    90    1
    53   110   109    2
    54   136   134   ar
    55   181   180    1
    56    70    69    1
    57    70    73   am
    58   107   103   am
    59   107   108    1
    60    89    90    1
    61    69    72    1
    62    75    76    2
    63    75    74    1
    64   112   111    1
    65   112   114   ar
    66   111   108    1
    67   103   104    2
    68   116   114   ar
    69   134   135   ar
    70   134   133    1
    71    80    79    1
    72    80    83    1
    73    90    93    1
    74   108   109    1
    75   109   117   am
    76    74    73    1
    77    74    77    1
    78   170   171    1
    79   170   173    1
    80    86    88   ar
    81    86    84   ar
    82   172   171    2
    83   180   177    1
    84   133   132    1
    85   171   176   am
    86   175   173    1
    87    93    94    1
    88   176   177    1
    89    88    87   ar
    90    83    84    1
    91    39    40    1
    92   173   174    1
    93   117   118    1
    94    84    85   ar
    95   177   178    1
    96    77    78    1
    97   118   119    1
    98   118   121    1
    99   132   129    1
   100   128   119   am
   101   128   129    1
   102    42    41    2
   103    27    25    1
   104    94    95   ar
   105    94    96   ar
   106   119   120    2
   107    87    85   ar
   108   121   122    1
   109    56    57    1
   110    56    55    1
   111   194   192   ar
   112   194   193   ar
   113    57    58    2
   114    40    43    1
   115    40    41    1
   116    95    97   ar
   117   129   130    1
   118    43    44    1
   119    96    98   ar
   120    41    45   am
   121   192   190   ar
   122   122   123    1
   123   178   179    2
   124   178   184   am
   125   193   191   ar
   126    48    47    2
   127    25    26    1
   128    25    24    2
   129    55    47   am
   130   131   130    2
   131    47    46    1
   132   123   124    1
   133   130   137   am
   134   184   185    1
   135    97    99   ar
   136   190   189   ar
   137    98    99   ar
   138    45    46    1
   139    24    23    1
   140   191   189   ar
   141    46    49    1
   142   124   125    2
   143    99   100    1
   144   189   188    1
   145   137   138    1
   146   187   186    2
   147   185   188    1
   148   185   186    1
   149    23    22    1
   150   125   127    1
   151   125   126    1
   152   139   138    1
   153   139   140    2
   154   186   195   am
   155    49    50    1
   156    31    30    2
   157   138   141    1
   158    20    19    2
   159    51    50   ar
   160    51    53   ar
   161    30    29    1
   162    21    22    1
   163    21    18    1
   164    50    52   ar
   165   199   200    1
   166   199   196    1
   167   195   196    1
   168    53    54   ar
   169    19    18    1
   170    19    28   am
   171   141   142    1
   172   141   143    1
   173    18    17    1
   174   196   197    1
   175    52    54   ar
   176    29    28    1
   177    29    32    1
   178    32    33    1
   179    17    10   am
   180   197   198    2
   181   197   201   am
   182    11    10    2
   183   201   202    1
   184    10     9    1
   185    33    34    1
   186     4     3    2
   187     6     7    1
   188     6     5    1
   189    35    34    1
   190    35    36    2
   191   202   203    1
   192   202   205    1
   193     9     8    1
   194     9    12    1
   195   203   204    2
   196     7     1    1
   197    13    12    1
   198    13    14    1
   199     3     8   am
   200     3     2    1
   201    38    36    1
   202    36    37    1
   203   205   206    1
   204     5     2    1
   205    16    14   ar
   206     1     2    1
   207    14    15   ar
   208   208   209    1
   209   208   207    1
   210   206   207    1
