@<TRIPOS>MOLECULE
tmp/4hvbA00.pdb
 237 224 0 0 0
SMALL
GASTEIGER

@<TRIPOS>ATOM
      1  N         47.7800   18.0780   41.1930 N.3   554  MET554     -0.1245
      2  CA        47.6380   19.0560   40.1210 C.3   554  MET554      0.1570
      3  C         46.6080   20.1420   40.4300 C.2   554  MET554      0.2261
      4  O         45.6580   19.9240   41.1770 O.2   554  MET554     -0.2867
      5  CB        47.2390   18.3590   38.8200 C.3   554  MET554      0.0387
      6  CG        48.2300   17.3300   38.3370 C.3   554  MET554      0.0595
      7  SD        47.9340   16.8440   36.6160 S.3   554  MET554     -0.1393
      8  CE        47.9820   15.0830   36.7490 C.3   554  MET554      0.0692
      9  N         43.4240   21.9050   39.9010 N.3   556  SER556     -0.1202
     10  CA        42.1480   21.4590   39.3530 C.3   556  SER556      0.2020
     11  C         41.2520   21.1890   40.5500 C.2   556  SER556      0.2619
     12  O         41.6790   20.5250   41.4960 O.2   556  SER556     -0.2717
     13  CB        42.3300   20.1740   38.5390 C.3   556  SER556      0.2103
     14  OG        41.0830   19.6700   38.0790 O.3   556  SER556     -0.2182
     15  N         40.0220   21.7030   40.5090 N.am  557  LYS557     -0.1965
     16  CA        39.1460   21.7180   41.6850 C.3   557  LYS557      0.1728
     17  C         39.2230   20.3960   42.4370 C.2   557  LYS557      0.2616
     18  O         39.8130   20.3180   43.5170 O.2   557  LYS557     -0.2715
     19  CB        37.6950   22.0000   41.2710 C.3   557  LYS557      0.0311
     20  CG        37.4270   23.4460   40.8430 C.3   557  LYS557      0.0038
     21  CD        37.3920   23.5980   39.3170 C.3   557  LYS557      0.0206
     22  CE        38.7950   23.5580   38.7000 C.3   557  LYS557      0.1093
     23  NZ        38.7890   23.6660   37.2120 N.3   557  LYS557     -0.1314
     24  N         38.6320   19.3550   41.8570 N.am  558  LYS558     -0.1977
     25  CA        38.9990   17.9920   42.2100 C.3   558  LYS558      0.1596
     26  C         40.4380   17.8340   41.7460 C.2   558  LYS558      0.2287
     27  O         40.7780   18.2500   40.6400 O.2   558  LYS558     -0.2864
     28  CB        38.0830   16.9920   41.4930 C.3   558  LYS558      0.0298
     29  CG        37.7890   17.3260   40.0400 C.3   558  LYS558      0.0038
     30  CD        36.3100   17.1130   39.7140 C.3   558  LYS558      0.0206
     31  CE        35.9910   17.5560   38.2900 C.3   558  LYS558      0.1093
     32  NZ        34.5420   17.4270   37.9690 N.3   558  LYS558     -0.1314
     33  N         43.5240   15.6220   40.8520 N.3   560  PRO560     -0.2116
     34  CA        44.0770   14.3200   40.4650 C.3   560  PRO560      0.1372
     35  C         45.5430   14.1670   40.8550 C.2   560  PRO560      0.2244
     36  O         46.2620   15.1580   41.0010 O.2   560  PRO560     -0.2868
     37  CB        43.8830   14.2870   38.9480 C.3   560  PRO560      0.0268
     38  CG        43.8340   15.7220   38.5340 C.3   560  PRO560      0.0207
     39  CD        43.1650   16.4400   39.6770 C.3   560  PRO560      0.0892
     40  N         49.2660   12.8900   39.6990 N.3   562  TRP562     -0.1241
     41  CA        50.0740   12.6510   38.5130 C.3   562  TRP562      0.1605
     42  C         51.1960   11.6850   38.9010 C.2   562  TRP562      0.2264
     43  O         52.2830   12.0980   39.2990 O.2   562  TRP562     -0.2867
     44  CB        50.6590   13.9810   38.0060 C.3   562  TRP562      0.0550
     45  CG        51.7250   13.8350   36.9670 C.ar  562  TRP562      0.0003
     46  CD1       52.9990   13.3640   37.1500 C.ar  562  TRP562      0.0946
     47  CD2       51.6190   14.1630   35.5830 C.ar  562  TRP562      0.0152
     48  NE1       53.6890   13.3810   35.9640 N.ar  562  TRP562     -0.2442
     49  CE2       52.8640   13.8650   34.9840 C.ar  562  TRP562      0.0810
     50  CE3       50.5940   14.6780   34.7880 C.ar  562  TRP562      0.0012
     51  CZ2       53.1080   14.0690   33.6210 C.ar  562  TRP562      0.0191
     52  CZ3       50.8370   14.8780   33.4470 C.ar  562  TRP562      0.0001
     53  CH2       52.0830   14.5760   32.8730 C.ar  562  TRP562      0.0015
     54  N         47.3910    9.0870   35.5060 N.3   581  ILE581     -0.1245
     55  CA        46.5810    9.9680   36.3310 C.3   581  ILE581      0.1561
     56  C         45.5690    9.1650   37.1290 C.2   581  ILE581      0.2260
     57  O         44.8220    8.3760   36.5690 O.2   581  ILE581     -0.2867
     58  CB        45.8270   10.9940   35.4610 C.3   581  ILE581      0.0252
     59  CG1       46.8440   11.8280   34.6740 C.3   581  ILE581      0.0019
     60  CG2       44.9520   11.8780   36.3270 C.3   581  ILE581      0.0019
     61  CD1       46.2440   12.5530   33.4980 C.3   581  ILE581      0.0001
     62  N         42.2420    9.8440   39.3970 N.3   583  LYS583     -0.1245
     63  CA        41.3370   10.9610   39.5750 C.3   583  LYS583      0.1561
     64  C         39.9810   10.5810   40.1840 C.2   583  LYS583      0.2260
     65  O         39.4440    9.5130   39.9030 O.2   583  LYS583     -0.2867
     66  CB        41.1630   11.6770   38.2330 C.3   583  LYS583      0.0271
     67  CG        39.9220   12.5430   38.1460 C.3   583  LYS583      0.0035
     68  CD        40.2440   13.9970   38.1880 C.3   583  LYS583      0.0206
     69  CE        40.4850   14.5710   36.8030 C.3   583  LYS583      0.1093
     70  NZ        39.6940   15.8470   36.5750 N.3   583  LYS583     -0.1314
     71  N         35.2410   12.8200   38.1580 N.3   586  ASP586     -0.1239
     72  CA        34.8000   12.6360   36.7780 C.3   586  ASP586      0.1674
     73  C         34.2110   11.2530   36.5430 C.2   586  ASP586      0.2266
     74  O         34.7620   10.2480   37.0130 O.2   586  ASP586     -0.2867
     75  CB        35.9890   12.8310   35.8400 C.3   586  ASP586      0.1410
     76  CG        36.2710   14.2850   35.5710 C.2   586  ASP586      0.3668
     77  OD1       35.3280   15.0950   35.7100 O.co2 586  ASP586     -0.2456
     78  OD2       37.4210   14.6170   35.2180 O.co2 586  ASP586     -0.2456
     79  N         34.4740    8.6490   34.5840 N.3   588  LEU588     -0.1245
     80  CA        35.3480    7.9830   33.6280 C.3   588  LEU588      0.1561
     81  C         34.6560    6.8450   32.8200 C.2   588  LEU588      0.2260
     82  O         35.1320    6.4520   31.7730 O.2   588  LEU588     -0.2867
     83  CB        36.5540    7.4280   34.3810 C.3   588  LEU588      0.0270
     84  CG        37.8260    8.2420   34.6390 C.3   588  LEU588      0.0019
     85  CD1       37.5650    9.7140   34.6210 C.3   588  LEU588      0.0001
     86  CD2       38.4210    7.7930   35.9510 C.3   588  LEU588      0.0001
     87  N         33.9840    8.3510   29.5890 N.3   591  ASP591     -0.1239
     88  CA        35.2260    8.4570   28.8450 C.3   591  ASP591      0.1674
     89  C         35.6110    7.1600   28.1600 C.2   591  ASP591      0.2266
     90  O         36.1260    7.1820   27.0380 O.2   591  ASP591     -0.2867
     91  CB        36.3690    8.8860   29.7610 C.3   591  ASP591      0.1410
     92  CG        36.2700   10.3390   30.1780 C.2   591  ASP591      0.3668
     93  OD1       35.4220   10.6480   31.0350 O.co2 591  ASP591     -0.2456
     94  OD2       37.0510   11.1650   29.6450 O.co2 591  ASP591     -0.2456
     95  N         43.6770    7.5050   24.2370 N.3   617  TYR617     -0.1241
     96  CA        44.6040    7.0940   25.2870 C.3   617  TYR617      0.1605
     97  C         43.8860    6.1650   26.2830 C.2   617  TYR617      0.2264
     98  O         42.6580    6.1930   26.3990 O.2   617  TYR617     -0.2867
     99  CB        45.1220    8.3380   26.0170 C.3   617  TYR617      0.0534
    100  CG        43.9920    9.3040   26.3310 C.ar  617  TYR617     -0.0201
    101  CD1       43.1720    9.1000   27.4140 C.ar  617  TYR617     -0.0009
    102  CD2       43.7040   10.3710   25.4690 C.ar  617  TYR617     -0.0009
    103  CE1       42.0750    9.9110   27.6390 C.ar  617  TYR617      0.0417
    104  CE2       42.6210   11.1970   25.6880 C.ar  617  TYR617      0.0417
    105  CZ        41.8010   10.9670   26.7680 C.ar  617  TYR617      0.1957
    106  OH        40.6990   11.7820   26.9690 O.3   617  TYR617     -0.2866
    107  N         42.2020    4.3030   29.4050 N.3   619  CYS619     -0.1235
    108  CA        41.3250    4.7840   30.4670 C.3   619  CYS619      0.1677
    109  C         40.5430    3.6280   31.0960 C.2   619  CYS619      0.2270
    110  O         39.8730    2.8550   30.4210 O.2   619  CYS619     -0.2867
    111  CB        40.3430    5.8310   29.9210 C.3   619  CYS619      0.0956
    112  SG        39.3010    6.6180   31.1640 S.3   619  CYS619     -0.0801
    113  N         43.9030    7.0770   34.1940 N.3   629  ILE629     -0.1231
    114  CA        44.0070    7.5640   32.8360 C.3   629  ILE629      0.1692
    115  C         45.4590    7.5440   32.3640 C.2   629  ILE629      0.2592
    116  O         46.3280    8.0460   33.0530 O.2   629  ILE629     -0.2718
    117  CB        43.4640    8.9780   32.7730 C.3   629  ILE629      0.0266
    118  CG1       42.0850    9.0020   33.4290 C.3   629  ILE629      0.0019
    119  CG2       43.3690    9.4340   31.3450 C.3   629  ILE629      0.0020
    120  CD1       41.6970   10.3610   33.9610 C.3   629  ILE629      0.0001
    121  N         45.7250    6.9570   31.2020 N.am  630  GLU630     -0.1966
    122  CA        47.0890    6.9320   30.6650 C.3   630  GLU630      0.1733
    123  C         47.6190    8.3350   30.3230 C.2   630  GLU630      0.2616
    124  O         46.9080    9.1490   29.7130 O.2   630  GLU630     -0.2715
    125  CB        47.1370    6.0690   29.4070 C.3   630  GLU630      0.0429
    126  CG        48.3540    6.3000   28.5510 C.3   630  GLU630      0.1163
    127  CD        48.2560    5.6240   27.1910 C.2   630  GLU630      0.3649
    128  OE1       49.3110    5.1640   26.6780 O.co2 630  GLU630     -0.2457
    129  OE2       47.1270    5.5540   26.6310 O.co2 630  GLU630     -0.2457
    130  N         48.8690    8.6120   30.6970 N.am  631  ILE631     -0.1963
    131  CA        49.5130    9.8750   30.3050 C.3   631  ILE631      0.1727
    132  C         50.1110    9.8360   28.8960 C.2   631  ILE631      0.2616
    133  O         50.8800    8.9330   28.5620 O.2   631  ILE631     -0.2715
    134  CB        50.6480   10.2580   31.2750 C.3   631  ILE631      0.0290
    135  CG1       50.0720   10.5580   32.6550 C.3   631  ILE631      0.0022
    136  CG2       51.4020   11.4660   30.7290 C.3   631  ILE631      0.0023
    137  CD1       51.1110   11.0000   33.6810 C.3   631  ILE631      0.0001
    138  N         49.7670   10.8200   28.0710 N.am  632  VAL632     -0.1977
    139  CA        50.4360   10.9700   26.7810 C.3   632  VAL632      0.1596
    140  C         51.7220   11.7800   26.9490 C.2   632  VAL632      0.2287
    141  O         51.7260   12.8260   27.5960 O.2   632  VAL632     -0.2864
    142  CB        49.5280   11.6870   25.7440 C.3   632  VAL632      0.0276
    143  CG1       50.2820   11.8440   24.3920 C.3   632  VAL632      0.0022
    144  CG2       48.2220   10.9160   25.5680 C.3   632  VAL632      0.0022
    145  N         53.2110   16.3890   25.8790 N.3   635  ALA635     -0.1231
    146  CA        51.9870   17.0460   25.4500 C.3   635  ALA635      0.1694
    147  C         51.6240   18.2400   26.3230 C.2   635  ALA635      0.2593
    148  O         51.9730   18.2960   27.5060 O.2   635  ALA635     -0.2718
    149  CB        50.8330   16.0380   25.4650 C.3   635  ALA635      0.0304
    150  N         50.8910   19.1830   25.7420 N.am  636  THR636     -0.1939
    151  CA        50.3030   20.2520   26.5340 C.3   636  THR636      0.2028
    152  C         48.9020   20.5650   26.0480 C.2   636  THR636      0.2642
    153  O         48.5240   20.2570   24.9180 O.2   636  THR636     -0.2714
    154  CB        51.0970   21.5850   26.4390 C.3   636  THR636      0.1808
    155  OG1       52.4920   21.3210   26.3050 O.3   636  THR636     -0.2208
    156  CG2       50.8810   22.3930   27.6870 C.3   636  THR636      0.0379
    157  N         48.1500   21.2150   26.9230 N.am  637  THR637     -0.1950
    158  CA        46.8800   21.8100   26.5710 C.3   637  THR637      0.1897
    159  C         47.0520   22.9950   25.6130 C.2   637  THR637      0.2313
    160  O         48.0200   23.7560   25.7100 O.2   637  THR637     -0.2863
    161  CB        46.1680   22.2480   27.8530 C.3   637  THR637      0.1794
    162  OG1       45.7030   21.0740   28.5480 O.3   637  THR637     -0.2208
    163  CG2       45.0110   23.1790   27.5430 C.3   637  THR637      0.0378
    164  N         47.1410   26.2790   27.2360 N.3   640  LYS640     -0.1245
    165  CA        48.3980   26.5770   27.9050 C.3   640  LYS640      0.1561
    166  C         49.3890   27.1420   26.8990 C.2   640  LYS640      0.2260
    167  O         50.1620   28.0400   27.2200 O.2   640  LYS640     -0.2867
    168  CB        48.9720   25.3190   28.5510 C.3   640  LYS640      0.0271
    169  CG        48.6140   25.1620   30.0090 C.3   640  LYS640      0.0035
    170  CD        47.8460   23.8680   30.2720 C.3   640  LYS640      0.0206
    171  CE        47.8100   23.5820   31.7580 C.3   640  LYS640      0.1093
    172  NZ        49.1700   23.7330   32.3520 N.3   640  LYS640     -0.1314
    173  N         40.8540   24.4270   26.9190 N.3   700  ASP700     -0.1225
    174  CA        41.6950   23.7660   27.9040 C.3   700  ASP700      0.1805
    175  C         41.5760   22.2360   27.7790 C.2   700  ASP700      0.2597
    176  O         42.4450   21.4870   28.2480 O.2   700  ASP700     -0.2718
    177  CB        41.2760   24.2390   29.3080 C.3   700  ASP700      0.1424
    178  CG        42.3870   24.0850   30.3520 C.2   700  ASP700      0.3668
    179  OD1       43.5850   24.0320   29.9850 O.co2 700  ASP700     -0.2456
    180  OD2       42.0540   24.0180   31.5540 O.co2 700  ASP700     -0.2456
    181  N         40.5020   21.7860   27.1300 N.am  701  ASN701     -0.1974
    182  CA        40.2010   20.3690   27.0080 C.3   701  ASN701      0.1688
    183  C         40.6970   19.7820   25.6880 C.2   701  ASN701      0.2292
    184  O         40.2270   18.7080   25.2610 O.2   701  ASN701     -0.2864
    185  CB        38.6980   20.1350   27.1100 C.3   701  ASN701      0.1181
    186  CG        38.1440   20.4540   28.4770 C.2   701  ASN701      0.2629
    187  OD1       37.1150   21.1140   28.5950 O.2   701  ASN701     -0.2716
    188  ND2       38.8100   19.9800   29.5210 N.am  701  ASN701     -0.0877
    189  N         44.4510   19.0410   23.4890 N.3   703  MET703     -0.1245
    190  CA        45.8820   18.9190   23.7550 C.3   703  MET703      0.1570
    191  C         46.6650   18.6690   22.4780 C.2   703  MET703      0.2261
    192  O         46.0960   18.2740   21.4670 O.2   703  MET703     -0.2867
    193  CB        46.1500   17.7850   24.7600 C.3   703  MET703      0.0387
    194  CG        45.5470   18.0150   26.1370 C.3   703  MET703      0.0595
    195  SD        46.2430   16.9450   27.4560 S.3   703  MET703     -0.1393
    196  CE        47.7070   17.8900   27.9460 C.3   703  MET703      0.0692
    197  N         44.5740   15.9520   20.1380 N.3   711  PHE711     -0.1241
    198  CA        43.6630   14.9460   20.7020 C.3   711  PHE711      0.1605
    199  C         42.8160   15.5130   21.8320 C.2   711  PHE711      0.2264
    200  O         43.3240   16.2220   22.6930 O.2   711  PHE711     -0.2867
    201  CB        44.4540   13.7380   21.2260 C.3   711  PHE711      0.0534
    202  CG        45.3330   14.0360   22.4310 C.ar  711  PHE711     -0.0203
    203  CD1       44.9040   13.7160   23.7170 C.ar  711  PHE711     -0.0042
    204  CD2       46.6300   14.5250   22.2670 C.ar  711  PHE711     -0.0042
    205  CE1       45.7580   13.8610   24.8160 C.ar  711  PHE711     -0.0003
    206  CE2       47.4970   14.6770   23.3600 C.ar  711  PHE711     -0.0003
    207  CZ        47.0630   14.3390   24.6350 C.ar  711  PHE711     -0.0000
    208  N         40.3000   15.4880   25.2850 N.3   713  ILE713     -0.1231
    209  CA        40.3230   14.8440   26.5800 C.3   713  ILE713      0.1692
    210  C         39.0500   15.2060   27.2970 C.2   713  ILE713      0.2592
    211  O         38.3090   16.0840   26.8630 O.2   713  ILE713     -0.2718
    212  CB        41.4940   15.3240   27.4380 C.3   713  ILE713      0.0266
    213  CG1       41.4670   16.8630   27.5410 C.3   713  ILE713      0.0019
    214  CG2       42.7920   14.7630   26.9050 C.3   713  ILE713      0.0020
    215  CD1       42.3500   17.4060   28.6380 C.3   713  ILE713      0.0001
    216  N         38.7850   14.5180   28.3940 N.am  714  ASP714     -0.1974
    217  CA        37.6760   14.8700   29.2620 C.3   714  ASP714      0.1709
    218  C         36.3080   14.8470   28.6180 C.2   714  ASP714      0.2293
    219  O         35.6440   15.8720   28.4750 O.2   714  ASP714     -0.2864
    220  CB        37.9050   16.2390   29.8540 C.3   714  ASP714      0.1436
    221  CG        37.8660   16.2100   31.3320 C.2   714  ASP714      0.3671
    222  OD1       36.7690   16.1830   31.9300 O.co2 714  ASP714     -0.2456
    223  OD2       38.9570   16.1760   31.9010 O.co2 714  ASP714     -0.2456
    224  N         33.7490   13.1600   29.6750 N.3   716  GLY716     -0.1210
    225  CA        32.7150   13.2070   30.6830 C.3   716  GLY716      0.1956
    226  C         32.2850   14.6430   30.9120 C.2   716  GLY716      0.2611
    227  O         31.1060   14.9150   31.1290 O.2   716  GLY716     -0.2717
    228  N         33.2420   15.5670   30.8460 N.am  717  HIS717     -0.1975
    229  CA        33.0020   16.9560   31.2360 C.3   717  HIS717      0.1656
    230  C         31.7950   17.5400   30.4960 C.2   717  HIS717      0.2291
    231  O         31.1290   18.4480   31.0060 O.2   717  HIS717     -0.2864
    232  CB        34.2490   17.8150   30.9610 C.3   717  HIS717      0.0771
    233  CG        34.2480   19.1400   31.6670 C.ar  717  HIS717      0.0820
    234  ND1       35.2450   19.5180   32.5410 N.ar  717  HIS717     -0.2267
    235  CD2       33.3650   20.1690   31.6390 C.ar  717  HIS717      0.1154
    236  CE1       34.9770   20.7200   33.0220 C.ar  717  HIS717      0.1986
    237  NE2       33.8410   21.1370   32.4910 N.ar  717  HIS717     -0.2212
@<TRIPOS>BOND
     1   197   198    1
     2   198   201    1
     3   198   199    1
     4   201   202    1
     5   192   191    2
     6   199   200    2
     7   204   202   ar
     8   204   206   ar
     9   202   203   ar
    10   191   190    1
    11   206   207   ar
    12   189   190    1
    13   203   205   ar
    14   190   193    1
    15    95    96    1
    16   143   142    1
    17   207   205   ar
    18   193   194    1
    19   153   152    2
    20   184   183    2
    21   208   209    1
    22    96    99    1
    23    96    97    1
    24   146   149    1
    25   146   145    1
    26   146   147    1
    27   102   104   ar
    28   102   100   ar
    29   144   142    1
    30   159   160    2
    31   159   158    1
    32   104   105   ar
    33   183   182    1
    34   150   147   am
    35   150   151    1
    36   142   139    1
    37    99   100    1
    38   152   151    1
    39   152   157   am
    40   194   195    1
    41    97    98    2
    42   155   154    1
    43   147   148    2
    44   100   101   ar
    45   154   151    1
    46   154   156    1
    47   158   157    1
    48   158   161    1
    49   209   210    1
    50   209   212    1
    51   129   127   ar
    52   128   127   ar
    53   105   106    1
    54   105   103   ar
    55   139   140    1
    56   139   138    1
    57   211   210    2
    58   166   167    2
    59   166   165    1
    60   214   212    1
    61   173   174    1
    62   140   141    2
    63   182   185    1
    64   182   181    1
    65    90    89    2
    66   185   186    1
    67   181   175   am
    68   127   126    1
    69   164   165    1
    70   210   216   am
    71   101   103   ar
    72   212   213    1
    73   195   196    1
    74   213   215    1
    75   163   161    1
    76   175   174    1
    77   175   176    2
    78   161   162    1
    79   174   177    1
    80   165   168    1
    81   138   132   am
    82    89    88    1
    83   216   217    1
    84   219   218    2
    85   186   187    2
    86   186   188   am
    87   126   125    1
    88   168   169    1
    89   133   132    2
    90   218   217    1
    91    88    87    1
    92    88    91    1
    93   132   131    1
    94   217   220    1
    95   177   178    1
    96   107   108    1
    97   125   122    1
    98    94    92   ar
    99   224   225    1
   100   124   123    2
   101    91    92    1
   102   220   221    1
   103   111   108    1
   104   111   112    1
   105   179   178   ar
   106   169   170    1
   107    92    93   ar
   108   170   171    1
   109   131   130    1
   110   131   134    1
   111   123   122    1
   112   123   130   am
   113   178   180   ar
   114   110   109    2
   115   108   109    1
   116   230   231    2
   117   230   229    1
   118   122   121    1
   119   225   226    1
   120   136   134    1
   121   228   226   am
   122   228   229    1
   123   226   227    2
   124   232   229    1
   125   232   233    1
   126   121   115   am
   127   134   135    1
   128   221   223   ar
   129   221   222   ar
   130   119   117    1
   131   235   233   ar
   132   235   237   ar
   133   233   234   ar
   134   171   172    1
   135    82    81    2
   136   115   114    1
   137   115   116    2
   138   237   236   ar
   139   234   236   ar
   140   135   137    1
   141   117   114    1
   142   117   118    1
   143    81    80    1
   144   114   113    1
   145    53    52   ar
   146    53    51   ar
   147   118   120    1
   148    52    50   ar
   149    61    59    1
   150    51    49   ar
   151    80    83    1
   152    80    79    1
   153    83    84    1
   154    85    84    1
   155    84    86    1
   156    59    58    1
   157    50    47   ar
   158    49    47   ar
   159    49    48   ar
   160    78    76   ar
   161    58    60    1
   162    58    55    1
   163    54    55    1
   164    76    77   ar
   165    76    75    1
   166    47    45   ar
   167    75    72    1
   168    48    46   ar
   169    55    56    1
   170    73    72    1
   171    73    74    2
   172    57    56    2
   173    70    69    1
   174     7     8    1
   175     7     6    1
   176    72    71    1
   177    69    68    1
   178    45    46   ar
   179    45    44    1
   180    23    22    1
   181    32    31    1
   182    44    41    1
   183    14    13    1
   184    67    68    1
   185    67    66    1
   186    66    63    1
   187    31    30    1
   188     6     5    1
   189    41    42    1
   190    41    40    1
   191    38    37    1
   192    38    39    1
   193    13    10    1
   194    22    21    1
   195     5     2    1
   196    42    43    2
   197    37    34    1
   198    21    20    1
   199    10     9    1
   200    10    11    1
   201    62    63    1
   202    63    64    1
   203    39    33    1
   204    30    29    1
   205    65    64    2
   206    29    28    1
   207     2     3    1
   208     2     1    1
   209     3     4    2
   210    34    33    1
   211    34    35    1
   212    15    11   am
   213    15    16    1
   214    11    12    2
   215    27    26    2
   216    20    19    1
   217    35    36    2
   218    19    16    1
   219    28    25    1
   220    16    17    1
   221    26    25    1
   222    24    25    1
   223    24    17   am
   224    17    18    2
