@<TRIPOS>MOLECULE
tmp/4hvcB00.pdb
 196 189 0 0 0
SMALL
GASTEIGER

@<TRIPOS>ATOM
      1  N         28.9660   11.6240    3.8650 N.3    83  PHE83      -0.1241
      2  CA        27.7390   11.2560    4.5830 C.3    83  PHE83       0.1605
      3  C         26.7690   12.4290    4.7860 C.2    83  PHE83       0.2264
      4  O         25.5940   12.2230    5.1270 O.2    83  PHE83      -0.2867
      5  CB        28.0700   10.6440    5.9520 C.3    83  PHE83       0.0534
      6  CG        28.5630    9.2210    5.8890 C.ar   83  PHE83      -0.0203
      7  CD1       27.8550    8.2470    5.1840 C.ar   83  PHE83      -0.0042
      8  CD2       29.7210    8.8490    6.5600 C.ar   83  PHE83      -0.0042
      9  CE1       28.3050    6.9280    5.1350 C.ar   83  PHE83      -0.0003
     10  CE2       30.1780    7.5290    6.5180 C.ar   83  PHE83      -0.0003
     11  CZ        29.4670    6.5690    5.8030 C.ar   83  PHE83      -0.0000
     12  N         23.0500   12.5700    3.8170 N.3    86  GLU86      -0.1245
     13  CA        22.1710   11.5880    4.4440 C.3    86  GLU86       0.1567
     14  C         21.5890   12.0700    5.7800 C.2    86  GLU86       0.2260
     15  O         20.6690   11.4560    6.3020 O.2    86  GLU86      -0.2867
     16  CB        22.8880   10.2470    4.6430 C.3    86  GLU86       0.0388
     17  CG        23.3850    9.5590    3.3650 C.3    86  GLU86       0.1160
     18  CD        23.9240    8.1480    3.6270 C.2    86  GLU86       0.3649
     19  OE1       24.0470    7.7440    4.8070 O.co2  86  GLU86      -0.2457
     20  OE2       24.2270    7.4390    2.6460 O.co2  86  GLU86      -0.2457
     21  N         18.7640    7.7680    8.0180 N.3   138  ARG138     -0.1245
     22  CA        19.7290    8.1500    6.9970 C.3   138  ARG138      0.1563
     23  C         18.9490    8.4100    5.7230 C.2   138  ARG138      0.2260
     24  O         18.1530    7.5690    5.2900 O.2   138  ARG138     -0.2867
     25  CB        20.7470    7.0370    6.7530 C.3   138  ARG138      0.0307
     26  CG        21.6020    6.7170    7.9620 C.3   138  ARG138      0.0489
     27  CD        22.4230    5.4690    7.7550 C.3   138  ARG138      0.2205
     28  NE        23.1590    5.1370    8.9750 N.pl3 138  ARG138     -0.0865
     29  CZ        24.0290    4.1340    9.0820 C.cat 138  ARG138      0.5346
     30  NH1       24.2970    3.3480    8.0370 N.pl3 138  ARG138      0.1354
     31  NH2       24.6440    3.9230   10.2400 N.pl3 138  ARG138      0.1354
     32  N         18.8080    7.9820    2.5820 N.3   140  GLU140     -0.1245
     33  CA        19.4470    7.1070    1.5950 C.3   140  GLU140      0.1567
     34  C         19.3000    7.6050    0.1640 C.2   140  GLU140      0.2260
     35  O         18.2160    8.0200   -0.2540 O.2   140  GLU140     -0.2867
     36  CB        18.9040    5.6750    1.7260 C.3   140  GLU140      0.0388
     37  CG        19.1650    5.0210    3.1000 C.3   140  GLU140      0.1160
     38  CD        20.6360    4.6400    3.3230 C.2   140  GLU140      0.3649
     39  OE1       21.4010    4.5760    2.3370 O.co2 140  GLU140     -0.2457
     40  OE2       21.0270    4.3990    4.4850 O.co2 140  GLU140     -0.2457
     41  N         20.2610    5.5800   -2.6020 N.3   142  LYS142     -0.1245
     42  CA        19.8570    4.4150   -3.4040 C.3   142  LYS142      0.1561
     43  C         18.3460    4.1980   -3.3430 C.2   142  LYS142      0.2260
     44  O         17.6900    4.6640   -2.4080 O.2   142  LYS142     -0.2867
     45  CB        20.5700    3.1460   -2.9160 C.3   142  LYS142      0.0271
     46  CG        22.0800    3.1250   -3.1360 C.3   142  LYS142      0.0035
     47  CD        22.7120    1.9340   -2.4240 C.3   142  LYS142      0.0206
     48  CE        24.2230    1.8910   -2.6270 C.3   142  LYS142      0.1093
     49  NZ        24.8600    0.9280   -1.6810 N.3   142  LYS142     -0.1314
     50  N         12.8360   -3.2420    4.4650 N.3   147  PHE147     -0.1227
     51  CA        13.8670   -3.9320    5.2420 C.3   147  PHE147      0.1736
     52  C         15.3010   -3.6690    4.7740 C.2   147  PHE147      0.2595
     53  O         16.1350   -3.2330    5.5580 O.2   147  PHE147     -0.2718
     54  CB        13.6270   -5.4510    5.3170 C.3   147  PHE147      0.0547
     55  CG        12.3300   -5.8370    5.9540 C.ar  147  PHE147     -0.0202
     56  CD1       12.1050   -5.6110    7.3140 C.ar  147  PHE147     -0.0042
     57  CD2       11.3300   -6.4420    5.1970 C.ar  147  PHE147     -0.0042
     58  CE1       10.8960   -5.9750    7.9070 C.ar  147  PHE147     -0.0003
     59  CE2       10.1160   -6.8100    5.7790 C.ar  147  PHE147     -0.0003
     60  CZ         9.9000   -6.5780    7.1370 C.ar  147  PHE147     -0.0000
     61  N         15.5780   -3.9530    3.5040 N.am  148  LEU148     -0.1966
     62  CA        16.9470   -3.9580    2.9730 C.3   148  LEU148      0.1728
     63  C         17.6130   -2.5850    2.9710 C.2   148  LEU148      0.2616
     64  O         18.7730   -2.4560    3.3770 O.2   148  LEU148     -0.2715
     65  CB        16.9720   -4.5670    1.5640 C.3   148  LEU148      0.0311
     66  CG        16.3330   -5.9520    1.4330 C.3   148  LEU148      0.0022
     67  CD1       16.3620   -6.4420   -0.0230 C.3   148  LEU148      0.0001
     68  CD2       17.0170   -6.9590    2.3610 C.3   148  LEU148      0.0001
     69  N         16.8880   -1.5690    2.5040 N.am  149  ARG149     -0.1963
     70  CA        17.3860   -0.1960    2.5450 C.3   149  ARG149      0.1729
     71  C         16.2580    0.7960    2.8160 C.2   149  ARG149      0.2616
     72  O         15.5330    1.2020    1.9170 O.2   149  ARG149     -0.2715
     73  CB        18.1490    0.1810    1.2680 C.3   149  ARG149      0.0348
     74  CG        19.0260    1.4270    1.4790 C.3   149  ARG149      0.0492
     75  CD        20.0770    1.6070    0.4100 C.3   149  ARG149      0.2205
     76  NE        21.1010    0.5620    0.4360 N.pl3 149  ARG149     -0.0865
     77  CZ        22.0950    0.4810    1.3190 C.cat 149  ARG149      0.5346
     78  NH1       22.2190    1.3770    2.2960 N.pl3 149  ARG149      0.1354
     79  NH2       22.9700   -0.5120    1.2250 N.pl3 149  ARG149      0.1354
     80  N         16.1300    1.1770    4.0770 N.am  150  THR150     -0.1951
     81  CA        15.0330    2.0270    4.5080 C.3   150  THR150      0.1897
     82  C         15.5930    3.3360    5.0620 C.2   150  THR150      0.2313
     83  O         16.7390    3.3760    5.5410 O.2   150  THR150     -0.2863
     84  CB        14.1580    1.3050    5.5580 C.3   150  THR150      0.1794
     85  OG1       14.9180    1.1040    6.7510 O.3   150  THR150     -0.2208
     86  CG2       13.7020   -0.0540    5.0380 C.3   150  THR150      0.0378
     87  N         15.2850    2.9330   10.1080 N.3   153  PHE153     -0.1241
     88  CA        15.3730    1.5120   10.4450 C.3   153  PHE153      0.1605
     89  C         15.5870    1.3060   11.9260 C.2   153  PHE153      0.2264
     90  O         15.9810    2.2300   12.6320 O.2   153  PHE153     -0.2867
     91  CB        16.4440    0.7670    9.6160 C.3   153  PHE153      0.0534
     92  CG        17.8310    1.3950    9.6380 C.ar  153  PHE153     -0.0203
     93  CD1       18.7760    1.0070   10.5900 C.ar  153  PHE153     -0.0042
     94  CD2       18.2090    2.3210    8.6590 C.ar  153  PHE153     -0.0042
     95  CE1       20.0670    1.5570   10.5980 C.ar  153  PHE153     -0.0003
     96  CE2       19.5020    2.8890    8.6590 C.ar  153  PHE153     -0.0003
     97  CZ        20.4320    2.5020    9.6270 C.ar  153  PHE153     -0.0000
     98  N         17.7230   -0.8090   14.8120 N.3   155  TRP155     -0.1241
     99  CA        18.9620   -1.5590   14.9730 C.3   155  TRP155      0.1605
    100  C         19.3470   -1.7100   16.4270 C.2   155  TRP155      0.2264
    101  O         18.6790   -1.1780   17.3160 O.2   155  TRP155     -0.2867
    102  CB        20.1050   -0.9320   14.1420 C.3   155  TRP155      0.0550
    103  CG        20.8520    0.2690   14.7080 C.ar  155  TRP155      0.0003
    104  CD1       20.5800    0.9770   15.8530 C.ar  155  TRP155      0.0946
    105  CD2       21.9870    0.9090   14.1040 C.ar  155  TRP155      0.0152
    106  NE1       21.4890    2.0070   15.9970 N.ar  155  TRP155     -0.2442
    107  CE2       22.3600    1.9840   14.9400 C.ar  155  TRP155      0.0810
    108  CE3       22.7280    0.6690   12.9390 C.ar  155  TRP155      0.0012
    109  CZ2       23.4390    2.8280   14.6410 C.ar  155  TRP155      0.0191
    110  CZ3       23.7970    1.5090   12.6420 C.ar  155  TRP155      0.0001
    111  CH2       24.1460    2.5700   13.4980 C.ar  155  TRP155      0.0015
    112  N         25.4460   -6.9660    2.9090 N.3   223  GLN223     -0.1231
    113  CA        26.1080   -6.9390    4.2010 C.3   223  GLN223      0.1698
    114  C         25.0980   -7.1860    5.3170 C.2   223  GLN223      0.2593
    115  O         24.1320   -6.4340    5.4580 O.2   223  GLN223     -0.2718
    116  CB        26.8140   -5.6020    4.4090 C.3   223  GLN223      0.0381
    117  CG        27.4960   -5.4990    5.7590 C.3   223  GLN223      0.0905
    118  CD        28.2080   -4.1840    5.9570 C.2   223  GLN223      0.2608
    119  OE1       29.3830   -4.1590    6.3170 O.2   223  GLN223     -0.2717
    120  NE2       27.4950   -3.0740    5.7370 N.am  223  GLN223     -0.0878
    121  N         25.3340   -8.2360    6.1040 N.am  224  GLY224     -0.1942
    122  CA        24.3830   -8.6730    7.1390 C.3   224  GLY224      0.2014
    123  C         24.5200   -8.0130    8.5030 C.2   224  GLY224      0.2639
    124  O         23.5670   -7.9920    9.2990 O.2   224  GLY224     -0.2714
    125  N         25.6990   -7.4580    8.7620 N.am  225  GLY225     -0.1939
    126  CA        26.0590   -6.9150   10.0750 C.3   225  GLY225      0.2014
    127  C         27.5230   -6.5120   10.0430 C.2   225  GLY225      0.2639
    128  O         28.2900   -7.0050    9.2130 O.2   225  GLY225     -0.2714
    129  N         27.9080   -5.6080   10.9380 N.am  226  THR226     -0.1950
    130  CA        29.2410   -5.0170   10.9140 C.3   226  THR226      0.1897
    131  C         29.8090   -4.9400   12.3250 C.2   226  THR226      0.2313
    132  O         29.0940   -4.6050   13.2710 O.2   226  THR226     -0.2863
    133  CB        29.2020   -3.5850   10.3440 C.3   226  THR226      0.1794
    134  OG1       28.2640   -3.5170    9.2650 O.3   226  THR226     -0.2208
    135  CG2       30.5490   -3.1900    9.8260 C.3   226  THR226      0.0378
    136  N         33.3830   -3.3290   13.9920 N.3   228  HIS228     -0.1241
    137  CA        34.6450   -2.6040   13.7900 C.3   228  HIS228      0.1621
    138  C         35.5450   -2.6610   15.0070 C.2   228  HIS228      0.2264
    139  O         35.0670   -2.6070   16.1390 O.2   228  HIS228     -0.2867
    140  CB        34.3990   -1.1090   13.5340 C.3   228  HIS228      0.0745
    141  CG        33.2970   -0.8160   12.5670 C.ar  228  HIS228      0.0817
    142  ND1       33.4690   -0.8790   11.2030 N.ar  228  HIS228     -0.2268
    143  CD2       32.0200   -0.4120   12.7690 C.ar  228  HIS228      0.1154
    144  CE1       32.3380   -0.5470   10.6040 C.ar  228  HIS228      0.1986
    145  NE2       31.4440   -0.2610   11.5330 N.ar  228  HIS228     -0.2212
    146  N         26.9620   -3.1310   14.7520 N.3   260  GLY260     -0.1210
    147  CA        25.5320   -2.9530   14.5520 C.3   260  GLY260      0.1956
    148  C         24.8830   -3.9870   13.6580 C.2   260  GLY260      0.2612
    149  O         25.5280   -4.5540   12.7690 O.2   260  GLY260     -0.2717
    150  N         23.5920   -4.2080   13.8930 N.am  261  LEU261     -0.1965
    151  CA        22.7770   -5.1690   13.1370 C.3   261  LEU261      0.1728
    152  C         21.3610   -4.5980   13.0590 C.2   261  LEU261      0.2616
    153  O         20.8550   -4.1120   14.0620 O.2   261  LEU261     -0.2715
    154  CB        22.7660   -6.5240   13.8700 C.3   261  LEU261      0.0311
    155  CG        21.8110   -7.6370   13.4090 C.3   261  LEU261      0.0022
    156  CD1       22.4920   -8.6140   12.4550 C.3   261  LEU261      0.0001
    157  CD2       21.2650   -8.4030   14.6010 C.3   261  LEU261      0.0001
    158  N         20.7250   -4.6590   11.8840 N.am  262  THR262     -0.1951
    159  CA        19.4250   -3.9910   11.6700 C.3   262  THR262      0.1897
    160  C         18.2990   -4.9230   11.2340 C.2   262  THR262      0.2313
    161  O         18.5050   -6.1090   11.0160 O.2   262  THR262     -0.2863
    162  CB        19.5050   -2.8750   10.6020 C.3   262  THR262      0.1794
    163  OG1       19.5390   -3.4610    9.2870 O.3   262  THR262     -0.2208
    164  CG2       20.7340   -1.9990   10.8180 C.3   262  THR262      0.0378
    165  N         17.2090   -5.0880    8.4270 N.3   264  ARG264     -0.1245
    166  CA        17.6220   -5.6870    7.1470 C.3   264  ARG264      0.1563
    167  C         17.5790   -7.2120    7.2020 C.2   264  ARG264      0.2260
    168  O         17.2190   -7.8570    6.2140 O.2   264  ARG264     -0.2867
    169  CB        19.0210   -5.2110    6.7490 C.3   264  ARG264      0.0307
    170  CG        19.6270   -5.9340    5.5470 C.3   264  ARG264      0.0489
    171  CD        21.0030   -5.3940    5.2340 C.3   264  ARG264      0.2205
    172  NE        20.9170   -4.0930    4.5880 N.pl3 264  ARG264     -0.0865
    173  CZ        21.9410   -3.4520    4.0310 C.cat 264  ARG264      0.5346
    174  NH1       23.1540   -3.9940    4.0320 N.pl3 264  ARG264      0.1354
    175  NH2       21.7440   -2.2670    3.4630 N.pl3 264  ARG264      0.1354
    176  N         31.9000   -4.8250   -6.6520 N.3   448  LYS448     -0.1245
    177  CA        32.5240   -4.1520   -5.5240 C.3   448  LYS448      0.1561
    178  C         33.1350   -5.2140   -4.6120 C.2   448  LYS448      0.2260
    179  O         32.7060   -6.3720   -4.6260 O.2   448  LYS448     -0.2867
    180  CB        31.4690   -3.3410   -4.7640 C.3   448  LYS448      0.0271
    181  CG        32.0070   -2.1130   -4.0340 C.3   448  LYS448      0.0035
    182  CD        30.9210   -1.4130   -3.2050 C.3   448  LYS448      0.0206
    183  CE        30.6500   -2.1410   -1.8870 C.3   448  LYS448      0.1093
    184  NZ        29.9500   -1.2670   -0.8980 N.3   448  LYS448     -0.1314
    185  N         23.9340   -4.7980   -2.6830 N.3   483  TYR483     -0.1241
    186  CA        22.9660   -3.7810   -2.2790 C.3   483  TYR483      0.1605
    187  C         23.6750   -2.5660   -1.6890 C.2   483  TYR483      0.2264
    188  O         24.8830   -2.6070   -1.4450 O.2   483  TYR483     -0.2867
    189  CB        21.9730   -4.3650   -1.2720 C.3   483  TYR483      0.0534
    190  CG        20.9400   -5.2680   -1.9050 C.ar  483  TYR483     -0.0201
    191  CD1       19.7160   -4.7600   -2.3390 C.ar  483  TYR483     -0.0009
    192  CD2       21.1900   -6.6280   -2.0850 C.ar  483  TYR483     -0.0009
    193  CE1       18.7620   -5.5890   -2.9300 C.ar  483  TYR483      0.0417
    194  CE2       20.2460   -7.4630   -2.6730 C.ar  483  TYR483      0.0417
    195  CZ        19.0330   -6.9400   -3.0920 C.ar  483  TYR483      0.1957
    196  OH        18.0940   -7.7670   -3.6850 O.3   483  TYR483     -0.2866
@<TRIPOS>BOND
     1   176   177    1
     2   177   180    1
     3   177   178    1
     4   180   181    1
     5   179   178    2
     6   181   182    1
     7   196   195    1
     8    42    43    1
     9    42    45    1
    10    42    41    1
    11    43    44    2
    12   182   183    1
    13    46    45    1
    14    46    47    1
    15   195   193   ar
    16   195   194   ar
    17   193   191   ar
    18   185   186    1
    19   194   192   ar
    20    48    47    1
    21    48    49    1
    22   191   190   ar
    23   186   187    1
    24   186   189    1
    25   192   190   ar
    26   190   189    1
    27   183   184    1
    28   187   188    2
    29    35    34    2
    30    67    66    1
    31    34    33    1
    32    75    76    1
    33    75    74    1
    34    76    77    2
    35    79    77    1
    36    73    74    1
    37    73    70    1
    38    77    78    1
    39    66    65    1
    40    66    68    1
    41    65    62    1
    42    33    36    1
    43    33    32    1
    44    36    37    1
    45    72    71    2
    46    39    38   ar
    47    69    70    1
    48    69    63   am
    49    70    71    1
    50    20    18   ar
    51    71    80   am
    52   112   113    1
    53    63    62    1
    54    63    64    2
    55    62    61    1
    56    37    38    1
    57    38    40   ar
    58    17    18    1
    59    17    16    1
    60   175   173    1
    61    61    52   am
    62    18    19   ar
    63    12    13    1
    64     1     2    1
    65   173   174    1
    66   173   172    2
    67    80    81    1
    68   113   116    1
    69   113   114    1
    70   116   117    1
    71    13    16    1
    72    13    14    1
    73    50    51    1
    74    81    82    1
    75    81    84    1
    76     2     3    1
    77     2     5    1
    78   172   171    1
    79    52    51    1
    80    52    53    2
    81     3     4    2
    82    86    84    1
    83    82    83    2
    84     9     7   ar
    85     9    11   ar
    86     7     6   ar
    87    57    59   ar
    88    57    55   ar
    89   171   170    1
    90    51    54    1
    91    24    23    2
    92   114   115    2
    93   114   121   am
    94    54    55    1
    95   170   169    1
    96    84    85    1
    97    23    22    1
    98   120   118   am
    99   117   118    1
   100    59    60   ar
   101    14    15    2
   102    11    10   ar
   103     6     5    1
   104     6     8   ar
   105    55    56   ar
   106   118   119    2
   107   121   122    1
   108   168   167    2
   109    10     8   ar
   110   169   166    1
   111    25    22    1
   112    25    26    1
   113    22    21    1
   114    60    58   ar
   115   122   123    1
   116   166   167    1
   117   166   165    1
   118    56    58   ar
   119    27    26    1
   120    27    28    1
   121    30    29    1
   122   123   125   am
   123   123   124    2
   124    96    94   ar
   125    96    97   ar
   126    94    92   ar
   127   125   126    1
   128    28    29    2
   129    29    31    1
   130   128   127    2
   131   134   133    1
   132   163   162    1
   133    91    92    1
   134    91    88    1
   135    97    95   ar
   136    92    93   ar
   137   135   133    1
   138   127   126    1
   139   127   129   am
   140    87    88    1
   141   133   130    1
   142    88    89    1
   143    93    95   ar
   144   162   164    1
   145   162   159    1
   146   144   142   ar
   147   144   145   ar
   148   130   129    1
   149   130   131    1
   150   161   160    2
   151   142   141   ar
   152   160   159    1
   153   145   143   ar
   154   159   158    1
   155   158   152   am
   156    89    90    2
   157   131   132    2
   158   156   155    1
   159   141   143   ar
   160   141   140    1
   161   110   108   ar
   162   110   111   ar
   163   149   148    2
   164   108   105   ar
   165   152   151    1
   166   152   153    2
   167   151   154    1
   168   151   150    1
   169   155   154    1
   170   155   157    1
   171   111   109   ar
   172   140   137    1
   173   148   150   am
   174   148   147    1
   175   137   136    1
   176   137   138    1
   177   105   103   ar
   178   105   107   ar
   179   102   103    1
   180   102    99    1
   181   147   146    1
   182   109   107   ar
   183   103   104   ar
   184    98    99    1
   185   107   106   ar
   186    99   100    1
   187   138   139    2
   188   104   106   ar
   189   100   101    2
