@<TRIPOS>MOLECULE
tmp/4hvhA00.pdb
 143 135 0 0 0
SMALL
GASTEIGER

@<TRIPOS>ATOM
      1  N          2.8490  -18.9870    1.2830 N.3    15  LEU15      -0.1231
      2  CA         2.1180  -19.0130    0.0060 C.3    15  LEU15       0.1696
      3  C          2.9940  -19.4860   -1.1520 C.2    15  LEU15       0.2632
      4  O          2.5130  -20.1460   -2.0610 O.2    15  LEU15      -0.2714
      5  CB         1.4840  -17.6480   -0.3160 C.3    15  LEU15       0.0284
      6  CG         0.3260  -17.1930    0.5800 C.3    15  LEU15       0.0019
      7  CD1       -0.1290  -15.7770    0.2140 C.3    15  LEU15       0.0001
      8  CD2       -0.8460  -18.1840    0.5390 C.3    15  LEU15       0.0001
      9  N          4.2750  -19.1240   -1.1080 N.am   16  GLY16      -0.1718
     10  CA         5.2210  -19.4910   -2.1490 C.2    16  GLY16       0.1480
     11  C          6.6600  -19.0840   -1.8960 C.2    16  GLY16       0.2820
     12  O          6.9810  -18.3960   -0.9160 O.2    16  GLY16      -0.2669
     13  N          7.5300  -19.5310   -2.7970 N.am   17  LYS17      -0.1943
     14  CA         8.9590  -19.2290   -2.7590 C.3    17  LYS17       0.1599
     15  C          9.3840  -18.7700   -4.1560 C.2    17  LYS17       0.2287
     16  O          8.5970  -18.8550   -5.1100 O.2    17  LYS17      -0.2864
     17  CB         9.7700  -20.4700   -2.3620 C.3    17  LYS17       0.0298
     18  CG         9.4310  -21.0730   -1.0090 C.3    17  LYS17       0.0038
     19  CD        10.1120  -22.4370   -0.8330 C.3    17  LYS17       0.0206
     20  CE         9.7590  -23.0690    0.5210 C.3    17  LYS17       0.1093
     21  NZ        10.6280  -24.2440    0.8810 N.3    17  LYS17      -0.1314
     22  N          6.6360  -15.3640   -0.1900 N.3    23  VAL23      -0.1245
     23  CA         5.3270  -14.7690    0.0140 C.3    23  VAL23       0.1561
     24  C          4.6000  -15.5750    1.0920 C.2    23  VAL23       0.2260
     25  O          4.4720  -16.8000    0.9910 O.2    23  VAL23      -0.2867
     26  CB         4.4970  -14.7350   -1.2930 C.3    23  VAL23       0.0252
     27  CG1        3.1870  -13.9670   -1.0900 C.3    23  VAL23       0.0019
     28  CG2        5.3070  -14.1020   -2.4060 C.3    23  VAL23       0.0019
     29  N         -1.1370  -10.8650    1.6760 N.3    40  ALA40      -0.1245
     30  CA         0.0450  -11.5860    1.2400 C.3    40  ALA40       0.1562
     31  C          1.2500  -10.6800    1.4450 C.2    40  ALA40       0.2260
     32  O          1.2180   -9.4930    1.0850 O.2    40  ALA40      -0.2867
     33  CB        -0.0860  -12.0370   -0.2140 C.3    40  ALA40       0.0290
     34  N          5.4270  -10.2530    1.0280 N.3    42  LYS42      -0.1245
     35  CA         6.6890  -10.6490    0.4200 C.3    42  LYS42       0.1561
     36  C          7.8740  -10.0610    1.1810 C.2    42  LYS42       0.2260
     37  O          7.9160   -8.8650    1.4830 O.2    42  LYS42      -0.2867
     38  CB         6.7490  -10.2150   -1.0410 C.3    42  LYS42       0.0271
     39  CG         7.9620  -10.7520   -1.8010 C.3    42  LYS42       0.0035
     40  CD         7.8090  -10.5650   -3.2970 C.3    42  LYS42       0.0206
     41  CE         8.9140  -11.2700   -4.0730 C.3    42  LYS42       0.1093
     42  NZ         8.6640  -11.2070   -5.5380 N.3    42  LYS42      -0.1314
     43  N         -2.3420   -7.6170   -9.5370 N.3    71  VAL71      -0.1245
     44  CA        -2.3520   -7.7750   -8.0740 C.3    71  VAL71       0.1561
     45  C         -2.1070   -6.4210   -7.3850 C.2    71  VAL71       0.2260
     46  O         -1.2370   -5.6410   -7.7860 O.2    71  VAL71      -0.2867
     47  CB        -1.3790   -8.9010   -7.5820 C.3    71  VAL71       0.0252
     48  CG1        0.0710   -8.5000   -7.7490 C.3    71  VAL71       0.0019
     49  CG2       -1.6610   -9.2710   -6.1440 C.3    71  VAL71       0.0019
     50  N          0.5330   -7.0310    0.0020 N.3    83  MET83      -0.1230
     51  CA        -0.3670   -7.1020   -1.1530 C.3    83  MET83       0.1702
     52  C         -1.7110   -7.6770   -0.7640 C.2    83  MET83       0.2592
     53  O         -1.8590   -8.2740    0.2970 O.2    83  MET83      -0.2718
     54  CB         0.2230   -7.9990   -2.2460 C.3    83  MET83       0.0401
     55  CG         1.5200   -7.4970   -2.8330 C.3    83  MET83       0.0596
     56  SD         2.3230   -8.8110   -3.7280 S.3    83  MET83      -0.1393
     57  CE         2.9710   -9.8200   -2.4000 C.3    83  MET83       0.0692
     58  N         -2.6920   -7.5030   -1.6370 N.am   84  GLU84      -0.1966
     59  CA        -3.9760   -8.1680   -1.4650 C.3    84  GLU84       0.1733
     60  C         -3.7890   -9.6840   -1.5570 C.2    84  GLU84       0.2616
     61  O         -2.9590  -10.1770   -2.3220 O.2    84  GLU84      -0.2715
     62  CB        -4.9750   -7.6920   -2.5150 C.3    84  GLU84       0.0429
     63  CG        -4.5950   -8.0240   -3.9460 C.3    84  GLU84       0.1163
     64  CD        -5.7040   -7.7230   -4.9140 C.2    84  GLU84       0.3649
     65  OE1       -6.8870   -7.7080   -4.5030 O.co2  84  GLU84      -0.2457
     66  OE2       -5.3960   -7.5040   -6.0970 O.co2  84  GLU84      -0.2457
     67  N         -4.5500  -10.4070   -0.7510 N.am   85  TYR85      -0.1960
     68  CA        -4.5200  -11.8570   -0.7420 C.3    85  TYR85       0.1771
     69  C         -5.6970  -12.3640   -1.5430 C.2    85  TYR85       0.2619
     70  O         -6.8340  -11.9210   -1.3470 O.2    85  TYR85      -0.2715
     71  CB        -4.5860  -12.3890    0.6960 C.3    85  TYR85       0.0574
     72  CG        -4.8130  -13.8820    0.7910 C.ar   85  TYR85      -0.0198
     73  CD1       -3.9130  -14.7780    0.2180 C.ar   85  TYR85      -0.0009
     74  CD2       -5.9210  -14.4000    1.4670 C.ar   85  TYR85      -0.0009
     75  CE1       -4.1140  -16.1600    0.3080 C.ar   85  TYR85       0.0417
     76  CE2       -6.1290  -15.7720    1.5580 C.ar   85  TYR85       0.0417
     77  CZ        -5.2150  -16.6410    0.9800 C.ar   85  TYR85       0.1957
     78  OH        -5.4020  -17.9940    1.0710 O.3    85  TYR85      -0.2866
     79  N         -5.4080  -13.2900   -2.4510 N.am   86  LEU86      -0.1964
     80  CA        -6.4090  -13.8890   -3.3140 C.3    86  LEU86       0.1713
     81  C         -6.4790  -15.3870   -2.9840 C.2    86  LEU86       0.2458
     82  O         -5.6230  -16.1640   -3.4180 O.2    86  LEU86      -0.2730
     83  CB        -6.0670  -13.6260   -4.8040 C.3    86  LEU86       0.0310
     84  CG        -6.6110  -12.3190   -5.4310 C.3    86  LEU86       0.0022
     85  CD1       -6.2470  -11.1130   -4.6210 C.3    86  LEU86       0.0001
     86  CD2       -6.1850  -12.0920   -6.8730 C.3    86  LEU86       0.0001
     87  N         -7.4890  -15.7960   -2.1920 N.am   87  PRO87      -0.2727
     88  CA        -7.5330  -17.1890   -1.6970 C.3    87  PRO87       0.1402
     89  C         -7.6630  -18.2520   -2.7850 C.2    87  PRO87       0.2269
     90  O         -7.3680  -19.4150   -2.5210 O.2    87  PRO87      -0.2865
     91  CB        -8.7660  -17.2170   -0.7820 C.3    87  PRO87       0.0296
     92  CG        -9.5800  -16.0420   -1.1820 C.3    87  PRO87       0.0237
     93  CD        -8.6260  -14.9960   -1.6920 C.3    87  PRO87       0.0939
     94  N         -5.8820  -18.6130   -5.4240 N.3    89  GLY89      -0.1210
     95  CA        -4.5540  -19.0940   -5.7870 C.3    89  GLY89       0.1956
     96  C         -4.1710  -18.7990   -7.2180 C.2    89  GLY89       0.2612
     97  O         -4.7730  -17.9460   -7.8640 O.2    89  GLY89      -0.2717
     98  N         -3.1540  -19.4880   -7.7200 N.am   90  CYS90      -0.1970
     99  CA        -2.7320  -19.2310   -9.0830 C.3    90  CYS90       0.1712
    100  C         -3.6530  -19.9050  -10.0920 C.2    90  CYS90       0.2296
    101  O         -4.2570  -20.9330   -9.8070 O.2    90  CYS90      -0.2864
    102  CB        -1.2570  -19.5640   -9.3110 C.3    90  CYS90       0.0983
    103  SG        -0.8230  -21.2830   -9.3240 S.3    90  CYS90      -0.0798
    104  N          1.3330  -19.8360  -13.7190 N.3   134  ARG134     -0.1231
    105  CA         1.7390  -19.9040  -12.3100 C.3   134  ARG134      0.1694
    106  C          1.8060  -18.5250  -11.6210 C.2   134  ARG134      0.2592
    107  O          1.6480  -18.4290  -10.3930 O.2   134  ARG134     -0.2718
    108  CB         3.0780  -20.6500  -12.1710 C.3   134  ARG134      0.0321
    109  CG         4.2560  -19.9400  -12.8320 C.3   134  ARG134      0.0489
    110  CD         5.6160  -20.6540  -12.6660 C.3   134  ARG134      0.2205
    111  NE         6.6480  -19.9110  -13.4080 N.pl3 134  ARG134     -0.0865
    112  CZ         7.1160  -20.2410  -14.6140 C.cat 134  ARG134      0.5346
    113  NH1        6.6990  -21.3460  -15.2430 N.pl3 134  ARG134      0.1354
    114  NH2        8.0370  -19.4730  -15.1870 N.pl3 134  ARG134      0.1354
    115  N          2.0210  -17.4730  -12.4160 N.am  135  ASN135     -0.1974
    116  CA         2.1080  -16.0880  -11.9340 C.3   135  ASN135      0.1688
    117  C          0.8300  -15.2580  -12.1420 C.2   135  ASN135      0.2292
    118  O          0.7950  -14.0510  -11.8740 O.2   135  ASN135     -0.2864
    119  CB         3.3120  -15.4050  -12.5760 C.3   135  ASN135      0.1181
    120  CG         4.6260  -15.9340  -12.0330 C.2   135  ASN135      0.2629
    121  OD1        4.6950  -16.3480  -10.8700 O.2   135  ASN135     -0.2716
    122  ND2        5.6780  -15.9250  -12.8630 N.am  135  ASN135     -0.0877
    123  N         -3.0530  -14.7740  -10.9250 N.3   137  LEU137     -0.1245
    124  CA        -3.8980  -15.1100   -9.7920 C.3   137  LEU137      0.1561
    125  C         -5.3760  -15.0030  -10.1460 C.2   137  LEU137      0.2260
    126  O         -5.7460  -14.2760  -11.0490 O.2   137  LEU137     -0.2867
    127  CB        -3.5490  -14.2240   -8.5940 C.3   137  LEU137      0.0270
    128  CG        -2.1040  -14.3400   -8.1160 C.3   137  LEU137      0.0019
    129  CD1       -1.8390  -13.3290   -7.0250 C.3   137  LEU137      0.0001
    130  CD2       -1.7910  -15.7690   -7.6470 C.3   137  LEU137      0.0001
    131  N          0.5960  -11.2890  -11.4590 N.3   147  ALA147     -0.1231
    132  CA         1.3800  -11.1370  -10.2350 C.3   147  ALA147      0.1694
    133  C          2.8500  -11.4680  -10.4520 C.2   147  ALA147      0.2592
    134  O          3.2780  -11.7430  -11.5770 O.2   147  ALA147     -0.2718
    135  CB         0.8000  -12.0190   -9.1230 C.3   147  ALA147      0.0304
    136  N          3.6030  -11.4680   -9.3490 N.am  148  ASP148     -0.1974
    137  CA         5.0510  -11.7210   -9.3280 C.3   148  ASP148      0.1709
    138  C          5.8270  -10.7930  -10.2570 C.2   148  ASP148      0.2293
    139  O          6.0960  -11.1240  -11.4090 O.2   148  ASP148     -0.2864
    140  CB         5.3760  -13.1780   -9.6430 C.3   148  ASP148      0.1436
    141  CG         6.7830  -13.5710   -9.2250 C.2   148  ASP148      0.3671
    142  OD1        7.0370  -14.7900   -9.1600 O.co2 148  ASP148     -0.2456
    143  OD2        7.6390  -12.6890   -8.9650 O.co2 148  ASP148     -0.2456
@<TRIPOS>BOND
     1   113   112    1
     2   114   112    1
     3   112   111    2
     4   104   105    1
     5   111   110    1
     6   122   120   am
     7   109   110    1
     8   109   108    1
     9   119   120    1
    10   119   116    1
    11   115   116    1
    12   115   106   am
    13   105   108    1
    14   105   106    1
    15   117   116    1
    16   117   118    2
    17   120   121    2
    18   106   107    2
    19   134   133    2
    20   131   132    1
    21   139   138    2
    22   126   125    2
    23   123   124    1
    24   133   132    1
    25   133   136   am
    26   138   137    1
    27   132   135    1
    28   125   124    1
    29   100   101    2
    30   100    99    1
    31   124   127    1
    32   140   137    1
    33   140   141    1
    34    43    44    1
    35   136   137    1
    36   103   102    1
    37   102    99    1
    38   141   142   ar
    39   141   143   ar
    40    99    98    1
    41   127   128    1
    42   128   130    1
    43   128   129    1
    44    44    47    1
    45    44    45    1
    46    97    96    2
    47    46    45    2
    48    48    47    1
    49    98    96   am
    50    47    49    1
    51    96    95    1
    52    86    84    1
    53    66    64   ar
    54    95    94    1
    55    42    41    1
    56    84    83    1
    57    84    85    1
    58    16    15    2
    59    64    65   ar
    60    64    63    1
    61    83    80    1
    62    15    14    1
    63    41    40    1
    64    63    62    1
    65    56    55    1
    66    56    57    1
    67    82    81    2
    68    80    81    1
    69    80    79    1
    70    40    39    1
    71    81    87   am
    72    55    54    1
    73    13    14    1
    74    13    11   am
    75    89    90    2
    76    89    88    1
    77    14    17    1
    78    62    59    1
    79    79    69   am
    80    28    26    1
    81    17    18    1
    82    61    60    2
    83    54    51    1
    84    87    88    1
    85    87    93    1
    86    10    11    1
    87    10     9    2
    88     4     3    2
    89    11    12    2
    90    39    38    1
    91    88    91    1
    92    93    92    1
    93    58    59    1
    94    58    52   am
    95    60    59    1
    96    60    67   am
    97    69    70    2
    98    69    68    1
    99    26    27    1
   100    26    23    1
   101    92    91    1
   102    51    52    1
   103    51    50    1
   104     3     9    1
   105     3     2    1
   106    38    35    1
   107    18    19    1
   108    19    20    1
   109    52    53    2
   110    67    68    1
   111    68    71    1
   112     5     2    1
   113     5     6    1
   114    33    30    1
   115    22    23    1
   116     2     1    1
   117    23    24    1
   118     7     6    1
   119    73    75   ar
   120    73    72   ar
   121    75    77   ar
   122    35    34    1
   123    35    36    1
   124    20    21    1
   125     8     6    1
   126    71    72    1
   127    72    74   ar
   128    77    78    1
   129    77    76   ar
   130    25    24    2
   131    32    31    2
   132    36    37    2
   133    30    31    1
   134    30    29    1
   135    74    76   ar
