@<TRIPOS>MOLECULE
tmp/4hviA00.pdb
 152 142 0 0 0
SMALL
GASTEIGER

@<TRIPOS>ATOM
      1  N          2.5590  -19.3220    1.2370 N.3    14  LEU14      -0.1231
      2  CA         1.8410  -19.3740   -0.0530 C.3    14  LEU14       0.1693
      3  C          2.7300  -19.7950   -1.2340 C.2    14  LEU14       0.2593
      4  O          2.2980  -20.5300   -2.1070 O.2    14  LEU14      -0.2718
      5  CB         1.1730  -18.0280   -0.3660 C.3    14  LEU14       0.0284
      6  CG         0.1170  -17.5130    0.6230 C.3    14  LEU14       0.0019
      7  CD1       -0.2600  -16.0700    0.3000 C.3    14  LEU14       0.0001
      8  CD2       -1.1210  -18.4150    0.6720 C.3    14  LEU14       0.0001
      9  N          3.9650  -19.3130   -1.2680 N.am   15  GLY15      -0.1942
     10  CA         4.8740  -19.6640   -2.3470 C.3    15  GLY15       0.2014
     11  C          6.3310  -19.4440   -2.0190 C.2    15  GLY15       0.2639
     12  O          6.6750  -18.6290   -1.1520 O.2    15  GLY15      -0.2714
     13  N          7.1870  -20.1860   -2.7170 N.am   16  LYS16      -0.1963
     14  CA         8.6500  -20.0460   -2.6100 C.3    16  LYS16       0.1728
     15  C          9.2020  -19.8590   -4.0160 C.2    16  LYS16       0.2617
     16  O          8.7180  -20.4850   -4.9670 O.2    16  LYS16      -0.2715
     17  CB         9.2860  -21.2910   -1.9800 C.3    16  LYS16       0.0311
     18  CG         8.6660  -21.7330   -0.6430 C.3    16  LYS16       0.0038
     19  CD         9.1070  -23.1640   -0.2260 C.3    16  LYS16       0.0206
     20  CE        10.5350  -23.1720    0.3850 C.3    16  LYS16       0.1093
     21  NZ        10.7860  -24.2870    1.3630 N.3    16  LYS16      -0.1314
     22  N         10.2060  -19.0050   -4.1630 N.am   17  GLY17      -0.1940
     23  CA        10.7880  -18.8180   -5.4770 C.3    17  GLY17       0.2014
     24  C         11.8610  -17.7680   -5.5030 C.2    17  GLY17       0.2638
     25  O         11.6410  -16.6320   -5.0600 O.2    17  GLY17      -0.2714
     26  N         13.0070  -18.1690   -6.0560 N.am   18  ASN18      -0.1972
     27  CA        14.2300  -17.3690   -6.1430 C.3    18  ASN18       0.1688
     28  C         14.3340  -16.2200   -5.1350 C.2    18  ASN18       0.2292
     29  O         13.8150  -15.1100   -5.3560 O.2    18  ASN18      -0.2864
     30  CB        14.4890  -16.8970   -7.5900 C.3    18  ASN18       0.1181
     31  CG        13.6600  -15.6780   -7.9730 C.2    18  ASN18       0.2629
     32  OD1       12.4810  -15.5850   -7.6280 O.2    18  ASN18      -0.2716
     33  ND2       14.2800  -14.7320   -8.6860 N.am   18  ASN18      -0.0877
     34  N         13.0250  -15.2210   -2.5460 N.3    20  GLY20      -0.1225
     35  CA        11.8700  -14.6910   -1.8210 C.3    20  GLY20       0.1811
     36  C         10.7250  -15.6470   -1.5540 C.2    20  GLY20       0.2280
     37  O         10.5430  -16.6470   -2.2400 O.2    20  GLY20      -0.2866
     38  N          6.3380  -15.6990   -0.4760 N.3    22  VAL22      -0.1245
     39  CA         5.0800  -15.0400   -0.1610 C.3    22  VAL22       0.1561
     40  C          4.3430  -15.8290    0.9250 C.2    22  VAL22       0.2260
     41  O          4.1960  -17.0560    0.8400 O.2    22  VAL22      -0.2867
     42  CB         4.2010  -14.8340   -1.4080 C.3    22  VAL22       0.0252
     43  CG1        2.8730  -14.1620   -1.0500 C.3    22  VAL22       0.0019
     44  CG2        4.9470  -13.9890   -2.4250 C.3    22  VAL22       0.0019
     45  N         -1.3680  -10.8750    1.6880 N.3    39  ALA39      -0.1245
     46  CA        -0.2200  -11.6470    1.2250 C.3    39  ALA39       0.1562
     47  C          1.0330  -10.8060    1.4210 C.2    39  ALA39       0.2260
     48  O          1.0570   -9.6120    1.0820 O.2    39  ALA39      -0.2867
     49  CB        -0.3940  -12.0410   -0.2250 C.3    39  ALA39       0.0290
     50  N          5.1530  -10.4200    0.8470 N.3    41  LYS41      -0.1245
     51  CA         6.3860  -10.8380    0.2190 C.3    41  LYS41       0.1561
     52  C          7.5740  -10.2900    0.9660 C.2    41  LYS41       0.2260
     53  O          7.5690   -9.1360    1.3900 O.2    41  LYS41      -0.2867
     54  CB         6.4460  -10.4050   -1.2380 C.3    41  LYS41       0.0271
     55  CG         7.6850  -10.9330   -1.9470 C.3    41  LYS41       0.0035
     56  CD         7.5050  -11.0380   -3.4420 C.3    41  LYS41       0.0206
     57  CE         8.8460  -11.3020   -4.1210 C.3    41  LYS41       0.1093
     58  NZ         8.7010  -11.2920   -5.6030 N.3    41  LYS41      -0.1314
     59  N         -2.3030   -7.5580   -9.5860 N.3    68  VAL68      -0.1245
     60  CA        -2.3800   -7.7500   -8.1340 C.3    68  VAL68       0.1561
     61  C         -2.1590   -6.4030   -7.4180 C.2    68  VAL68       0.2260
     62  O         -1.3040   -5.6160   -7.8130 O.2    68  VAL68      -0.2867
     63  CB        -1.3930   -8.8340   -7.6350 C.3    68  VAL68       0.0252
     64  CG1        0.0560   -8.3330   -7.6770 C.3    68  VAL68       0.0019
     65  CG2       -1.7630   -9.2670   -6.2370 C.3    68  VAL68       0.0019
     66  N          0.3750   -7.0410    0.1010 N.3    80  MET80      -0.1230
     67  CA        -0.4880   -7.1150   -1.0650 C.3    80  MET80       0.1702
     68  C         -1.8450   -7.7140   -0.6940 C.2    80  MET80       0.2592
     69  O         -2.0020   -8.3860    0.3350 O.2    80  MET80      -0.2718
     70  CB         0.1430   -8.0300   -2.1360 C.3    80  MET80       0.0401
     71  CG         1.3990   -7.5090   -2.8260 C.3    80  MET80       0.0596
     72  SD         2.2740   -8.7990   -3.7710 S.3    80  MET80      -0.1393
     73  CE         2.9540   -9.8240   -2.4570 C.3    80  MET80       0.0692
     74  N         -2.8270   -7.5140   -1.5640 N.am   81  GLU81      -0.1966
     75  CA        -4.0930   -8.1940   -1.3860 C.3    81  GLU81       0.1733
     76  C         -3.8440   -9.6900   -1.5110 C.2    81  GLU81       0.2616
     77  O         -2.9290  -10.1390   -2.2220 O.2    81  GLU81      -0.2715
     78  CB        -5.1360   -7.7300   -2.3930 C.3    81  GLU81       0.0429
     79  CG        -4.7600   -8.0560   -3.8100 C.3    81  GLU81       0.1163
     80  CD        -5.8370   -7.7200   -4.8000 C.2    81  GLU81       0.3649
     81  OE1       -7.0370   -7.6750   -4.4300 O.co2  81  GLU81      -0.2457
     82  OE2       -5.4690   -7.5180   -5.9680 O.co2  81  GLU81      -0.2457
     83  N         -4.6480  -10.4390   -0.7680 N.am   82  TYR82      -0.1960
     84  CA        -4.5880  -11.8690   -0.7570 C.3    82  TYR82       0.1771
     85  C         -5.7410  -12.3760   -1.6080 C.2    82  TYR82       0.2619
     86  O         -6.8870  -11.9780   -1.4060 O.2    82  TYR82      -0.2715
     87  CB        -4.6780  -12.3880    0.6790 C.3    82  TYR82       0.0574
     88  CG        -4.9020  -13.8780    0.7850 C.ar   82  TYR82      -0.0198
     89  CD1       -4.0110  -14.7740    0.1960 C.ar   82  TYR82      -0.0009
     90  CD2       -6.0010  -14.3960    1.4840 C.ar   82  TYR82      -0.0009
     91  CE1       -4.2030  -16.1390    0.2830 C.ar   82  TYR82       0.0417
     92  CE2       -6.2040  -15.7780    1.5750 C.ar   82  TYR82       0.0417
     93  CZ        -5.2870  -16.6350    0.9670 C.ar   82  TYR82       0.1957
     94  OH        -5.4320  -17.9980    1.0330 O.3    82  TYR82      -0.2866
     95  N         -5.4160  -13.2190   -2.5870 N.am   83  LEU83      -0.1977
     96  CA        -6.4200  -13.8430   -3.4450 C.3    83  LEU83       0.1596
     97  C         -6.4680  -15.3310   -3.1020 C.2    83  LEU83       0.2287
     98  O         -5.5360  -16.0870   -3.4570 O.2    83  LEU83      -0.2864
     99  CB        -6.0920  -13.6230   -4.9280 C.3    83  LEU83       0.0297
    100  CG        -6.3620  -12.2290   -5.5180 C.3    83  LEU83       0.0022
    101  CD1       -5.5080  -11.2190   -4.8480 C.3    83  LEU83       0.0001
    102  CD2       -6.0550  -12.1750   -7.0180 C.3    83  LEU83       0.0001
    103  N         -5.6850  -18.5680   -5.3750 N.3    86  GLY86      -0.1210
    104  CA        -4.3300  -18.9880   -5.7500 C.3    86  GLY86       0.1956
    105  C         -4.0630  -18.7450   -7.2210 C.2    86  GLY86       0.2612
    106  O         -4.6780  -17.8790   -7.8280 O.2    86  GLY86      -0.2717
    107  N         -3.1410  -19.4910   -7.8020 N.am   87  CYS87      -0.1970
    108  CA        -2.7510  -19.1820   -9.1520 C.3    87  CYS87       0.1712
    109  C         -3.6170  -19.8910  -10.1780 C.2    87  CYS87       0.2296
    110  O         -4.1940  -20.9330   -9.9150 O.2    87  CYS87      -0.2864
    111  CB        -1.2640  -19.4260   -9.3800 C.3    87  CYS87       0.0983
    112  SG        -0.8120  -21.1110   -9.3010 S.3    87  CYS87      -0.0798
    113  N          1.4430  -19.6460  -13.6670 N.3   131  ARG131     -0.1231
    114  CA         1.7470  -19.8380  -12.2480 C.3   131  ARG131      0.1694
    115  C          1.8560  -18.4700  -11.5540 C.2   131  ARG131      0.2592
    116  O          1.7450  -18.3570  -10.3210 O.2   131  ARG131     -0.2718
    117  CB         3.0350  -20.6550  -12.0710 C.3   131  ARG131      0.0321
    118  CG         4.2940  -19.9790  -12.6280 C.3   131  ARG131      0.0489
    119  CD         5.5630  -20.8080  -12.4880 C.3   131  ARG131      0.2205
    120  NE         6.7240  -19.9050  -12.4280 N.pl3 131  ARG131     -0.0865
    121  CZ         7.4850  -19.5490  -13.4680 C.cat 131  ARG131      0.5346
    122  NH1        7.2530  -20.0420  -14.6910 N.pl3 131  ARG131      0.1354
    123  NH2        8.5000  -18.7070  -13.2740 N.pl3 131  ARG131      0.1354
    124  N          2.0450  -17.4400  -12.3830 N.am  132  ASN132     -0.1974
    125  CA         2.2150  -16.0460  -11.9440 C.3   132  ASN132      0.1688
    126  C          0.9760  -15.1770  -12.1470 C.2   132  ASN132      0.2292
    127  O          1.0040  -13.9740  -11.8870 O.2   132  ASN132     -0.2864
    128  CB         3.4100  -15.4350  -12.6650 C.3   132  ASN132      0.1181
    129  CG         4.7180  -15.9540  -12.1260 C.2   132  ASN132      0.2629
    130  OD1        4.7930  -16.3730  -10.9640 O.2   132  ASN132     -0.2716
    131  ND2        5.7650  -15.9200  -12.9500 N.am  132  ASN132     -0.0877
    132  N         -2.8270  -14.6640  -10.8980 N.3   134  LEU134     -0.1245
    133  CA        -3.6680  -15.0020   -9.7600 C.3   134  LEU134      0.1561
    134  C         -5.1210  -14.8770  -10.1430 C.2   134  LEU134      0.2260
    135  O         -5.4610  -14.1240  -11.0490 O.2   134  LEU134     -0.2867
    136  CB        -3.3840  -14.0820   -8.5800 C.3   134  LEU134      0.0270
    137  CG        -1.9440  -14.0030   -8.1030 C.3   134  LEU134      0.0019
    138  CD1       -1.8780  -13.0240   -6.9520 C.3   134  LEU134      0.0001
    139  CD2       -1.3770  -15.3770   -7.7190 C.3   134  LEU134      0.0001
    140  N          0.5920  -11.2100  -11.4920 N.3   144  ALA144     -0.1231
    141  CA         1.3960  -11.0380  -10.2870 C.3   144  ALA144      0.1694
    142  C          2.8670  -11.3050  -10.5990 C.2   144  ALA144      0.2592
    143  O          3.2370  -11.4050  -11.7720 O.2   144  ALA144     -0.2718
    144  CB         0.9180  -11.9640   -9.2040 C.3   144  ALA144      0.0304
    145  N          3.6840  -11.3990   -9.5400 N.am  145  ASP145     -0.1974
    146  CA         5.1270  -11.7040   -9.6090 C.3   145  ASP145      0.1709
    147  C          5.9540  -10.7230  -10.4530 C.2   145  ASP145      0.2293
    148  O          6.3000  -11.0110  -11.6030 O.2   145  ASP145     -0.2864
    149  CB         5.3720  -13.1610  -10.0430 C.3   145  ASP145      0.1436
    150  CG         6.8710  -13.5510  -10.0380 C.2   145  ASP145      0.3671
    151  OD1        7.2440  -14.4490  -10.8340 O.co2 145  ASP145     -0.2456
    152  OD2        7.6730  -12.9640   -9.2590 O.co2 145  ASP145     -0.2456
@<TRIPOS>BOND
     1   122   121    1
     2   113   114    1
     3   121   123    1
     4   121   120    2
     5   131   129   am
     6   128   129    1
     7   128   125    1
     8   118   119    1
     9   118   117    1
    10   119   120    1
    11   124   125    1
    12   124   115   am
    13   114   117    1
    14   114   115    1
    15   126   125    1
    16   126   127    2
    17   129   130    2
    18   143   142    2
    19   148   147    2
    20   115   116    2
    21   140   141    1
    22   135   134    2
    23   132   133    1
    24   151   150   ar
    25   142   141    1
    26   142   145   am
    27   147   146    1
    28   141   144    1
    29   109   110    2
    30   109   108    1
    31   134   133    1
    32   149   150    1
    33   149   146    1
    34   150   152   ar
    35   133   136    1
    36   146   145    1
    37    59    60    1
    38   111   112    1
    39   111   108    1
    40   108   107    1
    41    33    31   am
    42   136   137    1
    43    60    63    1
    44    60    61    1
    45   137   139    1
    46   137   138    1
    47    31    32    2
    48    31    30    1
    49   106   105    2
    50    62    61    2
    51   107   105   am
    52    64    63    1
    53    63    65    1
    54    30    27    1
    55   105   104    1
    56   102   100    1
    57    27    26    1
    58    27    28    1
    59    26    24   am
    60    82    80   ar
    61   104   103    1
    62    58    57    1
    63   100    99    1
    64   100   101    1
    65    24    23    1
    66    24    25    2
    67    23    22    1
    68    29    28    2
    69    16    15    2
    70    99    96    1
    71    80    81   ar
    72    80    79    1
    73    22    15   am
    74    57    56    1
    75    15    14    1
    76    79    78    1
    77    72    71    1
    78    72    73    1
    79    98    97    2
    80    96    97    1
    81    96    95    1
    82    56    55    1
    83    71    70    1
    84    13    14    1
    85    13    11   am
    86    14    17    1
    87    95    85   am
    88    34    35    1
    89    44    42    1
    90    78    75    1
    91    10    11    1
    92    10     9    1
    93    37    36    2
    94    77    76    2
    95    70    67    1
    96     4     3    2
    97    11    12    2
    98    17    18    1
    99    55    54    1
   100    35    36    1
   101    85    86    2
   102    85    84    1
   103    74    75    1
   104    74    68   am
   105    76    75    1
   106    76    83   am
   107    42    43    1
   108    42    39    1
   109     9     3   am
   110    54    51    1
   111     3     2    1
   112    67    68    1
   113    67    66    1
   114    83    84    1
   115    84    87    1
   116    68    69    2
   117    18    19    1
   118    38    39    1
   119     5     2    1
   120     5     6    1
   121    19    20    1
   122    49    46    1
   123    39    40    1
   124     2     1    1
   125    89    91   ar
   126    89    88   ar
   127    51    50    1
   128    51    52    1
   129    91    93   ar
   130     7     6    1
   131    20    21    1
   132     6     8    1
   133    87    88    1
   134    88    90   ar
   135    41    40    2
   136    52    53    2
   137    93    94    1
   138    93    92   ar
   139    48    47    2
   140    46    47    1
   141    46    45    1
   142    90    92   ar
