@<TRIPOS>MOLECULE
tmp/4hvrA00.pdb
 145 134 0 0 0
SMALL
GASTEIGER

@<TRIPOS>ATOM
      1  N          7.7030   34.0310    2.6930 N.3    27  ASN27      -0.1240
      2  CA         8.0770   33.9570    4.1250 C.3    27  ASN27       0.1653
      3  C          9.0180   35.0780    4.6270 C.2    27  ASN27       0.2266
      4  O          9.2580   36.0490    3.9020 O.2    27  ASN27      -0.2867
      5  CB         8.6040   32.5490    4.4890 C.3    27  ASN27       0.1155
      6  CG        10.0380   32.2890    4.0250 C.2    27  ASN27       0.2627
      7  OD1       10.7040   33.1610    3.4710 O.2    27  ASN27      -0.2716
      8  ND2       10.5210   31.0660    4.2650 N.am   27  ASN27      -0.0877
      9  N         10.5920   32.0440   11.7440 N.3    39  THR39      -0.1218
     10  CA        10.0180   32.5680   10.5000 C.3    39  THR39       0.1862
     11  C          8.5090   32.6200   10.5950 C.2    39  THR39       0.2287
     12  O          7.8840   31.7730   11.2370 O.2    39  THR39      -0.2866
     13  CB        10.3120   31.6380    9.3110 C.3    39  THR39       0.1770
     14  OG1       10.8600   30.4040    9.7990 O.3    39  THR39      -0.2211
     15  CG2       11.2860   32.2450    8.3800 C.3    39  THR39       0.0375
     16  N          5.3150   32.2800    8.0080 N.3    41  VAL41      -0.1245
     17  CA         5.0660   31.7370    6.7060 C.3    41  VAL41       0.1561
     18  C          3.6360   32.1130    6.3400 C.2    41  VAL41       0.2260
     19  O          2.6800   31.8440    7.0900 O.2    41  VAL41      -0.2867
     20  CB         5.2550   30.2090    6.6910 C.3    41  VAL41       0.0252
     21  CG1        5.2800   29.7030    5.2720 C.3    41  VAL41       0.0019
     22  CG2        6.5520   29.8150    7.3720 C.3    41  VAL41       0.0019
     23  N          2.9270   23.6840   -2.5320 N.3    47  ARG47      -0.1245
     24  CA         4.1810   23.0840   -3.0300 C.3    47  ARG47       0.1563
     25  C          4.0850   21.5680   -3.1690 C.2    47  ARG47       0.2260
     26  O          3.2100   20.9220   -2.5800 O.2    47  ARG47      -0.2867
     27  CB         5.3430   23.4380   -2.1220 C.3    47  ARG47       0.0307
     28  CG         5.0690   23.1280   -0.6750 C.3    47  ARG47       0.0489
     29  CD         6.3630   23.2370    0.0730 C.3    47  ARG47       0.2205
     30  NE         7.2020   24.2040   -0.5930 N.pl3  47  ARG47      -0.0865
     31  CZ         8.3600   24.6530   -0.1290 C.cat  47  ARG47       0.5346
     32  NH1        8.8340   24.2310    1.0370 N.pl3  47  ARG47       0.1354
     33  NH2        9.0450   25.5400   -0.8500 N.pl3  47  ARG47       0.1354
     34  N          9.5820   17.7700    2.8260 N.3    51  HIS51      -0.1241
     35  CA        10.7690   18.0410    3.6200 C.3    51  HIS51       0.1621
     36  C         10.9790   16.9010    4.5390 C.2    51  HIS51       0.2264
     37  O         10.0280   16.3790    5.1260 O.2    51  HIS51      -0.2867
     38  CB        10.6380   19.3300    4.4250 C.3    51  HIS51       0.0745
     39  CG        11.9420   19.7840    5.0660 C.ar   51  HIS51       0.0817
     40  ND1       11.9860   20.6380    6.1120 N.ar   51  HIS51      -0.2268
     41  CD2       13.2690   19.4600    4.7770 C.ar   51  HIS51       0.1154
     42  CE1       13.2750   20.8720    6.4570 C.ar   51  HIS51       0.1986
     43  NE2       14.0560   20.1400    5.6520 N.ar   51  HIS51      -0.2212
     44  N         10.3170   20.5880   14.0840 N.3    57  GLU57      -0.1245
     45  CA         9.7450   21.8300   13.6070 C.3    57  GLU57       0.1567
     46  C          8.5140   22.1370   14.4720 C.2    57  GLU57       0.2260
     47  O          7.7120   21.2460   14.7720 O.2    57  GLU57      -0.2867
     48  CB         9.3450   21.7050   12.1260 C.3    57  GLU57       0.0388
     49  CG        10.4340   22.0680   11.1260 C.3    57  GLU57       0.1160
     50  CD        10.1330   21.5950    9.7120 C.2    57  GLU57       0.3649
     51  OE1        9.3410   22.2610    8.9930 O.co2  57  GLU57      -0.2457
     52  OE2       10.7100   20.5610    9.3020 O.co2  57  GLU57      -0.2457
     53  N          5.0690   24.4920   14.8740 N.3    59  PHE59      -0.1241
     54  CA         4.1370   25.3500   14.1380 C.3    59  PHE59       0.1605
     55  C          3.1490   25.9460   15.0550 C.2    59  PHE59       0.2264
     56  O          2.7740   25.3240   16.0300 O.2    59  PHE59      -0.2867
     57  CB         3.3470   24.5490   13.1170 C.3    59  PHE59       0.0534
     58  CG         4.2050   23.8590   12.1160 C.ar   59  PHE59      -0.0203
     59  CD1        4.4710   24.4630   10.9010 C.ar   59  PHE59      -0.0042
     60  CD2        4.7840   22.6170   12.4000 C.ar   59  PHE59      -0.0042
     61  CE1        5.3000   23.8470    9.9720 C.ar   59  PHE59      -0.0003
     62  CE2        5.5930   21.9870   11.4700 C.ar   59  PHE59      -0.0003
     63  CZ         5.8570   22.6080   10.2540 C.ar   59  PHE59      -0.0000
     64  N          6.8910   16.0840    5.2060 N.3    95  HIS95      -0.1241
     65  CA         5.8220   17.0680    5.2400 C.3    95  HIS95       0.1621
     66  C          5.8400   17.9900    4.0390 C.2    95  HIS95       0.2264
     67  O          6.9150   18.4250    3.5550 O.2    95  HIS95      -0.2867
     68  CB         5.8640   17.8430    6.5770 C.3    95  HIS95       0.0745
     69  CG         7.2320   18.4240    6.9010 C.ar   95  HIS95       0.0817
     70  ND1        8.3100   17.6450    7.2240 N.ar   95  HIS95      -0.2268
     71  CD2        7.6770   19.7370    6.9190 C.ar   95  HIS95       0.1154
     72  CE1        9.3790   18.4190    7.4220 C.ar   95  HIS95       0.1986
     73  NE2        9.0000   19.7020    7.2260 N.ar   95  HIS95      -0.2212
     74  N          3.8130   21.3810    3.2370 N.3    97  PRO97      -0.2116
     75  CA         2.9300   22.4030    3.8370 C.3    97  PRO97       0.1372
     76  C          2.2350   23.2050    2.7780 C.2    97  PRO97       0.2244
     77  O          2.8960   23.8240    1.9290 O.2    97  PRO97      -0.2868
     78  CB         3.8920   23.2810    4.6580 C.3    97  PRO97       0.0268
     79  CG         5.2200   23.0990    4.0080 C.3    97  PRO97       0.0207
     80  CD         5.2460   21.7410    3.3510 C.3    97  PRO97       0.0892
     81  N         -0.3920   26.2540    2.1310 N.3    99  ARG99      -0.1245
     82  CA        -1.0370   27.4250    2.7040 C.3    99  ARG99       0.1563
     83  C         -1.9060   28.0080    1.6220 C.2    99  ARG99       0.2260
     84  O         -1.4540   28.9060    0.8960 O.2    99  ARG99      -0.2867
     85  CB        -0.0040   28.4720    3.0740 C.3    99  ARG99       0.0307
     86  CG         1.2470   27.9080    3.7160 C.3    99  ARG99       0.0489
     87  CD         1.3940   28.3940    5.1480 C.3    99  ARG99       0.2205
     88  NE         2.5490   27.7740    5.7680 N.pl3  99  ARG99      -0.0865
     89  CZ         2.5230   27.1560    6.9360 C.cat  99  ARG99       0.5346
     90  NH1        1.3910   27.1110    7.6310 N.pl3  99  ARG99       0.1354
     91  NH2        3.6390   26.6050    7.4090 N.pl3  99  ARG99       0.1354
     92  N          6.7580   29.4650   12.4510 N.3   108  VAL108     -0.1245
     93  CA         7.4480   28.1850   12.3200 C.3   108  VAL108      0.1561
     94  C          8.8380   28.2510   12.9540 C.2   108  VAL108      0.2260
     95  O          9.6710   29.0810   12.5410 O.2   108  VAL108     -0.2867
     96  CB         7.5440   27.7880   10.8330 C.3   108  VAL108      0.0252
     97  CG1        8.3470   26.5170   10.6530 C.3   108  VAL108      0.0019
     98  CG2        6.1550   27.6200   10.2520 C.3   108  VAL108      0.0019
     99  N         12.5450   26.2950   14.2910 N.3   110  GLU110     -0.1245
    100  CA        13.5080   25.2220   13.9890 C.3   110  GLU110      0.1567
    101  C         14.9160   25.6640   14.3530 C.2   110  GLU110      0.2260
    102  O         15.1440   26.8470   14.5750 O.2   110  GLU110     -0.2867
    103  CB        13.4350   24.7730   12.5230 C.3   110  GLU110      0.0388
    104  CG        13.0060   25.8560   11.5270 C.3   110  GLU110      0.1160
    105  CD        12.8230   25.3480   10.0870 C.2   110  GLU110      0.3649
    106  OE1       11.9700   25.9280    9.3680 O.co2 110  GLU110     -0.2457
    107  OE2       13.5320   24.3960    9.6610 O.co2 110  GLU110     -0.2457
    108  N         20.8010   23.8050   11.5510 N.3   113  ARG113     -0.1245
    109  CA        21.4400   22.4640   11.4660 C.3   113  ARG113      0.1563
    110  C         22.9610   22.5820   11.5610 C.2   113  ARG113      0.2260
    111  O         23.5790   23.4100   10.8850 O.2   113  ARG113     -0.2867
    112  CB        21.0560   21.7150   10.1720 C.3   113  ARG113      0.0307
    113  CG        19.9830   20.6460   10.3100 C.3   113  ARG113      0.0489
    114  CD        18.6270   21.2390   10.6670 C.3   113  ARG113      0.2205
    115  NE        17.8340   21.8250    9.5760 N.pl3 113  ARG113     -0.0865
    116  CZ        16.6500   22.4140    9.7680 C.cat 113  ARG113      0.5346
    117  NH1       16.1140   22.5120   10.9860 N.pl3 113  ARG113      0.1354
    118  NH2       15.9800   22.9060    8.7580 N.pl3 113  ARG113      0.1354
    119  N         15.0240   16.5090    0.4690 N.3   121  PHE121     -0.1241
    120  CA        13.7880   16.8970   -0.2150 C.3   121  PHE121      0.1605
    121  C         13.3770   15.8140   -1.1890 C.2   121  PHE121      0.2264
    122  O         14.2100   15.1800   -1.8320 O.2   121  PHE121     -0.2867
    123  CB        13.8980   18.2610   -0.8850 C.3   121  PHE121      0.0534
    124  CG        13.9920   19.3730    0.0960 C.ar  121  PHE121     -0.0203
    125  CD1       12.8500   20.0460    0.4910 C.ar  121  PHE121     -0.0042
    126  CD2       15.2250   19.7060    0.6770 C.ar  121  PHE121     -0.0042
    127  CE1       12.9320   21.0580    1.4350 C.ar  121  PHE121     -0.0003
    128  CE2       15.3190   20.7140    1.6120 C.ar  121  PHE121     -0.0003
    129  CZ        14.1680   21.3930    1.9960 C.ar  121  PHE121     -0.0000
    130  N         21.7640   22.4280    4.7750 N.3   139  LEU139     -0.1245
    131  CA        21.0460   23.6780    4.6810 C.3   139  LEU139      0.1561
    132  C         21.7120   24.7750    5.5120 C.2   139  LEU139      0.2260
    133  O         21.7140   24.7130    6.7520 O.2   139  LEU139     -0.2867
    134  CB        19.6180   23.4430    5.1130 C.3   139  LEU139      0.0270
    135  CG        18.5920   24.4420    4.6100 C.3   139  LEU139      0.0019
    136  CD1       18.8610   24.8510    3.1710 C.3   139  LEU139      0.0001
    137  CD2       17.2240   23.7970    4.7280 C.3   139  LEU139      0.0001
    138  N         18.2100   26.9980   -1.4840 N.3   146  LEU146     -0.1245
    139  CA        16.9930   26.2150   -1.7630 C.3   146  LEU146      0.1561
    140  C         16.2390   26.3800   -3.1110 C.2   146  LEU146      0.2260
    141  O         15.8610   25.3750   -3.7200 O.2   146  LEU146     -0.2867
    142  CB        16.0290   26.2780   -0.5780 C.3   146  LEU146      0.0270
    143  CG        15.1200   25.0600   -0.4000 C.3   146  LEU146      0.0019
    144  CD1       15.9400   23.7800   -0.4680 C.3   146  LEU146      0.0001
    145  CD2       14.3590   25.1410    0.9130 C.3   146  LEU146      0.0001
@<TRIPOS>BOND
     1   141   140    2
     2    25    24    1
     3    25    26    2
     4   140   139    1
     5    24    23    1
     6    24    27    1
     7    27    28    1
     8   122   121    2
     9   139   138    1
    10   139   142    1
    11   121   120    1
    12   123   120    1
    13   123   124    1
    14    33    31    1
    15    28    29    1
    16    30    31    2
    17    30    29    1
    18   142   143    1
    19   144   143    1
    20   143   145    1
    21   120   119    1
    22    31    32    1
    23   124   125   ar
    24   124   126   ar
    25   125   127   ar
    26   126   128   ar
    27    84    83    2
    28   127   129   ar
    29   128   129   ar
    30    83    82    1
    31    77    76    2
    32    81    82    1
    33     1     2    1
    34    82    85    1
    35    76    75    1
    36    34    35    1
    37    85    86    1
    38   136   135    1
    39    74    80    1
    40    74    75    1
    41    80    79    1
    42     7     6    2
    43    67    66    2
    44    35    38    1
    45    35    36    1
    46    86    87    1
    47    75    78    1
    48     4     3    2
    49    79    78    1
    50     6     8   am
    51     6     5    1
    52    66    65    1
    53     2     5    1
    54     2     3    1
    55    38    39    1
    56    36    37    2
    57   135   137    1
    58   135   134    1
    59   131   130    1
    60   131   134    1
    61   131   132    1
    62    41    39   ar
    63    41    43   ar
    64    39    40   ar
    65    87    88    1
    66    64    65    1
    67    65    68    1
    68    21    20    1
    69   132   133    2
    70    43    42   ar
    71    88    89    2
    72    40    42   ar
    73    18    17    1
    74    18    19    2
    75    68    69    1
    76    20    17    1
    77    20    22    1
    78    17    16    1
    79    69    71   ar
    80    69    70   ar
    81    71    73   ar
    82    89    91    1
    83    89    90    1
    84    70    72   ar
    85    73    72   ar
    86    15    13    1
    87   118   116    1
    88    51    50   ar
    89    52    50   ar
    90    13    14    1
    91    13    10    1
    92   106   105   ar
    93   115   116    2
    94   115   114    1
    95   107   105   ar
    96    50    49    1
    97   116   117    1
    98    61    63   ar
    99    61    59   ar
   100   105   104    1
   101   112   113    1
   102   112   109    1
   103    98    96    1
   104    63    62   ar
   105   113   114    1
   106    10    11    1
   107    10     9    1
   108    11    12    2
   109    97    96    1
   110    96    93    1
   111   111   110    2
   112    59    58   ar
   113    49    48    1
   114   109   108    1
   115   109   110    1
   116    62    60   ar
   117   104   103    1
   118    58    60   ar
   119    58    57    1
   120    48    45    1
   121    93    92    1
   122    93    94    1
   123   103   100    1
   124    95    94    2
   125    57    54    1
   126    45    44    1
   127    45    46    1
   128   100    99    1
   129   100   101    1
   130    54    53    1
   131    54    55    1
   132   101   102    2
   133    46    47    2
   134    55    56    2
