@<TRIPOS>MOLECULE
tmp/4hvsA00.pdb
 195 184 0 0 0
SMALL
GASTEIGER

@<TRIPOS>ATOM
      1  N         22.4120   -8.4390    0.2090 N.3    10  TRP10      -0.1241
      2  CA        23.5620   -8.9620    0.9470 C.3    10  TRP10       0.1605
      3  C         23.8110  -10.4100    0.5030 C.2    10  TRP10       0.2264
      4  O         22.9630  -11.0120   -0.1540 O.2    10  TRP10      -0.2867
      5  CB        23.3540   -8.8730    2.4650 C.3    10  TRP10       0.0550
      6  CG        22.0890   -9.5760    3.0480 C.ar   10  TRP10       0.0003
      7  CD1       21.1400  -10.2940    2.3660 C.ar   10  TRP10       0.0946
      8  CD2       21.6740   -9.5620    4.4120 C.ar   10  TRP10       0.0152
      9  NE1       20.1610  -10.7430    3.2280 N.ar   10  TRP10      -0.2442
     10  CE2       20.4610  -10.3030    4.4940 C.ar   10  TRP10       0.0810
     11  CE3       22.2170   -9.0240    5.5830 C.ar   10  TRP10       0.0012
     12  CZ2       19.7900  -10.4930    5.6920 C.ar   10  TRP10       0.0191
     13  CZ3       21.5510   -9.2290    6.7780 C.ar   10  TRP10       0.0001
     14  CH2       20.3320   -9.9520    6.8190 C.ar   10  TRP10       0.0015
     15  N          7.1820    3.5590    7.9900 N.3    48  LEU48      -0.1245
     16  CA         8.5260    4.0200    8.2800 C.3    48  LEU48       0.1561
     17  C          9.3810    4.1920    7.0070 C.2    48  LEU48       0.2260
     18  O         10.3950    4.9140    7.0210 O.2    48  LEU48      -0.2867
     19  CB         9.2050    3.0400    9.2510 C.3    48  LEU48       0.0270
     20  CG         8.5750    2.8810   10.6520 C.3    48  LEU48       0.0019
     21  CD1        9.2800    1.7780   11.4580 C.3    48  LEU48       0.0001
     22  CD2        8.6050    4.2110   11.4500 C.3    48  LEU48       0.0001
     23  N          8.1240   -0.7070    5.1400 N.3    56  VAL56      -0.1245
     24  CA         8.3590   -1.0560    6.5270 C.3    56  VAL56       0.1561
     25  C          7.4180   -0.1910    7.3640 C.2    56  VAL56       0.2260
     26  O          7.3740    1.0260    7.1940 O.2    56  VAL56      -0.2867
     27  CB         9.8280   -0.8190    6.9310 C.3    56  VAL56       0.0252
     28  CG1        9.9990   -0.9610    8.4520 C.3    56  VAL56       0.0019
     29  CG2       10.7680   -1.8060    6.1630 C.3    56  VAL56       0.0019
     30  N          9.2470   -2.9730   14.0850 N.3    74  ALA74      -0.1245
     31  CA         9.1190   -2.5240   12.7070 C.3    74  ALA74       0.1562
     32  C          8.8850   -3.7890   11.8890 C.2    74  ALA74       0.2260
     33  O          9.5390   -4.8190   12.1270 O.2    74  ALA74      -0.2867
     34  CB        10.3920   -1.7920   12.2460 C.3    74  ALA74       0.0290
     35  N          8.6790   -5.4510    8.0380 N.3    76  LYS76      -0.1245
     36  CA         8.9110   -5.3130    6.6110 C.3    76  LYS76       0.1561
     37  C          7.9830   -6.2520    5.8460 C.2    76  LYS76       0.2260
     38  O          7.7990   -7.4130    6.2340 O.2    76  LYS76      -0.2867
     39  CB        10.3840   -5.5660    6.2230 C.3    76  LYS76       0.0271
     40  CG        10.6180   -5.3900    4.7100 C.3    76  LYS76       0.0035
     41  CD        12.0740   -5.6980    4.2440 C.3    76  LYS76       0.0206
     42  CE        13.0680   -4.6110    4.6370 C.3    76  LYS76       0.1093
     43  NZ        14.4730   -4.8400    4.0940 N.3    76  LYS76      -0.1314
     44  N         15.6760  -12.9150    2.6690 N.3    93  GLU93      -0.1245
     45  CA        16.1920  -11.9550    3.6530 C.3    93  GLU93       0.1567
     46  C         15.9360  -12.4590    5.0800 C.2    93  GLU93       0.2260
     47  O         16.8000  -12.3750    5.9430 O.2    93  GLU93      -0.2867
     48  CB        15.5170  -10.5950    3.4250 C.3    93  GLU93       0.0388
     49  CG        15.8840   -9.5270    4.4440 C.3    93  GLU93       0.1160
     50  CD        15.2860   -8.1860    4.0420 C.2    93  GLU93       0.3649
     51  OE1       14.9080   -7.4110    4.9250 O.co2  93  GLU93      -0.2457
     52  OE2       15.1830   -7.9300    2.8160 O.co2  93  GLU93      -0.2457
     53  N         18.6480  -13.5920    7.9780 N.3    97  LEU97      -0.1245
     54  CA        18.4870  -13.0800    9.3280 C.3    97  LEU97       0.1561
     55  C         18.4300  -14.2070   10.3790 C.2    97  LEU97       0.2260
     56  O         18.9920  -14.0720   11.4690 O.2    97  LEU97      -0.2867
     57  CB        17.2100  -12.2280    9.4290 C.3    97  LEU97       0.0270
     58  CG        17.2990  -10.7770    8.9370 C.3    97  LEU97       0.0019
     59  CD1       15.8560  -10.1440    8.7560 C.3    97  LEU97       0.0001
     60  CD2       18.0980   -9.9620    9.9190 C.3    97  LEU97       0.0001
     61  N         21.9670  -15.5050   10.6960 N.3   100  LEU100     -0.1245
     62  CA        22.9580  -14.6050   11.3110 C.3   100  LEU100      0.1561
     63  C         22.9210  -14.6670   12.8270 C.2   100  LEU100      0.2260
     64  O         23.9590  -14.6680   13.4690 O.2   100  LEU100     -0.2867
     65  CB        22.7190  -13.1460   10.8980 C.3   100  LEU100      0.0270
     66  CG        23.0910  -12.7050    9.5030 C.3   100  LEU100      0.0019
     67  CD1       22.9100  -11.1810    9.4310 C.3   100  LEU100      0.0001
     68  CD2       24.5220  -13.1240    9.0730 C.3   100  LEU100      0.0001
     69  N         23.1740   -4.6650   15.1560 N.3   106  ILE106     -0.1231
     70  CA        22.3770   -4.8430   13.9710 C.3   106  ILE106      0.1692
     71  C         20.9260   -4.7120   14.3530 C.2   106  ILE106      0.2591
     72  O         20.5690   -4.8370   15.5330 O.2   106  ILE106     -0.2718
     73  CB        22.5980   -6.2140   13.3000 C.3   106  ILE106      0.0266
     74  CG1       22.0230   -7.3630   14.1540 C.3   106  ILE106      0.0019
     75  CG2       24.0890   -6.4160   12.9520 C.3   106  ILE106      0.0020
     76  CD1       22.1320   -8.6990   13.4210 C.3   106  ILE106      0.0001
     77  N         20.0960   -4.4440   13.3480 N.am  107  VAL107     -0.1980
     78  CA        18.6560   -4.3590   13.5390 C.3   107  VAL107      0.1595
     79  C         18.2270   -5.8230   13.6170 C.2   107  VAL107      0.2287
     80  O         18.3310   -6.5450   12.6230 O.2   107  VAL107     -0.2864
     81  CB        17.9580   -3.6540   12.3540 C.3   107  VAL107      0.0276
     82  CG1       16.5040   -4.0600   12.2560 C.3   107  VAL107      0.0022
     83  CG2       18.1010   -2.1220   12.4830 C.3   107  VAL107      0.0022
     84  N          8.1800   -9.5490    8.0960 N.3   121  VAL121     -0.1245
     85  CA         9.4170   -9.7760    8.8410 C.3   121  VAL121      0.1561
     86  C          9.4820   -8.7550    9.9840 C.2   121  VAL121      0.2260
     87  O          9.5860   -7.5520    9.7490 O.2   121  VAL121     -0.2867
     88  CB        10.6760   -9.7280    7.9350 C.3   121  VAL121      0.0252
     89  CG1       11.9750   -9.9460    8.7360 C.3   121  VAL121      0.0019
     90  CG2       10.5780  -10.7570    6.7810 C.3   121  VAL121      0.0019
     91  N         11.1290   -6.9070   13.0130 N.3   123  THR123     -0.1203
     92  CA        12.4400   -6.5340   13.5190 C.3   123  THR123      0.1994
     93  C         12.3280   -5.4850   14.6100 C.2   123  THR123      0.2618
     94  O         11.2420   -4.9080   14.8680 O.2   123  THR123     -0.2717
     95  CB        13.3940   -5.9670   12.4000 C.3   123  THR123      0.1784
     96  OG1       12.9780   -4.6400   11.9930 O.3   123  THR123     -0.2211
     97  CG2       13.4280   -6.8850   11.1930 C.3   123  THR123      0.0376
     98  N         13.4690   -5.2270   15.2380 N.am  124  GLU124     -0.1965
     99  CA        13.5670   -4.2010   16.2470 C.3   124  GLU124      0.1733
    100  C         13.2230   -2.8440   15.6490 C.2   124  GLU124      0.2616
    101  O         13.5960   -2.5410   14.5200 O.2   124  GLU124     -0.2715
    102  CB        14.9770   -4.1650   16.8120 C.3   124  GLU124      0.0429
    103  CG        15.3440   -5.4580   17.5560 C.3   124  GLU124      0.1163
    104  CD        16.7360   -5.4220   18.1030 C.2   124  GLU124      0.3649
    105  OE1       17.6790   -5.0780   17.3460 O.co2 124  GLU124     -0.2457
    106  OE2       16.9020   -5.7610   19.3030 O.co2 124  GLU124     -0.2457
    107  N         12.5280   -2.0340   16.4240 N.am  125  TYR125     -0.1960
    108  CA        12.2110   -0.6720   16.0400 C.3   125  TYR125      0.1771
    109  C         13.2170    0.3230   16.6440 C.2   125  TYR125      0.2619
    110  O         13.6340    0.1990   17.8150 O.2   125  TYR125     -0.2715
    111  CB        10.7790   -0.3650   16.4920 C.3   125  TYR125      0.0574
    112  CG        10.4600    1.0940   16.4390 C.ar  125  TYR125     -0.0198
    113  CD1       10.4370    1.8480   17.5960 C.ar  125  TYR125     -0.0009
    114  CD2       10.2380    1.7310   15.2290 C.ar  125  TYR125     -0.0009
    115  CE1       10.1570    3.2160   17.5620 C.ar  125  TYR125      0.0417
    116  CE2        9.9460    3.0910   15.1790 C.ar  125  TYR125      0.0417
    117  CZ         9.9120    3.8230   16.3640 C.ar  125  TYR125      0.1957
    118  OH         9.6430    5.1750   16.3420 O.3   125  TYR125     -0.2866
    119  N         13.6090    1.3260   15.8630 N.am  126  CYS126     -0.1968
    120  CA        14.7000    2.2120   16.2800 C.3   126  CYS126      0.1712
    121  C         14.2000    3.6420   16.3010 C.2   126  CYS126      0.2296
    122  O         13.9920    4.2390   15.2510 O.2   126  CYS126     -0.2864
    123  CB        15.8740    2.0840   15.3210 C.3   126  CYS126      0.0983
    124  SG        16.7080    0.5000   15.4420 S.3   126  CYS126     -0.0798
    125  N         15.3120    6.7130   13.9840 N.3   129  GLY129     -0.1210
    126  CA        15.3370    6.5630   12.5350 C.3   129  GLY129      0.1956
    127  C         16.7230    6.4030   11.9520 C.2   129  GLY129      0.2611
    128  O         17.6580    5.9710   12.6570 O.2   129  GLY129     -0.2717
    129  N         16.8740    6.7160   10.6590 N.am  130  ASP130     -0.1973
    130  CA        18.1530    6.4730    9.9800 C.3   130  ASP130      0.1709
    131  C         19.2130    7.5030   10.4050 C.2   130  ASP130      0.2293
    132  O         18.9240    8.6990   10.6480 O.2   130  ASP130     -0.2864
    133  CB        18.0080    6.4130    8.4530 C.3   130  ASP130      0.1436
    134  CG        17.6660    7.7520    7.8570 C.2   130  ASP130      0.3671
    135  OD1       16.4750    8.1300    7.8880 O.co2 130  ASP130     -0.2456
    136  OD2       18.5890    8.4410    7.3880 O.co2 130  ASP130     -0.2456
    137  N         28.9700   -9.4000   11.3730 N.3   178  LEU178     -0.1245
    138  CA        28.6270   -9.8900   10.0250 C.3   178  LEU178      0.1561
    139  C         29.7330  -10.6940    9.3360 C.2   178  LEU178      0.2260
    140  O         29.4660  -11.7550    8.7770 O.2   178  LEU178     -0.2867
    141  CB        28.2800   -8.7320    9.1070 C.3   178  LEU178      0.0270
    142  CG        26.8010   -8.4540    8.8240 C.3   178  LEU178      0.0019
    143  CD1       25.8010   -8.9950    9.8350 C.3   178  LEU178      0.0001
    144  CD2       26.5940   -6.9590    8.5930 C.3   178  LEU178      0.0001
    145  N         27.5410   -7.2850    3.4840 N.3   185  HIS185     -0.1241
    146  CA        26.3880   -6.4020    3.4200 C.3   185  HIS185      0.1621
    147  C         26.1630   -5.8380    2.0120 C.2   185  HIS185      0.2264
    148  O         25.0700   -5.9220    1.4700 O.2   185  HIS185     -0.2867
    149  CB        26.5590   -5.2660    4.4290 C.3   185  HIS185      0.0745
    150  CG        25.3170   -4.4630    4.6580 C.ar  185  HIS185      0.0817
    151  ND1       24.7780   -3.6370    3.6990 N.ar  185  HIS185     -0.2268
    152  CD2       24.5150   -4.3540    5.7410 C.ar  185  HIS185      0.1154
    153  CE1       23.6960   -3.0560    4.1810 C.ar  185  HIS185      0.1986
    154  NE2       23.5150   -3.4740    5.4170 N.ar  185  HIS185     -0.2212
    155  N         20.6240    2.7070   11.6840 N.3   194  LEU194     -0.1245
    156  CA        19.5670    3.3460   12.4700 C.3   194  LEU194      0.1561
    157  C         20.1100    3.7060   13.8450 C.2   194  LEU194      0.2260
    158  O         21.1620    3.2070   14.2650 O.2   194  LEU194     -0.2867
    159  CB        18.3370    2.4260   12.6150 C.3   194  LEU194      0.0270
    160  CG        17.8250    1.7930   11.3200 C.3   194  LEU194      0.0019
    161  CD1       16.5850    1.0210   11.6630 C.3   194  LEU194      0.0001
    162  CD2       17.5450    2.8780   10.2900 C.3   194  LEU194      0.0001
    163  N         22.9210   -1.4980   12.2230 N.3   203  ILE203     -0.1231
    164  CA        22.9770   -1.7220   10.7770 C.3   203  ILE203      0.1692
    165  C         21.7100   -2.3850   10.2580 C.2   203  ILE203      0.2592
    166  O         21.0800   -3.1590   10.9720 O.2   203  ILE203     -0.2718
    167  CB        24.2080   -2.5900   10.4300 C.3   203  ILE203      0.0266
    168  CG1       25.4590   -1.8580   10.9090 C.3   203  ILE203      0.0019
    169  CG2       24.2920   -2.8530    8.9060 C.3   203  ILE203      0.0020
    170  CD1       26.6630   -2.7860   11.1920 C.3   203  ILE203      0.0001
    171  N         21.3250   -2.0700    9.0180 N.am  204  CYS204     -0.1956
    172  CA        20.0810   -2.5960    8.4890 C.3   204  CYS204      0.1843
    173  C         20.1950   -2.4860    6.9750 C.2   204  CYS204      0.2625
    174  O         21.2850   -2.2280    6.4520 O.2   204  CYS204     -0.2714
    175  CB        18.8880   -1.8010    9.0600 C.3   204  CYS204      0.0997
    176  SG        18.6930   -0.1260    8.3860 S.3   204  CYS204     -0.0797
    177  N         19.0890   -2.7240    6.2770 N.am  205  ASP205     -0.1957
    178  CA        18.9790   -2.3250    4.8630 C.3   205  ASP205      0.1840
    179  C         17.5190   -2.1880    4.5180 C.2   205  ASP205      0.2622
    180  O         16.7920   -3.1760    4.4310 O.2   205  ASP205     -0.2715
    181  CB        19.7230   -3.2590    3.8950 C.3   205  ASP205      0.1450
    182  CG        19.9020   -2.6270    2.4960 C.2   205  ASP205      0.3671
    183  OD1       19.0890   -1.7560    2.0890 O.co2 205  ASP205     -0.2456
    184  OD2       20.8450   -3.0020    1.7790 O.co2 205  ASP205     -0.2456
    185  N         17.0710   -0.9360    4.3530 N.am  206  PHE206     -0.1974
    186  CA        15.6900   -0.7310    3.9160 C.3   206  PHE206      0.1639
    187  C         15.3340   -1.5700    2.6940 C.2   206  PHE206      0.2290
    188  O         14.2310   -2.0600    2.6180 O.2   206  PHE206     -0.2864
    189  CB        15.3610    0.7400    3.6490 C.3   206  PHE206      0.0560
    190  CG        15.2740    1.5770    4.8940 C.ar  206  PHE206     -0.0200
    191  CD1       14.0380    1.9500    5.4200 C.ar  206  PHE206     -0.0042
    192  CD2       16.4200    2.0340    5.5150 C.ar  206  PHE206     -0.0042
    193  CE1       13.9540    2.7410    6.5440 C.ar  206  PHE206     -0.0003
    194  CE2       16.3480    2.8100    6.6640 C.ar  206  PHE206     -0.0003
    195  CZ        15.0910    3.1750    7.1660 C.ar  206  PHE206     -0.0000
@<TRIPOS>BOND
     1     4     3    2
     2     1     2    1
     3     3     2    1
     4     2     5    1
     5   148   147    2
     6   184   182   ar
     7   147   146    1
     8   183   182   ar
     9     7     6   ar
    10     7     9   ar
    11     5     6    1
    12   182   181    1
    13   188   187    2
    14    44    45    1
    15   187   186    1
    16    52    50   ar
    17     6     8   ar
    18     9    10   ar
    19   146   145    1
    20   146   149    1
    21    48    45    1
    22    48    49    1
    23   189   186    1
    24   189   190    1
    25    45    46    1
    26   151   153   ar
    27   151   150   ar
    28   181   178    1
    29   186   185    1
    30    50    49    1
    31    50    51   ar
    32    43    42    1
    33   153   154   ar
    34    41    42    1
    35    41    40    1
    36   185   179   am
    37     8    10   ar
    38     8    11   ar
    39   149   150    1
    40   180   179    2
    41    10    12   ar
    42   179   178    1
    43   150   152   ar
    44    40    39    1
    45   178   177    1
    46   190   191   ar
    47   190   192   ar
    48    46    47    2
    49    23    24    1
    50   154   152   ar
    51   191   193   ar
    52   192   194   ar
    53    11    13   ar
    54    12    14   ar
    55    37    38    2
    56    37    36    1
    57    29    27    1
    58    39    36    1
    59   177   173   am
    60   174   173    2
    61    24    27    1
    62    24    25    1
    63   193   195   ar
    64    36    35    1
    65   194   195   ar
    66    13    14   ar
    67    90    88    1
    68    27    28    1
    69   173   172    1
    70    17    18    2
    71    17    16    1
    72    26    25    2
    73   136   134   ar
    74   134   135   ar
    75   134   133    1
    76    88    89    1
    77    88    85    1
    78    53    54    1
    79    15    16    1
    80    84    85    1
    81    16    19    1
    82   176   175    1
    83   133   130    1
    84   172   171    1
    85   172   175    1
    86   144   142    1
    87    59    58    1
    88   140   139    2
    89   142   141    1
    90   142   143    1
    91    85    86    1
    92   169   167    1
    93    58    57    1
    94    58    60    1
    95   171   165   am
    96    68    66    1
    97   141   138    1
    98    19    20    1
    99    54    57    1
   100    54    55    1
   101   139   138    1
   102    67    66    1
   103    66    65    1
   104    87    86    2
   105   130   131    1
   106   130   129    1
   107   138   137    1
   108   165   164    1
   109   165   166    2
   110   162   160    1
   111    55    56    2
   112   131   132    2
   113   167   164    1
   114   167   168    1
   115    20    22    1
   116    20    21    1
   117   129   127   am
   118    61    62    1
   119   164   163    1
   120    65    62    1
   121   168   170    1
   122    97    95    1
   123    62    63    1
   124   160   161    1
   125   160   159    1
   126   155   156    1
   127    32    33    2
   128    32    31    1
   129   127   126    1
   130   127   128    2
   131    96    95    1
   132    34    31    1
   133    82    81    1
   134    81    83    1
   135    81    78    1
   136    95    92    1
   137   156   159    1
   138   156   157    1
   139   126   125    1
   140    80    79    2
   141    31    30    1
   142    63    64    2
   143    75    73    1
   144    91    92    1
   145    73    70    1
   146    73    74    1
   147    77    78    1
   148    77    71   am
   149    76    74    1
   150    92    93    1
   151    78    79    1
   152   157   158    2
   153    70    71    1
   154    70    69    1
   155    71    72    2
   156   101   100    2
   157    93    94    2
   158    93    98   am
   159   116   114   ar
   160   116   117   ar
   161   114   112   ar
   162    98    99    1
   163   122   121    2
   164   123   124    1
   165   123   120    1
   166   100    99    1
   167   100   107   am
   168   119   120    1
   169   119   109   am
   170   108   107    1
   171   108   111    1
   172   108   109    1
   173    99   102    1
   174   120   121    1
   175   118   117    1
   176   117   115   ar
   177   112   111    1
   178   112   113   ar
   179   109   110    2
   180   102   103    1
   181   105   104   ar
   182   103   104    1
   183   115   113   ar
   184   104   106   ar
