@<TRIPOS>MOLECULE
tmp/4hvuA00.pdb
 130 130 0 0 0
SMALL
GASTEIGER

@<TRIPOS>ATOM
      1  N         27.3720   -7.6020   -5.0910 N.3     6  TYR6       -0.1241
      2  CA        27.1950   -8.1280   -3.7530 C.3     6  TYR6        0.1605
      3  C         26.4900   -9.4780   -3.8860 C.2     6  TYR6        0.2264
      4  O         25.8120   -9.7160   -4.8930 O.2     6  TYR6       -0.2867
      5  CB        26.3020   -7.1970   -2.9020 C.3     6  TYR6        0.0534
      6  CG        26.7310   -5.7770   -2.8520 C.ar    6  TYR6       -0.0201
      7  CD1       27.5870   -5.3130   -1.8640 C.ar    6  TYR6       -0.0009
      8  CD2       26.2960   -4.8830   -3.8050 C.ar    6  TYR6       -0.0009
      9  CE1       28.0030   -4.0030   -1.8430 C.ar    6  TYR6        0.0417
     10  CE2       26.7080   -3.5810   -3.7980 C.ar    6  TYR6        0.0417
     11  CZ        27.5650   -3.1400   -2.8200 C.ar    6  TYR6        0.1957
     12  OH        27.9730   -1.8210   -2.8120 O.3     6  TYR6       -0.2866
     13  N         23.2400  -11.5850   -2.6490 N.3     8  TYR8       -0.1241
     14  CA        21.8780  -11.2250   -2.2650 C.3     8  TYR8        0.1605
     15  C         21.1130  -12.4950   -1.9420 C.2     8  TYR8        0.2264
     16  O         20.9780  -13.3910   -2.7940 O.2     8  TYR8       -0.2867
     17  CB        21.1660  -10.4290   -3.3860 C.3     8  TYR8        0.0534
     18  CG        19.7410  -10.1240   -3.0180 C.ar    8  TYR8       -0.0201
     19  CD1       19.4600   -9.1970   -2.0010 C.ar    8  TYR8       -0.0009
     20  CD2       18.6940  -10.7690   -3.6150 C.ar    8  TYR8       -0.0009
     21  CE1       18.1810   -8.9750   -1.5870 C.ar    8  TYR8        0.0417
     22  CE2       17.3810  -10.5380   -3.2100 C.ar    8  TYR8        0.0417
     23  CZ        17.1370   -9.6660   -2.1660 C.ar    8  TYR8        0.1957
     24  OH        15.8680   -9.4410   -1.6670 O.3     8  TYR8       -0.2866
     25  N         14.5500  -12.4980   -0.1040 N.3    11  ARG11      -0.1231
     26  CA        13.7110  -12.1060    1.0180 C.3    11  ARG11       0.1694
     27  C         12.2270  -12.2790    0.7560 C.2    11  ARG11       0.2592
     28  O         11.4220  -12.0620    1.6370 O.2    11  ARG11      -0.2718
     29  CB        14.0110  -10.6700    1.3650 C.3    11  ARG11       0.0321
     30  CG        15.3530  -10.5840    2.1080 C.3    11  ARG11       0.0489
     31  CD        15.8600   -9.2190    2.0190 C.3    11  ARG11       0.2205
     32  NE        16.9810   -8.9050    2.8990 N.pl3  11  ARG11      -0.0865
     33  CZ        18.2470   -9.1660    2.6220 C.cat  11  ARG11       0.5346
     34  NH1       18.5810   -9.9350    1.6060 N.pl3  11  ARG11       0.1354
     35  NH2       19.1810   -8.6490    3.3560 N.pl3  11  ARG11       0.1354
     36  N         11.8800  -12.6870   -0.4520 N.am   12  THR12      -0.1953
     37  CA        10.5090  -12.9810   -0.8350 C.3    12  THR12       0.1897
     38  C         10.4990  -14.1910   -1.7610 C.2    12  THR12       0.2313
     39  O         11.5100  -14.5210   -2.3730 O.2    12  THR12      -0.2863
     40  CB         9.7860  -11.8190   -1.5520 C.3    12  THR12       0.1794
     41  OG1        9.9720  -11.8800   -2.9710 O.3    12  THR12      -0.2208
     42  CG2       10.1180  -10.4690   -0.9850 C.3    12  THR12       0.0378
     43  N         11.8730  -13.3530   -5.3060 N.3    15  ASP15      -0.1239
     44  CA        13.2210  -12.8400   -5.4900 C.3    15  ASP15       0.1674
     45  C         14.1240  -13.8880   -6.1430 C.2    15  ASP15       0.2266
     46  O         13.8700  -15.0830   -6.1140 O.2    15  ASP15      -0.2867
     47  CB        13.8360  -12.4610   -4.1250 C.3    15  ASP15       0.1410
     48  CG        13.2770  -11.2230   -3.4810 C.2    15  ASP15       0.3668
     49  OD1       12.2680  -10.7190   -3.9840 O.co2  15  ASP15      -0.2456
     50  OD2       13.8350  -10.8230   -2.4110 O.co2  15  ASP15      -0.2456
     51  N          8.6080   -1.8950  -13.2840 N.3    31  GLU31      -0.1231
     52  CA         7.7320   -1.8490  -12.1390 C.3    31  GLU31       0.1699
     53  C          8.3390   -1.0160  -11.0090 C.2    31  GLU31       0.2593
     54  O          7.6310   -0.6680  -10.0740 O.2    31  GLU31      -0.2718
     55  CB         7.3710   -3.2790  -11.6960 C.3    31  GLU31       0.0402
     56  CG         6.6630   -4.0850  -12.7880 C.3    31  GLU31       0.1161
     57  CD         6.4250   -5.5340  -12.4090 C.2    31  GLU31       0.3649
     58  OE1        7.4140   -6.2640  -12.1930 O.co2  31  GLU31      -0.2457
     59  OE2        5.2460   -5.9440  -12.3410 O.co2  31  GLU31      -0.2457
     60  N          9.6430   -0.6970  -11.0920 N.am   32  GLY32      -0.1942
     61  CA        10.3450    0.0560  -10.0540 C.3    32  GLY32       0.2014
     62  C         11.8200   -0.2960   -9.8920 C.2    32  GLY32       0.2639
     63  O         12.4720   -0.7170  -10.8460 O.2    32  GLY32      -0.2714
     64  N         12.3370   -0.1320   -8.6750 N.am   33  ASP33      -0.1957
     65  CA        13.7430   -0.3820   -8.3860 C.3    33  ASP33       0.1840
     66  C         14.0930   -1.8600   -8.1960 C.2    33  ASP33       0.2622
     67  O         15.2670   -2.2020   -8.0800 O.2    33  ASP33      -0.2715
     68  CB        14.1350    0.3490   -7.1050 C.3    33  ASP33       0.1450
     69  CG        14.0510    1.8460   -7.2040 C.2    33  ASP33       0.3671
     70  OD1       14.2510    2.3880   -8.3060 O.co2  33  ASP33      -0.2456
     71  OD2       13.8280    2.4790   -6.1400 O.co2  33  ASP33      -0.2456
     72  N         13.0780   -2.7110   -8.1260 N.am   34  TRP34      -0.1974
     73  CA        13.2720   -4.1570   -8.1700 C.3    34  TRP34       0.1640
     74  C         13.0410   -4.5940   -9.5980 C.2    34  TRP34       0.2290
     75  O         11.9630   -4.3740  -10.1550 O.2    34  TRP34      -0.2864
     76  CB        12.3330   -4.8910   -7.2010 C.3    34  TRP34       0.0576
     77  CG        12.7180   -4.6420   -5.7800 C.ar   34  TRP34       0.0006
     78  CD1       12.4320   -3.5360   -5.0340 C.ar   34  TRP34       0.0946
     79  CD2       13.5200   -5.4980   -4.9480 C.ar   34  TRP34       0.0152
     80  NE1       13.0080   -3.6580   -3.7850 N.ar   34  TRP34      -0.2442
     81  CE2       13.6750   -4.8480   -3.7110 C.ar   34  TRP34       0.0810
     82  CE3       14.1020   -6.7490   -5.1240 C.ar   34  TRP34       0.0012
     83  CZ2       14.3970   -5.4140   -2.6590 C.ar   34  TRP34       0.0191
     84  CZ3       14.8100   -7.3070   -4.0880 C.ar   34  TRP34       0.0001
     85  CH2       14.9580   -6.6420   -2.8750 C.ar   34  TRP34       0.0015
     86  N         13.1440  -11.4320   -8.9580 N.3    47  TYR47      -0.1241
     87  CA        13.3940  -10.0180   -8.7330 C.3    47  TYR47       0.1605
     88  C         14.6870   -9.7880   -7.9560 C.2    47  TYR47       0.2264
     89  O         15.0230  -10.5090   -7.0150 O.2    47  TYR47      -0.2867
     90  CB        12.2050   -9.3920   -7.9860 C.3    47  TYR47       0.0534
     91  CG        11.0050   -9.2020   -8.8950 C.ar   47  TYR47      -0.0201
     92  CD1       10.8800   -8.0680   -9.6750 C.ar   47  TYR47      -0.0009
     93  CD2       10.0380  -10.1770   -9.0150 C.ar   47  TYR47      -0.0009
     94  CE1        9.7920   -7.8930  -10.5330 C.ar   47  TYR47       0.0417
     95  CE2        8.9510  -10.0170   -9.8620 C.ar   47  TYR47       0.0417
     96  CZ         8.8380   -8.8750  -10.6140 C.ar   47  TYR47       0.1957
     97  OH         7.7610   -8.7220  -11.4520 O.3    47  TYR47      -0.2866
     98  N         17.3610   -6.4110   -6.3900 N.3    49  PRO49      -0.2102
     99  CA        17.4700   -4.9820   -6.0800 C.3    49  PRO49       0.1504
    100  C         18.4610   -4.3690   -7.0820 C.2    49  PRO49       0.2576
    101  O         19.6040   -4.7750   -7.1880 O.2    49  PRO49      -0.2718
    102  CB        18.0110   -4.9670   -4.6510 C.3    49  PRO49       0.0282
    103  CG        18.7720   -6.2760   -4.5140 C.3    49  PRO49       0.0208
    104  CD        18.1120   -7.2540   -5.4250 C.3    49  PRO49       0.0893
    105  N         17.9890   -3.3710   -7.8220 N.am   50  SER50      -0.1938
    106  CA        18.7850   -2.8500   -8.9330 C.3    50  SER50       0.2055
    107  C         20.0770   -2.1660   -8.5130 C.2    50  SER50       0.2643
    108  O         20.9980   -2.0250   -9.3210 O.2    50  SER50      -0.2714
    109  CB        17.9190   -1.9110   -9.7890 C.3    50  SER50       0.2130
    110  OG        17.4870   -0.7800   -9.0490 O.3    50  SER50      -0.2179
    111  N         20.1760   -1.7500   -7.2540 N.am   51  ASN51      -0.1957
    112  CA        21.3880   -1.1400   -6.7480 C.3    51  ASN51       0.1819
    113  C         22.4780   -2.1400   -6.3510 C.2    51  ASN51       0.2621
    114  O         23.5510   -1.7520   -5.9190 O.2    51  ASN51      -0.2715
    115  CB        21.0780   -0.1600   -5.6030 C.3    51  ASN51       0.1195
    116  CG        20.3880   -0.7960   -4.4280 C.2    51  ASN51       0.2630
    117  OD1       19.6750   -1.7780   -4.5250 O.2    51  ASN51      -0.2716
    118  ND2       20.5840   -0.2020   -3.2900 N.am   51  ASN51      -0.0877
    119  N         22.2090   -3.4310   -6.5280 N.am   52  TYR52      -0.1974
    120  CA        23.1840   -4.4690   -6.2070 C.3    52  TYR52       0.1639
    121  C         23.9540   -4.9580   -7.4420 C.2    52  TYR52       0.2290
    122  O         24.7890   -5.8380   -7.3110 O.2    52  TYR52      -0.2864
    123  CB        22.5270   -5.6680   -5.4990 C.3    52  TYR52       0.0560
    124  CG        22.3180   -5.4720   -4.0120 C.ar   52  TYR52      -0.0198
    125  CD1       21.8120   -4.2690   -3.4920 C.ar   52  TYR52      -0.0009
    126  CD2       22.6010   -6.4560   -3.1190 C.ar   52  TYR52      -0.0009
    127  CE1       21.6480   -4.0790   -2.1340 C.ar   52  TYR52       0.0417
    128  CE2       22.4270   -6.2560   -1.7060 C.ar   52  TYR52       0.0417
    129  CZ        21.9740   -5.0670   -1.2550 C.ar   52  TYR52       0.1957
    130  OH        21.8400   -4.9250    0.1080 O.3    52  TYR52      -0.2866
@<TRIPOS>BOND
     1    51    52    1
     2    56    57    1
     3    56    55    1
     4    57    59   ar
     5    57    58   ar
     6    52    55    1
     7    52    53    1
     8    97    96    1
     9    60    53   am
    10    60    61    1
    11    53    54    2
    12    63    62    2
    13    96    94   ar
    14    96    95   ar
    15    94    92   ar
    16    75    74    2
    17    61    62    1
    18    62    64   am
    19    95    93   ar
    20   109   110    1
    21   109   106    1
    22    92    91   ar
    23    74    73    1
    24   108   107    2
    25    93    91   ar
    26    86    87    1
    27   106   107    1
    28   106   105    1
    29    91    90    1
    30    87    90    1
    31    87    88    1
    32    64    65    1
    33   107   111   am
    34    65    66    1
    35    65    68    1
    36    70    69   ar
    37    66    72   am
    38    66    67    2
    39    73    72    1
    40    73    76    1
    41    88    89    2
    42   105   100   am
    43   121   122    2
    44   121   120    1
    45   111   112    1
    46    69    68    1
    47    69    71   ar
    48    76    77    1
    49   101   100    2
    50   100    99    1
    51   112   113    1
    52   112   115    1
    53   119   113   am
    54   119   120    1
    55    98    99    1
    56    98   104    1
    57   113   114    2
    58   120   123    1
    59    45    46    2
    60    45    44    1
    61    99   102    1
    62    77    78   ar
    63    77    79   ar
    64   115   116    1
    65   123   124    1
    66    44    43    1
    67    44    47    1
    68   104   103    1
    69    82    79   ar
    70    82    84   ar
    71     1     2    1
    72    78    80   ar
    73    79    81   ar
    74     4     3    2
    75   102   103    1
    76   117   116    2
    77   116   118   am
    78    47    48    1
    79    84    85   ar
    80   124   125   ar
    81   124   126   ar
    82    49    48   ar
    83     3     2    1
    84     8    10   ar
    85     8     6   ar
    86    10    11   ar
    87    80    81   ar
    88     2     5    1
    89    81    83   ar
    90    20    22   ar
    91    20    18   ar
    92   125   127   ar
    93    48    50   ar
    94    17    18    1
    95    17    14    1
    96    22    23   ar
    97   126   128   ar
    98    18    19   ar
    99    41    40    1
   100     5     6    1
   101    85    83   ar
   102     6     7   ar
   103    11    12    1
   104    11     9   ar
   105    16    15    2
   106    13    14    1
   107    39    38    2
   108    14    15    1
   109    23    24    1
   110    23    21   ar
   111   127   129   ar
   112    19    21   ar
   113     7     9   ar
   114    38    37    1
   115   128   129   ar
   116    40    42    1
   117    40    37    1
   118   129   130    1
   119    37    36    1
   120    36    27   am
   121    25    26    1
   122    27    26    1
   123    27    28    2
   124    26    29    1
   125    29    30    1
   126    34    33    1
   127    31    30    1
   128    31    32    1
   129    33    32    2
   130    33    35    1
