@<TRIPOS>MOLECULE
tmp/4hw2B02.pdb
 98 97 0 0 0
SMALL
GASTEIGER

@<TRIPOS>ATOM
      1  N         -1.2540  -61.5780  -23.6830 N.3    46  VAL46      -0.1245
      2  CA        -0.9620  -61.6830  -25.0720 C.3    46  VAL46       0.1561
      3  C         -0.6700  -60.4010  -25.7670 C.2    46  VAL46       0.2260
      4  O          0.1510  -60.3930  -26.6490 O.2    46  VAL46      -0.2867
      5  CB        -2.0400  -62.4820  -25.8330 C.3    46  VAL46       0.0252
      6  CG1       -2.2960  -63.7200  -25.1460 C.3    46  VAL46       0.0019
      7  CG2       -3.2830  -61.7730  -25.9530 C.3    46  VAL46       0.0019
      8  N          2.7170  -58.9440  -24.9550 N.3    49  GLY49      -0.1210
      9  CA         3.6390  -59.8030  -25.6760 C.3    49  GLY49       0.1956
     10  C          3.8140  -59.5420  -27.1440 C.2    49  GLY49       0.2611
     11  O          4.9090  -59.5960  -27.5980 O.2    49  GLY49      -0.2717
     12  N          2.7490  -59.2760  -27.8740 N.am   50  VAL50      -0.1979
     13  CA         2.8390  -58.9490  -29.2790 C.3    50  VAL50       0.1595
     14  C          3.5860  -57.6520  -29.4670 C.2    50  VAL50       0.2287
     15  O          4.2210  -57.4450  -30.4640 O.2    50  VAL50      -0.2864
     16  CB         1.4480  -58.7990  -29.8910 C.3    50  VAL50       0.0276
     17  CG1        1.5370  -58.4750  -31.3420 C.3    50  VAL50       0.0022
     18  CG2        0.7040  -60.0770  -29.7590 C.3    50  VAL50       0.0022
     19  N          7.2190  -58.5130  -28.9920 N.3    53  ASN53      -0.1225
     20  CA         7.7260  -59.3060  -30.0700 C.3    53  ASN53       0.1785
     21  C          7.8400  -58.6260  -31.3840 C.2    53  ASN53       0.2597
     22  O          8.6710  -58.9640  -32.1790 O.2    53  ASN53      -0.2718
     23  CB         6.9160  -60.6000  -30.2050 C.3    53  ASN53       0.1169
     24  CG         7.1030  -61.5010  -29.0200 C.2    53  ASN53       0.2627
     25  OD1        8.1190  -61.4940  -28.3920 O.2    53  ASN53      -0.2716
     26  ND2        6.1250  -62.2680  -28.7130 N.am   53  ASN53      -0.0877
     27  N          6.9900  -57.6560  -31.6120 N.am   54  HIS54      -0.1975
     28  CA         6.9500  -57.0130  -32.9000 C.3    54  HIS54       0.1656
     29  C          7.3220  -55.5850  -32.8720 C.2    54  HIS54       0.2291
     30  O          6.9510  -54.8320  -33.7210 O.2    54  HIS54      -0.2864
     31  CB         5.5520  -57.1780  -33.4500 C.3    54  HIS54       0.0771
     32  CG         5.2190  -58.5840  -33.7180 C.ar   54  HIS54       0.0820
     33  ND1        5.7380  -59.2740  -34.7180 N.ar   54  HIS54      -0.2267
     34  CD2        4.4590  -59.4590  -33.1050 C.ar   54  HIS54       0.1154
     35  CE1        5.3180  -60.5150  -34.7290 C.ar   54  HIS54       0.1986
     36  NE2        4.5300  -60.6580  -33.7470 N.ar   54  HIS54      -0.2212
     37  N         -7.8460  -64.6100  -37.7140 N.3    90  ASN90      -0.1225
     38  CA        -7.5590  -65.4050  -36.5550 C.3    90  ASN90       0.1785
     39  C         -7.4270  -64.4490  -35.4140 C.2    90  ASN90       0.2597
     40  O         -7.3490  -63.2770  -35.6260 O.2    90  ASN90      -0.2718
     41  CB        -6.3190  -66.2320  -36.7350 C.3    90  ASN90       0.1169
     42  CG        -5.1190  -65.4200  -36.9280 C.2    90  ASN90       0.2627
     43  OD1       -4.6740  -64.7440  -36.0390 O.2    90  ASN90      -0.2716
     44  ND2       -4.5660  -65.4910  -38.0930 N.am   90  ASN90      -0.0877
     45  N         -7.4570  -64.9700  -34.2020 N.am   91  TRP91      -0.1962
     46  CA        -7.3970  -64.1530  -33.0260 C.3    91  TRP91       0.1771
     47  C         -6.1190  -63.4390  -32.9700 C.2    91  TRP91       0.2620
     48  O         -6.0300  -62.4090  -32.3520 O.2    91  TRP91      -0.2715
     49  CB        -7.5570  -65.0010  -31.7930 C.3    91  TRP91       0.0590
     50  CG        -8.9760  -65.3110  -31.5020 C.ar   91  TRP91       0.0006
     51  CD1       -9.5340  -66.5330  -31.4190 C.ar   91  TRP91       0.0946
     52  CD2      -10.0300  -64.3910  -31.2620 C.ar   91  TRP91       0.0152
     53  NE1      -10.8550  -66.4480  -31.1430 N.ar   91  TRP91      -0.2442
     54  CE2      -11.1940  -65.1400  -31.0450 C.ar   91  TRP91       0.0810
     55  CE3      -10.1070  -63.0180  -31.2120 C.ar   91  TRP91       0.0012
     56  CZ2      -12.4040  -64.5720  -30.7880 C.ar   91  TRP91       0.0191
     57  CZ3      -11.3130  -62.4510  -30.9520 C.ar   91  TRP91       0.0001
     58  CH2      -12.4440  -63.2160  -30.7450 C.ar   91  TRP91       0.0015
     59  N         -5.1040  -64.0200  -33.5780 N.am   92  GLY92      -0.1954
     60  CA        -3.8170  -63.3830  -33.6100 C.3    92  GLY92       0.1869
     61  C         -3.8170  -62.1050  -34.4000 C.2    92  GLY92       0.2309
     62  O         -3.1800  -61.1650  -34.0120 O.2    92  GLY92      -0.2863
     63  N         -5.4550  -59.4330  -32.1340 N.3    95  VAL95      -0.1231
     64  CA        -4.6590  -58.9400  -31.0190 C.3    95  VAL95       0.1692
     65  C         -3.6030  -57.9550  -31.5170 C.2    95  VAL95       0.2592
     66  O         -3.2580  -56.9910  -30.8720 O.2    95  VAL95      -0.2718
     67  CB        -4.0230  -60.1210  -30.3050 C.3    95  VAL95       0.0266
     68  CG1       -3.4050  -59.6900  -29.0190 C.3    95  VAL95       0.0020
     69  CG2       -5.0800  -61.1200  -30.0090 C.3    95  VAL95       0.0020
     70  N         -3.0940  -58.2380  -32.6860 N.am   96  THR96      -0.1953
     71  CA        -2.1330  -57.4120  -33.3280 C.3    96  THR96       0.1897
     72  C         -2.7700  -56.0850  -33.6360 C.2    96  THR96       0.2313
     73  O         -2.1360  -55.0710  -33.4820 O.2    96  THR96      -0.2863
     74  CB        -1.7040  -58.1170  -34.5730 C.3    96  THR96       0.1794
     75  OG1       -1.5410  -59.4870  -34.2560 O.3    96  THR96      -0.2208
     76  CG2       -0.4320  -57.6480  -35.0330 C.3    96  THR96       0.0378
     77  N         -9.8610  -69.1100  -26.0100 N.3   148  PHE148     -0.1227
     78  CA        -8.8220  -69.4560  -26.9460 C.3   148  PHE148      0.1736
     79  C         -7.4410  -69.2230  -26.3640 C.2   148  PHE148      0.2595
     80  O         -6.5000  -69.9090  -26.7440 O.2   148  PHE148     -0.2718
     81  CB        -9.0280  -68.6590  -28.2270 C.3   148  PHE148      0.0547
     82  CG        -8.0140  -68.9310  -29.2730 C.ar  148  PHE148     -0.0202
     83  CD1       -8.3250  -69.7270  -30.3640 C.ar  148  PHE148     -0.0042
     84  CD2       -6.7380  -68.3940  -29.1730 C.ar  148  PHE148     -0.0042
     85  CE1       -7.3840  -69.9830  -31.3390 C.ar  148  PHE148     -0.0003
     86  CE2       -5.7840  -68.6460  -30.1490 C.ar  148  PHE148     -0.0003
     87  CZ        -6.1080  -69.4420  -31.2340 C.ar  148  PHE148     -0.0000
     88  N         -7.3220  -68.2800  -25.4280 N.am  149  PHE149     -0.1976
     89  CA        -6.0170  -68.0170  -24.8030 C.3   149  PHE149      0.1639
     90  C         -6.0760  -68.3660  -23.3120 C.2   149  PHE149      0.2290
     91  O         -5.3250  -67.8030  -22.5330 O.2   149  PHE149     -0.2864
     92  CB        -5.6570  -66.5220  -24.9100 C.3   149  PHE149      0.0560
     93  CG        -5.3930  -66.0290  -26.3150 C.ar  149  PHE149     -0.0200
     94  CD1       -4.2200  -66.3460  -26.9770 C.ar  149  PHE149     -0.0042
     95  CD2       -6.3070  -65.2290  -26.9660 C.ar  149  PHE149     -0.0042
     96  CE1       -3.9640  -65.8700  -28.2730 C.ar  149  PHE149     -0.0003
     97  CE2       -6.0530  -64.7570  -28.2560 C.ar  149  PHE149     -0.0003
     98  CZ        -4.8770  -65.0830  -28.9060 C.ar  149  PHE149     -0.0000
@<TRIPOS>BOND
     1    44    42   am
     2    37    38    1
     3    42    41    1
     4    42    43    2
     5    41    38    1
     6    38    39    1
     7    40    39    2
     8    39    45   am
     9    76    74    1
    10    35    33   ar
    11    35    36   ar
    12    33    32   ar
    13    74    75    1
    14    74    71    1
    15    61    62    2
    16    61    60    1
    17    45    46    1
    18    36    34   ar
    19    30    29    2
    20    32    31    1
    21    32    34   ar
    22    72    73    2
    23    72    71    1
    24    60    59    1
    25    59    47   am
    26    31    28    1
    27    71    70    1
    28    46    47    1
    29    46    49    1
    30    47    48    2
    31    28    29    1
    32    28    27    1
    33    70    65   am
    34    22    21    2
    35    63    64    1
    36    49    50    1
    37    27    21   am
    38    65    64    1
    39    65    66    2
    40    50    51   ar
    41    50    52   ar
    42    51    53   ar
    43    21    20    1
    44    17    16    1
    45    85    87   ar
    46    85    83   ar
    47    52    55   ar
    48    52    54   ar
    49    87    86   ar
    50    55    57   ar
    51    53    54   ar
    52    54    56   ar
    53    64    67    1
    54    57    58   ar
    55    56    58   ar
    56    15    14    2
    57    83    82   ar
    58    67    69    1
    59    67    68    1
    60    23    20    1
    61    23    24    1
    62    86    84   ar
    63    20    19    1
    64    16    18    1
    65    16    13    1
    66    14    13    1
    67    13    12    1
    68    82    84   ar
    69    82    81    1
    70    24    26   am
    71    24    25    2
    72    98    96   ar
    73    98    97   ar
    74    96    94   ar
    75    97    95   ar
    76    81    78    1
    77    12    10   am
    78    11    10    2
    79    10     9    1
    80    94    93   ar
    81    95    93   ar
    82    78    79    1
    83    78    77    1
    84    80    79    2
    85     4     3    2
    86    79    88   am
    87    93    92    1
    88     7     5    1
    89     5     6    1
    90     5     2    1
    91     3     2    1
    92     9     8    1
    93    88    89    1
    94     2     1    1
    95    92    89    1
    96    89    90    1
    97    90    91    2
