@<TRIPOS>MOLECULE
tmp/4hw2F00.pdb
 137 128 0 0 0
SMALL
GASTEIGER

@<TRIPOS>ATOM
      1  N         11.0510  -28.9970  -20.6580 N.3    57  ALA57      -0.1231
      2  CA        12.1490  -29.1450  -21.6070 C.3    57  ALA57       0.1694
      3  C         13.4800  -29.3140  -20.8970 C.2    57  ALA57       0.2592
      4  O         14.3080  -30.1250  -21.3040 O.2    57  ALA57      -0.2718
      5  CB        12.2050  -27.9490  -22.5320 C.3    57  ALA57       0.0304
      6  N         13.6670  -28.5410  -19.8330 N.am   58  PHE58      -0.1976
      7  CA        14.8880  -28.5680  -19.0440 C.3    58  PHE58       0.1639
      8  C         15.1260  -29.9110  -18.3710 C.2    58  PHE58       0.2290
      9  O         16.2590  -30.4040  -18.3430 O.2    58  PHE58      -0.2864
     10  CB        14.8560  -27.4560  -17.9940 C.3    58  PHE58       0.0560
     11  CG        15.2000  -26.0980  -18.5370 C.ar   58  PHE58      -0.0200
     12  CD1       15.5460  -25.9360  -19.8700 C.ar   58  PHE58      -0.0042
     13  CD2       15.1640  -24.9800  -17.7210 C.ar   58  PHE58      -0.0042
     14  CE1       15.8500  -24.6870  -20.3820 C.ar   58  PHE58      -0.0003
     15  CE2       15.4660  -23.7220  -18.2270 C.ar   58  PHE58      -0.0003
     16  CZ        15.8120  -23.5790  -19.5630 C.ar   58  PHE58      -0.0000
     17  N         16.4230  -32.3710  -20.9410 N.3    61  MET61      -0.1245
     18  CA        17.8420  -32.1690  -21.1650 C.3    61  MET61       0.1570
     19  C         18.6620  -32.5620  -19.9620 C.2    61  MET61       0.2261
     20  O         19.7010  -33.2090  -20.1050 O.2    61  MET61      -0.2867
     21  CB        18.1420  -30.7010  -21.4680 C.3    61  MET61       0.0387
     22  CG        19.5510  -30.4580  -21.9740 C.3    61  MET61       0.0595
     23  SD        19.7420  -30.6950  -23.7070 S.3    61  MET61      -0.1393
     24  CE        19.5000  -29.0850  -24.2930 C.3    61  MET61       0.0692
     25  N         21.3810  -35.6310  -20.1580 N.3    65  LEU65      -0.1245
     26  CA        22.7700  -35.3530  -19.8860 C.3    65  LEU65       0.1561
     27  C         23.3460  -36.2750  -18.8410 C.2    65  LEU65       0.2260
     28  O         24.5060  -36.6460  -18.9170 O.2    65  LEU65      -0.2867
     29  CB        22.9370  -33.9040  -19.4960 C.3    65  LEU65       0.0270
     30  CG        22.8410  -33.0160  -20.7260 C.3    65  LEU65       0.0019
     31  CD1       23.1090  -31.6110  -20.3250 C.3    65  LEU65       0.0001
     32  CD2       23.8160  -33.4620  -21.7740 C.3    65  LEU65       0.0001
     33  N         30.8480  -30.8050  -21.0290 N.3    76  LEU76      -0.1245
     34  CA        29.5860  -30.2670  -21.4890 C.3    76  LEU76       0.1561
     35  C         29.7180  -29.1970  -22.5690 C.2    76  LEU76       0.2260
     36  O         28.7670  -28.9450  -23.3080 O.2    76  LEU76      -0.2867
     37  CB        28.8360  -29.6860  -20.2830 C.3    76  LEU76       0.0270
     38  CG        28.2390  -30.7130  -19.3150 C.3    76  LEU76       0.0019
     39  CD1       27.6180  -30.0100  -18.1130 C.3    76  LEU76       0.0001
     40  CD2       27.2040  -31.5690  -20.0400 C.3    76  LEU76       0.0001
     41  N         28.5470  -29.7700  -26.0600 N.3    79  VAL79      -0.1231
     42  CA        27.0930  -29.8840  -26.0570 C.3    79  VAL79       0.1692
     43  C         26.4280  -28.5160  -25.8850 C.2    79  VAL79       0.2591
     44  O         25.3600  -28.2880  -26.4310 O.2    79  VAL79      -0.2718
     45  CB        26.5910  -30.8070  -24.9440 C.3    79  VAL79       0.0266
     46  CG1       25.1850  -31.1330  -25.1430 C.3    79  VAL79       0.0020
     47  CG2       27.3440  -32.0530  -24.9230 C.3    79  VAL79       0.0020
     48  N         27.0240  -27.6270  -25.0930 N.am   80  MET80      -0.1979
     49  CA        26.4810  -26.2740  -24.9520 C.3    80  MET80       0.1605
     50  C         26.6340  -25.5450  -26.2710 C.2    80  MET80       0.2287
     51  O         25.6940  -24.9250  -26.7490 O.2    80  MET80      -0.2864
     52  CB        27.2250  -25.4490  -23.9020 C.3    80  MET80       0.0413
     53  CG        26.8350  -25.6540  -22.5050 C.3    80  MET80       0.0598
     54  SD        28.0810  -25.0080  -21.3850 S.3    80  MET80      -0.1393
     55  CE        27.7670  -23.4510  -21.5870 C.3    80  MET80       0.0692
     56  N         24.0270  -26.6720  -29.0500 N.3    83  VAL83      -0.1231
     57  CA        22.6600  -26.2190  -28.8890 C.3    83  VAL83       0.1692
     58  C         22.5280  -24.7220  -29.0170 C.2    83  VAL83       0.2592
     59  O         21.5260  -24.2350  -29.5330 O.2    83  VAL83      -0.2718
     60  CB        22.1110  -26.6040  -27.5060 C.3    83  VAL83       0.0266
     61  CG1       20.7150  -26.0580  -27.3260 C.3    83  VAL83       0.0020
     62  CG2       22.1390  -28.1010  -27.3170 C.3    83  VAL83       0.0020
     63  N         23.5620  -24.0190  -28.5530 N.am   84  PHE84      -0.1976
     64  CA        23.6170  -22.5550  -28.4710 C.3    84  PHE84       0.1639
     65  C         24.1880  -21.7200  -29.6170 C.2    84  PHE84       0.2290
     66  O         23.7930  -20.5660  -29.7940 O.2    84  PHE84      -0.2864
     67  CB        24.4020  -22.1630  -27.1980 C.3    84  PHE84       0.0560
     68  CG        24.4520  -20.6870  -26.9470 C.ar   84  PHE84      -0.0200
     69  CD1       25.6480  -20.0070  -27.0200 C.ar   84  PHE84      -0.0042
     70  CD2       23.3000  -19.9810  -26.6460 C.ar   84  PHE84      -0.0042
     71  CE1       25.7010  -18.6590  -26.7990 C.ar   84  PHE84      -0.0003
     72  CE2       23.3480  -18.6240  -26.4230 C.ar   84  PHE84      -0.0003
     73  CZ        24.5520  -17.9620  -26.4990 C.ar   84  PHE84      -0.0000
     74  N         18.0300  -15.9270  -26.2130 N.3    93  ARG93      -0.1245
     75  CA        18.8270  -17.1460  -26.3010 C.3    93  ARG93       0.1563
     76  C         19.8250  -17.2050  -25.1690 C.2    93  ARG93       0.2260
     77  O         19.9980  -18.2390  -24.5300 O.2    93  ARG93      -0.2867
     78  CB        19.5860  -17.1790  -27.6110 C.3    93  ARG93       0.0307
     79  CG        18.7220  -17.4850  -28.7730 C.3    93  ARG93       0.0489
     80  CD        19.5220  -18.0870  -29.8800 C.3    93  ARG93       0.2205
     81  NE        19.7600  -19.4890  -29.7080 N.pl3  93  ARG93      -0.0865
     82  CZ        20.3640  -20.2490  -30.6050 C.cat  93  ARG93       0.5346
     83  NH1       20.7850  -19.7400  -31.7130 N.pl3  93  ARG93       0.1354
     84  NH2       20.5400  -21.5210  -30.4060 N.pl3  93  ARG93       0.1354
     85  N         18.2420  -18.0530  -21.8390 N.3    96  THR96      -0.1203
     86  CA        17.9440  -19.4850  -21.8130 C.3    96  THR96       0.1994
     87  C         19.2070  -20.2800  -21.4790 C.2    96  THR96       0.2617
     88  O         19.1720  -21.2290  -20.6890 O.2    96  THR96      -0.2717
     89  CB        17.4560  -19.9900  -23.1660 C.3    96  THR96       0.1784
     90  OG1       16.4490  -19.1090  -23.6740 O.3    96  THR96      -0.2211
     91  CG2       16.8780  -21.3800  -23.0130 C.3    96  THR96       0.0376
     92  N         20.3160  -19.8880  -22.1040 N.am   97  LEU97      -0.1979
     93  CA        21.6020  -20.5330  -21.8750 C.3    97  LEU97       0.1596
     94  C         21.9720  -20.3910  -20.4120 C.2    97  LEU97       0.2287
     95  O         22.3350  -21.3660  -19.7730 O.2    97  LEU97      -0.2864
     96  CB        22.6950  -19.9000  -22.7400 C.3    97  LEU97       0.0297
     97  CG        24.1010  -20.2700  -22.2550 C.3    97  LEU97       0.0022
     98  CD1       24.6500  -21.4950  -22.9900 C.3    97  LEU97       0.0001
     99  CD2       25.0250  -19.0740  -22.4120 C.3    97  LEU97       0.0001
    100  N         19.2380  -22.2630  -17.8780 N.3   100  PHE100     -0.1227
    101  CA        19.3960  -23.7140  -17.8310 C.3   100  PHE100      0.1736
    102  C         20.6080  -24.0290  -16.9520 C.2   100  PHE100      0.2596
    103  O         20.6140  -25.0070  -16.2120 O.2   100  PHE100     -0.2718
    104  CB        19.5920  -24.3210  -19.2210 C.3   100  PHE100      0.0547
    105  CG        19.6920  -25.8190  -19.1970 C.ar  100  PHE100     -0.0202
    106  CD1       18.7180  -26.5850  -18.6140 C.ar  100  PHE100     -0.0042
    107  CD2       20.7620  -26.4650  -19.7400 C.ar  100  PHE100     -0.0042
    108  CE1       18.8110  -27.9720  -18.5760 C.ar  100  PHE100     -0.0003
    109  CE2       20.8590  -27.8540  -19.7050 C.ar  100  PHE100     -0.0003
    110  CZ        19.8790  -28.6040  -19.1210 C.ar  100  PHE100     -0.0000
    111  N         21.6320  -23.1900  -17.0420 N.am  101  GLY101     -0.1957
    112  CA        22.7930  -23.3590  -16.1930 C.3   101  GLY101      0.1869
    113  C         22.3330  -23.3230  -14.7490 C.2   101  GLY101      0.2309
    114  O         22.7600  -24.1410  -13.9340 O.2   101  GLY101     -0.2863
    115  N         20.6500  -26.4700  -13.8510 N.3   104  VAL104     -0.1245
    116  CA        21.6620  -27.4860  -13.5440 C.3   104  VAL104      0.1561
    117  C         22.3570  -27.2450  -12.2070 C.2   104  VAL104      0.2260
    118  O         22.6820  -28.1960  -11.5030 O.2   104  VAL104     -0.2867
    119  CB        22.7670  -27.5500  -14.6240 C.3   104  VAL104      0.0252
    120  CG1       23.9000  -28.4600  -14.1630 C.3   104  VAL104      0.0019
    121  CG2       22.1870  -28.0050  -15.9530 C.3   104  VAL104      0.0019
    122  N         31.0650  -25.0580  -13.8210 N.3   120  LEU120     -0.1245
    123  CA        29.8900  -24.8420  -14.6590 C.3   120  LEU120      0.1561
    124  C         29.7260  -23.3440  -14.9800 C.2   120  LEU120      0.2260
    125  O         29.5510  -22.9660  -16.1410 O.2   120  LEU120     -0.2867
    126  CB        28.6490  -25.4020  -13.9640 C.3   120  LEU120      0.0270
    127  CG        27.3160  -25.1780  -14.6650 C.3   120  LEU120      0.0019
    128  CD1       27.2850  -25.8930  -16.0090 C.3   120  LEU120      0.0001
    129  CD2       26.2170  -25.6470  -13.7630 C.3   120  LEU120      0.0001
    130  N         29.9700  -22.0610  -18.8500 N.3   124  ILE124     -0.1245
    131  CA        28.9430  -21.2980  -19.5400 C.3   124  ILE124      0.1561
    132  C         29.4970  -19.9800  -20.0350 C.2   124  ILE124      0.2260
    133  O         29.1600  -19.5290  -21.1310 O.2   124  ILE124     -0.2867
    134  CB        27.7480  -21.0030  -18.6200 C.3   124  ILE124      0.0252
    135  CG1       27.0870  -22.3230  -18.1970 C.3   124  ILE124      0.0019
    136  CG2       26.7790  -20.0390  -19.3180 C.3   124  ILE124      0.0019
    137  CD1       26.0720  -22.1790  -17.0740 C.3   124  ILE124      0.0001
@<TRIPOS>BOND
     1    83    82    1
     2    82    84    1
     3    82    81    2
     4    80    81    1
     5    80    79    1
     6    66    65    2
     7    65    64    1
     8    59    58    2
     9    56    57    1
    10    58    57    1
    11    58    63   am
    12    57    60    1
    13    79    78    1
    14    63    64    1
    15    64    67    1
    16    78    75    1
    17    60    61    1
    18    60    62    1
    19    67    68    1
    20    69    68   ar
    21    69    71   ar
    22    68    70   ar
    23    71    73   ar
    24    51    50    2
    25    70    72   ar
    26    73    72   ar
    27    44    43    2
    28    75    74    1
    29    75    76    1
    30    50    49    1
    31    41    42    1
    32    42    43    1
    33    42    45    1
    34    43    48   am
    35    76    77    2
    36    46    45    1
    37    48    49    1
    38    49    52    1
    39    45    47    1
    40    24    23    1
    41    52    53    1
    42    23    22    1
    43    90    89    1
    44    36    35    2
    45    89    91    1
    46    89    86    1
    47    98    97    1
    48    96    97    1
    49    96    93    1
    50    35    34    1
    51     5     2    1
    52    53    54    1
    53    99    97    1
    54    92    93    1
    55    92    87   am
    56    22    21    1
    57    93    94    1
    58    85    86    1
    59    86    87    1
    60    32    30    1
    61     2     3    1
    62     2     1    1
    63    55    54    1
    64    34    33    1
    65    34    37    1
    66    87    88    2
    67    21    18    1
    68     4     3    2
    69    18    17    1
    70    18    19    1
    71   133   132    2
    72     3     6   am
    73    30    31    1
    74    30    29    1
    75    94    95    2
    76    14    12   ar
    77    14    16   ar
    78    37    38    1
    79    25    26    1
    80    20    19    2
    81    40    38    1
    82   132   131    1
    83    26    29    1
    84    26    27    1
    85    12    11   ar
    86     6     7    1
    87   107   109   ar
    88   107   105   ar
    89   109   110   ar
    90    16    15   ar
    91   131   130    1
    92   131   134    1
    93   136   134    1
    94    38    39    1
    95   104   105    1
    96   104   101    1
    97   105   106   ar
    98   110   108   ar
    99     7     8    1
   100     7    10    1
   101    28    27    2
   102   134   135    1
   103   106   108   ar
   104    11    10    1
   105    11    13   ar
   106     8     9    2
   107    15    13   ar
   108   135   137    1
   109   100   101    1
   110   101   102    1
   111   111   102   am
   112   111   112    1
   113   102   103    2
   114   112   113    1
   115   125   124    2
   116   128   127    1
   117   121   119    1
   118   124   123    1
   119   113   114    2
   120   127   126    1
   121   127   129    1
   122   123   126    1
   123   123   122    1
   124   119   120    1
   125   119   116    1
   126   115   116    1
   127   116   117    1
   128   117   118    2
