@<TRIPOS>MOLECULE
tmp/4hw3K00.pdb
 145 135 0 0 0
SMALL
GASTEIGER

@<TRIPOS>ATOM
      1  N         26.4710  -26.6590   15.7570 N.3    57  ALA57      -0.1231
      2  CA        26.9610  -25.6930   16.7510 C.3    57  ALA57       0.1694
      3  C         27.7800  -26.3640   17.8530 C.2    57  ALA57       0.2592
      4  O         28.6100  -25.7170   18.4850 O.2    57  ALA57      -0.2718
      5  CB        25.8220  -24.9200   17.3550 C.3    57  ALA57       0.0304
      6  N         27.4890  -27.6330   18.1330 N.am   58  PHE58      -0.1976
      7  CA        28.2480  -28.3850   19.1340 C.3    58  PHE58       0.1639
      8  C         29.6960  -28.5910   18.6530 C.2    58  PHE58       0.2290
      9  O         30.6520  -28.3310   19.4080 O.2    58  PHE58      -0.2864
     10  CB        27.5750  -29.7310   19.4760 C.3    58  PHE58       0.0560
     11  CG        26.4050  -29.6020   20.4400 C.ar   58  PHE58      -0.0200
     12  CD1       25.9230  -28.3430   20.8140 C.ar   58  PHE58      -0.0042
     13  CD2       25.7950  -30.7330   20.9820 C.ar   58  PHE58      -0.0042
     14  CE1       24.8440  -28.2160   21.6960 C.ar   58  PHE58      -0.0003
     15  CE2       24.7220  -30.6140   21.8670 C.ar   58  PHE58      -0.0003
     16  CZ        24.2510  -29.3470   22.2300 C.ar   58  PHE58      -0.0000
     17  N         31.5240  -25.4110   18.9660 N.3    61  MET61      -0.1245
     18  CA        31.8680  -25.1390   20.3430 C.3    61  MET61       0.1570
     19  C         33.0520  -26.0370   20.7340 C.2    61  MET61       0.2261
     20  O         34.0410  -25.5670   21.2940 O.2    61  MET61      -0.2867
     21  CB        30.6390  -25.3950   21.2370 C.3    61  MET61       0.0387
     22  CG        30.6760  -24.8300   22.6620 C.3    61  MET61       0.0595
     23  SD        31.4090  -23.1870   22.8900 S.3    61  MET61      -0.1393
     24  CE        30.4290  -22.1840   21.7690 C.3    61  MET61       0.0692
     25  N         36.8020  -24.9770   21.8210 N.3    65  LEU65      -0.1245
     26  CA        37.2730  -25.1910   23.1920 C.3    65  LEU65       0.1561
     27  C         38.5880  -25.9750   23.2640 C.2    65  LEU65       0.2260
     28  O         39.3290  -25.8690   24.2540 O.2    65  LEU65      -0.2867
     29  CB        36.1940  -25.8330   24.0710 C.3    65  LEU65       0.0270
     30  CG        34.9920  -24.8980   24.2560 C.3    65  LEU65       0.0019
     31  CD1       33.7110  -25.6810   24.5150 C.3    65  LEU65       0.0001
     32  CD2       35.2190  -23.8100   25.3110 C.3    65  LEU65       0.0001
     33  N         39.4860  -29.2000   23.7720 N.3    67  ILE67      -0.1245
     34  CA        39.6590  -29.9780   24.9920 C.3    67  ILE67       0.1561
     35  C         40.4590  -31.2310   24.6830 C.2    67  ILE67       0.2260
     36  O         40.0240  -32.0720   23.8860 O.2    67  ILE67      -0.2867
     37  CB        38.3090  -30.3390   25.6350 C.3    67  ILE67       0.0252
     38  CG1       37.6140  -29.0780   26.1440 C.3    67  ILE67       0.0019
     39  CG2       38.4860  -31.2990   26.7790 C.3    67  ILE67       0.0019
     40  CD1       36.1160  -29.1170   25.9960 C.3    67  ILE67       0.0001
     41  N         37.0740  -25.1000   32.4410 N.3    76  LEU76      -0.1245
     42  CA        35.8600  -24.7480   31.7010 C.3    76  LEU76       0.1561
     43  C         34.8240  -23.8360   32.4260 C.2    76  LEU76       0.2260
     44  O         33.9220  -23.3120   31.7650 O.2    76  LEU76      -0.2867
     45  CB        35.1830  -26.0460   31.2410 C.3    76  LEU76       0.0270
     46  CG        35.9640  -26.8730   30.2090 C.3    76  LEU76       0.0019
     47  CD1       35.3230  -28.2400   29.9880 C.3    76  LEU76       0.0001
     48  CD2       36.0170  -26.1380   28.8790 C.3    76  LEU76       0.0001
     49  N         33.8890  -19.9230   31.0130 N.3    79  VAL79      -0.1231
     50  CA        33.2070  -19.8750   29.7280 C.3    79  VAL79       0.1692
     51  C         31.8240  -20.4880   29.8140 C.2    79  VAL79       0.2591
     52  O         30.8740  -19.9700   29.2170 O.2    79  VAL79      -0.2718
     53  CB        33.9370  -20.6760   28.6730 C.3    79  VAL79       0.0266
     54  CG1       33.8920  -19.9280   27.3440 C.3    79  VAL79       0.0020
     55  CG2       35.3040  -20.8580   29.0960 C.3    79  VAL79       0.0020
     56  N         31.7290  -21.6130   30.5220 N.am   80  MET80      -0.1979
     57  CA        30.4360  -22.2560   30.7400 C.3    80  MET80       0.1605
     58  C         29.5170  -21.2320   31.3770 C.2    80  MET80       0.2287
     59  O         28.4460  -20.9300   30.8440 O.2    80  MET80      -0.2864
     60  CB        30.5700  -23.5170   31.6260 C.3    80  MET80       0.0413
     61  CG        29.4390  -24.5400   31.4460 C.3    80  MET80       0.0598
     62  SD        29.5950  -26.1010   32.3720 S.3    80  MET80      -0.1393
     63  CE        31.3690  -26.1960   32.7210 C.3    80  MET80       0.0692
     64  N         28.6590  -18.2810   29.0110 N.3    83  VAL83      -0.1231
     65  CA        27.7310  -18.6720   27.9590 C.3    83  VAL83       0.1692
     66  C         26.3390  -19.0760   28.4780 C.2    83  VAL83       0.2592
     67  O         25.3210  -18.7390   27.8630 O.2    83  VAL83      -0.2718
     68  CB        28.3160  -19.8400   27.1410 C.3    83  VAL83       0.0266
     69  CG1       27.2670  -20.4800   26.2330 C.3    83  VAL83       0.0020
     70  CG2       29.5520  -19.3880   26.3670 C.3    83  VAL83       0.0020
     71  N         26.3010  -19.7860   29.6090 N.am   84  PHE84      -0.1976
     72  CA        25.0590  -20.3610   30.1360 C.3    84  PHE84       0.1639
     73  C         24.2330  -19.3630   30.9290 C.2    84  PHE84       0.2290
     74  O         23.0340  -19.2470   30.6870 O.2    84  PHE84      -0.2864
     75  CB        25.3710  -21.5670   31.0140 C.3    84  PHE84       0.0560
     76  CG        24.1730  -22.1760   31.6560 C.ar   84  PHE84      -0.0200
     77  CD1       24.0350  -22.1500   33.0400 C.ar   84  PHE84      -0.0042
     78  CD2       23.1710  -22.7570   30.8840 C.ar   84  PHE84      -0.0042
     79  CE1       22.9370  -22.7100   33.6490 C.ar   84  PHE84      -0.0003
     80  CE2       22.0590  -23.3250   31.4860 C.ar   84  PHE84      -0.0003
     81  CZ        21.9410  -23.2980   32.8750 C.ar   84  PHE84      -0.0000
     82  N         17.4140  -24.5140   27.9170 N.3    93  ARG93      -0.1245
     83  CA        18.7920  -24.0710   27.9920 C.3    93  ARG93       0.1563
     84  C         19.5600  -25.0650   28.8450 C.2    93  ARG93       0.2260
     85  O         20.7050  -25.4360   28.5460 O.2    93  ARG93      -0.2867
     86  CB        18.8350  -22.6880   28.6350 C.3    93  ARG93       0.0307
     87  CG        18.4220  -21.5830   27.6850 C.3    93  ARG93       0.0489
     88  CD        19.0600  -20.2410   27.9960 C.3    93  ARG93       0.2205
     89  NE        20.5020  -20.2100   27.7970 N.pl3  93  ARG93      -0.0865
     90  CZ        21.2530  -19.1350   28.0430 C.cat  93  ARG93       0.5346
     91  NH1       20.6950  -18.0140   28.5040 N.pl3  93  ARG93       0.1354
     92  NH2       22.5660  -19.1730   27.8350 N.pl3  93  ARG93       0.1354
     93  N         20.2660  -28.3730   27.0410 N.3    96  THR96      -0.1203
     94  CA        21.2740  -28.1050   26.0320 C.3    96  THR96       0.1994
     95  C         22.6560  -28.1050   26.6900 C.2    96  THR96       0.2617
     96  O         23.6150  -28.6750   26.1640 O.2    96  THR96      -0.2717
     97  CB        20.9910  -26.7650   25.3630 C.3    96  THR96       0.1784
     98  OG1       19.7270  -26.8560   24.6960 O.3    96  THR96      -0.2211
     99  CG2       22.0500  -26.4360   24.3440 C.3    96  THR96       0.0376
    100  N         22.7250  -27.5070   27.8750 N.am   97  LEU97      -0.1979
    101  CA        23.9380  -27.5090   28.6740 C.3    97  LEU97       0.1596
    102  C         24.4250  -28.9350   28.9410 C.2    97  LEU97       0.2287
    103  O         25.5970  -29.2540   28.6910 O.2    97  LEU97      -0.2864
    104  CB        23.6890  -26.7860   30.0060 C.3    97  LEU97       0.0297
    105  CG        24.7290  -26.9890   31.1130 C.3    97  LEU97       0.0022
    106  CD1       25.9590  -26.1000   30.9260 C.3    97  LEU97       0.0001
    107  CD2       24.1200  -26.7640   32.4930 C.3    97  LEU97       0.0001
    108  N         25.2750  -30.9940   25.6210 N.3   100  PHE100     -0.1227
    109  CA        26.5930  -30.6550   25.1020 C.3   100  PHE100      0.1736
    110  C         27.6730  -31.2720   25.9810 C.2   100  PHE100      0.2596
    111  O         28.7780  -31.5850   25.5080 O.2   100  PHE100     -0.2718
    112  CB        26.8150  -29.1520   24.9830 C.3   100  PHE100      0.0547
    113  CG        28.1690  -28.8040   24.4170 C.ar  100  PHE100     -0.0202
    114  CD1       28.5040  -29.1720   23.1170 C.ar  100  PHE100     -0.0042
    115  CD2       29.1240  -28.1580   25.2070 C.ar  100  PHE100     -0.0042
    116  CE1       29.7560  -28.8780   22.5940 C.ar  100  PHE100     -0.0003
    117  CE2       30.3750  -27.8500   24.7020 C.ar  100  PHE100     -0.0003
    118  CZ        30.6970  -28.2140   23.3820 C.ar  100  PHE100     -0.0000
    119  N         27.3540  -31.4460   27.2610 N.am  101  GLY101     -0.1957
    120  CA        28.2290  -32.1740   28.1560 C.3   101  GLY101      0.1869
    121  C         28.4240  -33.5990   27.6550 C.2   101  GLY101      0.2309
    122  O         29.5480  -34.1450   27.6260 O.2   101  GLY101     -0.2863
    123  N         30.7130  -33.6030   24.6410 N.3   104  VAL104     -0.1245
    124  CA        32.1230  -33.4910   24.9790 C.3   104  VAL104      0.1561
    125  C         32.6290  -34.8210   25.5470 C.2   104  VAL104      0.2260
    126  O         33.7570  -35.2510   25.2540 O.2   104  VAL104     -0.2867
    127  CB        32.3690  -32.3600   25.9980 C.3   104  VAL104      0.0252
    128  CG1       33.8100  -32.3840   26.4860 C.3   104  VAL104      0.0019
    129  CG2       32.0400  -31.0240   25.3830 C.3   104  VAL104      0.0019
    130  N         34.3930  -33.4260   34.2130 N.3   120  LEU120     -0.1245
    131  CA        33.4910  -32.6600   33.3670 C.3   120  LEU120      0.1561
    132  C         32.0930  -32.6160   34.0120 C.2   120  LEU120      0.2260
    133  O         31.4420  -31.5670   34.0660 O.2   120  LEU120     -0.2867
    134  CB        33.4150  -33.2520   31.9710 C.3   120  LEU120      0.0270
    135  CG        32.3770  -32.6270   31.0450 C.3   120  LEU120      0.0019
    136  CD1       32.7430  -31.2000   30.6390 C.3   120  LEU120      0.0001
    137  CD2       32.2320  -33.4940   29.7960 C.3   120  LEU120      0.0001
    138  N         30.0930  -29.1500   35.2250 N.3   124  ILE124     -0.1245
    139  CA        28.7810  -28.7620   34.7400 C.3   124  ILE124      0.1561
    140  C         27.7840  -28.6460   35.9140 C.2   124  ILE124      0.2260
    141  O         27.0920  -27.6200   36.0520 O.2   124  ILE124     -0.2867
    142  CB        28.2670  -29.7590   33.6970 C.3   124  ILE124      0.0252
    143  CG1       29.1800  -29.7380   32.4650 C.3   124  ILE124      0.0019
    144  CG2       26.8160  -29.4250   33.3190 C.3   124  ILE124      0.0019
    145  CD1       28.9270  -30.8750   31.4880 C.3   124  ILE124      0.0001
@<TRIPOS>BOND
     1     1     2    1
     2     2     5    1
     3     2     3    1
     4     3     6   am
     5     3     4    2
     6     6     7    1
     7     8     7    1
     8     8     9    2
     9    17    18    1
    10     7    10    1
    11    10    11    1
    12    18    19    1
    13    18    21    1
    14    11    12   ar
    15    11    13   ar
    16    19    20    2
    17    12    14   ar
    18    13    15   ar
    19    21    22    1
    20    14    16   ar
    21    24    23    1
    22    25    26    1
    23    15    16   ar
    24   116   114   ar
    25   116   118   ar
    26    22    23    1
    27   114   113   ar
    28    26    27    1
    29    26    29    1
    30    27    28    2
    31   118   117   ar
    32    33    34    1
    33    36    35    2
    34    29    30    1
    35    30    31    1
    36    30    32    1
    37    99    97    1
    38   113   112    1
    39   113   115   ar
    40   123   124    1
    41    35    34    1
    42    98    97    1
    43   117   115   ar
    44   124   125    1
    45   124   127    1
    46   112   109    1
    47    34    37    1
    48   109   108    1
    49   109   110    1
    50   126   125    2
    51    97    94    1
    52   129   127    1
    53   111   110    2
    54    37    38    1
    55    37    39    1
    56   110   119   am
    57    40    38    1
    58   127   128    1
    59    94    95    1
    60    94    93    1
    61    96    95    2
    62    69    68    1
    63    70    68    1
    64    95   100   am
    65    68    65    1
    66   119   120    1
    67    54    53    1
    68   122   121    2
    69   121   120    1
    70    87    88    1
    71    87    86    1
    72    89    88    1
    73    89    90    2
    74    92    90    1
    75    67    66    2
    76   100   101    1
    77    82    83    1
    78    65    66    1
    79    65    64    1
    80    83    86    1
    81    83    84    1
    82    90    91    1
    83    66    71   am
    84    85    84    2
    85    53    55    1
    86    53    50    1
    87   101   102    1
    88   101   104    1
    89   103   102    2
    90    48    46    1
    91    52    51    2
    92    71    72    1
    93    50    51    1
    94    50    49    1
    95   137   135    1
    96    51    56   am
    97    47    46    1
    98   104   105    1
    99    72    73    1
   100    72    75    1
   101    46    45    1
   102    56    57    1
   103   136   135    1
   104    74    73    2
   105    57    58    1
   106    57    60    1
   107    59    58    2
   108    78    80   ar
   109    78    76   ar
   110   106   105    1
   111    75    76    1
   112   135   134    1
   113   105   107    1
   114    45    42    1
   115    61    60    1
   116    61    62    1
   117    80    81   ar
   118   145   143    1
   119    76    77   ar
   120    42    43    1
   121    42    41    1
   122    44    43    2
   123   134   131    1
   124    62    63    1
   125   143   142    1
   126    81    79   ar
   127    77    79   ar
   128   144   142    1
   129   131   132    1
   130   131   130    1
   131   142   139    1
   132   132   133    2
   133   139   138    1
   134   139   140    1
   135   140   141    2
