@<TRIPOS>MOLECULE
tmp/4hw7A00.pdb
 193 180 0 0 0
SMALL
GASTEIGER

@<TRIPOS>ATOM
      1  N         29.0960   18.8300   68.9030 N.3    23  LEU23      -0.1245
      2  CA        28.6910   18.2180   70.1640 C.3    23  LEU23       0.1561
      3  C         29.0740   19.0760   71.3630 C.2    23  LEU23       0.2260
      4  O         28.4440   19.0080   72.4130 O.2    23  LEU23      -0.2867
      5  CB        29.3180   16.8300   70.2980 C.3    23  LEU23       0.0270
      6  CG        29.0400   15.8480   69.1620 C.3    23  LEU23       0.0019
      7  CD1       29.9470   14.6350   69.2690 C.3    23  LEU23       0.0001
      8  CD2       27.5840   15.4240   69.1610 C.3    23  LEU23       0.0001
      9  N         34.2480   19.7260   69.6270 N.3    31  VAL31      -0.1245
     10  CA        34.0530   18.3410   69.2380 C.3    31  VAL31       0.1561
     11  C         32.8230   18.2710   68.3480 C.2    31  VAL31       0.2260
     12  O         31.7490   18.7310   68.7240 O.2    31  VAL31      -0.2867
     13  CB        33.8700   17.4280   70.4490 C.3    31  VAL31       0.0252
     14  CG1       33.2270   16.1230   70.0330 C.3    31  VAL31       0.0019
     15  CG2       35.2040   17.1720   71.1190 C.3    31  VAL31       0.0019
     16  N         33.3230   10.8860   67.0070 N.3    49  ALA49      -0.1245
     17  CA        33.4630   12.2010   67.5860 C.3    49  ALA49       0.1562
     18  C         34.8180   12.6950   67.1360 C.2    49  ALA49       0.2260
     19  O         35.8220   12.0120   67.3120 O.2    49  ALA49      -0.2867
     20  CB        33.4000   12.1090   69.0770 C.3    49  ALA49       0.0290
     21  N         37.7150   15.6440   67.3620 N.3    51  LYS51      -0.1245
     22  CA        38.1840   16.7510   68.1750 C.3    51  LYS51       0.1561
     23  C         39.1230   17.6050   67.3500 C.2    51  LYS51       0.2260
     24  O         40.0740   17.0960   66.7620 O.2    51  LYS51      -0.2867
     25  CB        38.8910   16.2230   69.4210 C.3    51  LYS51       0.0271
     26  CG        39.0160   17.2380   70.5380 C.3    51  LYS51       0.0035
     27  CD        39.6880   16.6340   71.7540 C.3    51  LYS51       0.0206
     28  CE        39.7330   17.6320   72.8940 C.3    51  LYS51       0.1093
     29  NZ        40.5240   17.1320   74.0530 N.3    51  LYS51      -0.1314
     30  N         48.2550   15.4800   73.1330 N.3    68  GLU68      -0.1245
     31  CA        47.1260   14.6870   73.5830 C.3    68  GLU68       0.1567
     32  C         46.9720   13.4560   72.6980 C.2    68  GLU68       0.2260
     33  O         46.7610   12.3480   73.1850 O.2    68  GLU68      -0.2867
     34  CB        45.8720   15.5530   73.5190 C.3    68  GLU68       0.0388
     35  CG        44.5800   14.8640   73.8790 C.3    68  GLU68       0.1160
     36  CD        43.3870   15.7760   73.6540 C.2    68  GLU68       0.3649
     37  OE1       43.5300   17.0030   73.8530 O.co2  68  GLU68      -0.2457
     38  OE2       42.3150   15.2800   73.2550 O.co2  68  GLU68      -0.2457
     39  N         49.6660   10.9100   73.3490 N.3    71  ILE71      -0.1231
     40  CA        49.4070   10.1810   74.5850 C.3    71  ILE71       0.1692
     41  C         48.3720    9.0760   74.3810 C.2    71  ILE71       0.2591
     42  O         48.5870    7.9330   74.7810 O.2    71  ILE71      -0.2718
     43  CB        48.9680   11.1290   75.7200 C.3    71  ILE71       0.0266
     44  CG1       50.1070   12.0810   76.0920 C.3    71  ILE71       0.0019
     45  CG2       48.5570   10.3430   76.9480 C.3    71  ILE71       0.0020
     46  CD1       49.7120   13.1020   77.1310 C.3    71  ILE71       0.0001
     47  N         47.2570    9.4200   73.7450 N.am   72  MET72      -0.1979
     48  CA        46.2050    8.4500   73.4560 C.3    72  MET72       0.1605
     49  C         46.7360    7.2490   72.6820 C.2    72  MET72       0.2287
     50  O         46.2840    6.1200   72.8870 O.2    72  MET72      -0.2864
     51  CB        45.0710    9.1240   72.6950 C.3    72  MET72       0.0413
     52  CG        44.4870   10.2900   73.4590 C.3    72  MET72       0.0598
     53  SD        43.1160   11.0990   72.6360 S.3    72  MET72      -0.1393
     54  CE        41.8170    9.8960   72.8740 C.3    72  MET72       0.0692
     55  N         48.9650    5.2510   75.4230 N.3    75  LEU75      -0.1245
     56  CA        48.1780    4.5890   76.4660 C.3    75  LEU75       0.1561
     57  C         47.7450    3.1630   76.1560 C.2    75  LEU75       0.2260
     58  O         47.9480    2.2540   76.9550 O.2    75  LEU75      -0.2867
     59  CB        46.9250    5.4080   76.7750 C.3    75  LEU75       0.0270
     60  CG        47.0850    6.7400   77.4940 C.3    75  LEU75       0.0019
     61  CD1       45.7510    7.4660   77.5360 C.3    75  LEU75       0.0001
     62  CD2       47.6110    6.5050   78.8940 C.3    75  LEU75       0.0001
     63  N         37.5280    3.8830   78.7870 N.3    81  ILE81      -0.1231
     64  CA        38.0220    5.2120   78.4690 C.3    81  ILE81       0.1692
     65  C         37.4850    5.5430   77.0930 C.2    81  ILE81       0.2591
     66  O         36.9620    4.6740   76.3990 O.2    81  ILE81      -0.2718
     67  CB        39.5500    5.2730   78.4160 C.3    81  ILE81       0.0266
     68  CG1       40.0680    4.4590   77.2280 C.3    81  ILE81       0.0019
     69  CG2       40.1460    4.7890   79.7290 C.3    81  ILE81       0.0020
     70  CD1       41.5660    4.4270   77.1180 C.3    81  ILE81       0.0001
     71  N         37.6020    6.8040   76.7050 N.am   82  VAL82      -0.1980
     72  CA        37.2380    7.2180   75.3610 C.3    82  VAL82       0.1595
     73  C         38.4220    6.9270   74.4380 C.2    82  VAL82       0.2287
     74  O         39.4570    7.5890   74.5190 O.2    82  VAL82      -0.2864
     75  CB        36.8630    8.7130   75.3250 C.3    82  VAL82       0.0276
     76  CG1       36.5910    9.1530   73.8960 C.3    82  VAL82       0.0022
     77  CG2       35.6530    8.9700   76.2070 C.3    82  VAL82       0.0022
     78  N         41.3330   14.7830   65.5270 N.3    96  VAL96      -0.1245
     79  CA        41.4540   13.6150   66.3950 C.3    96  VAL96       0.1561
     80  C         40.1550   12.8190   66.4100 C.2    96  VAL96       0.2260
     81  O         39.1180   13.3130   66.8390 O.2    96  VAL96      -0.2867
     82  CB        41.8210   14.0140   67.8290 C.3    96  VAL96       0.0252
     83  CG1       41.9960   12.7760   68.6920 C.3    96  VAL96       0.0019
     84  CG2       43.0850   14.8450   67.8410 C.3    96  VAL96       0.0019
     85  N         37.7970    9.9720   67.7110 N.3    98  THR98      -0.1203
     86  CA        37.5600    9.1360   68.8760 C.3    98  THR98       0.1994
     87  C         36.1900    8.4730   68.8330 C.2    98  THR98       0.2618
     88  O         35.3820    8.7530   67.9520 O.2    98  THR98      -0.2717
     89  CB        37.6790    9.9500   70.1640 C.3    98  THR98       0.1784
     90  OG1       36.7160   11.0090   70.1490 O.3    98  THR98      -0.2211
     91  CG2       39.0680   10.5480   70.2760 C.3    98  THR98       0.0376
     92  N         35.9370    7.5950   69.7970 N.am   99  GLU99      -0.1965
     93  CA        34.6580    6.9120   69.8970 C.3    99  GLU99       0.1733
     94  C         33.5400    7.9070   70.1850 C.2    99  GLU99       0.2616
     95  O         33.7210    8.8390   70.9600 O.2    99  GLU99      -0.2715
     96  CB        34.7180    5.8500   70.9940 C.3    99  GLU99       0.0429
     97  CG        35.6920    4.7270   70.7120 C.3    99  GLU99       0.1163
     98  CD        35.7020    3.6900   71.8120 C.2    99  GLU99       0.3649
     99  OE1       35.4980    2.4990   71.5000 O.co2  99  GLU99      -0.2457
    100  OE2       35.9130    4.0650   72.9860 O.co2  99  GLU99      -0.2457
    101  N         32.3890    7.7030   69.5520 N.am  100  TYR100     -0.1960
    102  CA        31.2160    8.5430   69.7680 C.3   100  TYR100      0.1771
    103  C         30.2960    7.9030   70.7980 C.2   100  TYR100      0.2619
    104  O         29.9220    6.7340   70.6890 O.2   100  TYR100     -0.2715
    105  CB        30.4850    8.7810   68.4460 C.3   100  TYR100      0.0574
    106  CG        29.0980    9.3810   68.5580 C.ar  100  TYR100     -0.0198
    107  CD1       28.9200   10.7460   68.7320 C.ar  100  TYR100     -0.0009
    108  CD2       27.9660    8.5830   68.4460 C.ar  100  TYR100     -0.0009
    109  CE1       27.6500   11.2980   68.8170 C.ar  100  TYR100      0.0417
    110  CE2       26.6960    9.1220   68.5310 C.ar  100  TYR100      0.0417
    111  CZ        26.5430   10.4790   68.7160 C.ar  100  TYR100      0.1957
    112  OH        25.2750   11.0080   68.8000 O.3   100  TYR100     -0.2866
    113  N         29.9460    8.6850   71.8100 N.am  101  CYS101     -0.1968
    114  CA        29.1490    8.1910   72.9180 C.3   101  CYS101      0.1712
    115  C         27.7640    8.8150   72.8900 C.2   101  CYS101      0.2296
    116  O         27.5590    9.9650   73.2730 O.2   101  CYS101     -0.2864
    117  CB        29.8520    8.4610   74.2430 C.3   101  CYS101      0.0983
    118  SG        31.5540    7.8780   74.2670 S.3   101  CYS101     -0.0798
    119  N         26.2090   11.2610   75.6080 N.3   104  GLY104     -0.1210
    120  CA        26.9480   12.4260   76.0480 C.3   104  GLY104      0.1956
    121  C         27.5630   12.2190   77.4190 C.2   104  GLY104      0.2611
    122  O         27.7260   11.0890   77.8740 O.2   104  GLY104     -0.2717
    123  N         27.9120   13.3150   78.0800 N.am  105  ASP105     -0.1973
    124  CA        28.5570   13.2270   79.3800 C.3   105  ASP105      0.1709
    125  C         27.5760   12.7140   80.4220 C.2   105  ASP105      0.2293
    126  O         26.3560   12.7820   80.2380 O.2   105  ASP105     -0.2864
    127  CB        29.1510   14.5710   79.8100 C.3   105  ASP105      0.1436
    128  CG        28.0990   15.6400   80.0050 C.2   105  ASP105      0.3671
    129  OD1       27.2120   15.7670   79.1390 O.co2 105  ASP105     -0.2456
    130  OD2       28.1640   16.3530   81.0270 O.co2 105  ASP105     -0.2456
    131  N         44.4280    3.7770   83.3930 N.3   144  LEU144     -0.1245
    132  CA        45.3730    4.8820   83.2750 C.3   144  LEU144      0.1561
    133  C         46.4950    4.7390   84.2940 C.2   144  LEU144      0.2260
    134  O         47.6680    4.8260   83.9510 O.2   144  LEU144     -0.2867
    135  CB        44.6580    6.2280   83.4440 C.3   144  LEU144      0.0270
    136  CG        43.4730    6.4390   82.4970 C.3   144  LEU144      0.0019
    137  CD1       42.8840    7.8370   82.6240 C.3   144  LEU144      0.0001
    138  CD2       43.8880    6.1660   81.0630 C.3   144  LEU144      0.0001
    139  N         49.6400    7.2260   84.0970 N.3   149  CYS149     -0.1235
    140  CA        48.9510    8.3230   83.4420 C.3   149  CYS149      0.1677
    141  C         48.0410    9.0810   84.4050 C.2   149  CYS149      0.2270
    142  O         47.2720    8.4820   85.1550 O.2   149  CYS149     -0.2867
    143  CB        48.1460    7.8080   82.2510 C.3   149  CYS149      0.0956
    144  SG        47.2080    9.0890   81.3970 S.3   149  CYS149     -0.0801
    145  N         45.1310   12.0310   84.9110 N.3   151  HIS151     -0.1241
    146  CA        44.0510   12.7210   84.2210 C.3   151  HIS151      0.1621
    147  C         43.9540   14.2090   84.5720 C.2   151  HIS151      0.2264
    148  O         43.7110   15.0430   83.6980 O.2   151  HIS151     -0.2867
    149  CB        42.7350   12.0230   84.5390 C.3   151  HIS151      0.0745
    150  CG        41.6170   12.3870   83.6190 C.ar  151  HIS151      0.0817
    151  ND1       41.0570   13.6450   83.5880 N.ar  151  HIS151     -0.2268
    152  CD2       40.9440   11.6500   82.7050 C.ar  151  HIS151      0.1154
    153  CE1       40.0880   13.6690   82.6900 C.ar  151  HIS151      0.1986
    154  NE2       39.9990   12.4720   82.1410 N.ar  151  HIS151     -0.2212
    155  N         31.8020    9.8360   79.6840 N.3   160  LEU160     -0.1245
    156  CA        30.8270    9.7180   78.5990 C.3   160  LEU160      0.1561
    157  C         30.1370    8.3650   78.5260 C.2   160  LEU160      0.2260
    158  O         30.7320    7.3370   78.8360 O.2   160  LEU160     -0.2867
    159  CB        31.4790   10.0700   77.2640 C.3   160  LEU160      0.0270
    160  CG        31.9210   11.5310   77.2680 C.3   160  LEU160      0.0019
    161  CD1       33.4050   11.6700   76.9820 C.3   160  LEU160      0.0001
    162  CD2       31.0880   12.3260   76.2890 C.3   160  LEU160      0.0001
    163  N         35.7930    7.3210   80.5650 N.3   169  ILE169     -0.1231
    164  CA        36.4120    8.5540   81.0220 C.3   169  ILE169      0.1692
    165  C         37.1230    9.2600   79.8700 C.2   169  ILE169      0.2593
    166  O         37.9400    8.6570   79.1830 O.2   169  ILE169     -0.2718
    167  CB        37.3720    8.3070   82.2120 C.3   169  ILE169      0.0266
    168  CG1       38.1720    9.5720   82.5360 C.3   169  ILE169      0.0019
    169  CG2       38.2790    7.1280   81.9410 C.3   169  ILE169      0.0020
    170  CD1       37.3370   10.6890   83.1470 C.3   169  ILE169      0.0001
    171  N         36.7960   10.5350   79.6630 N.am  170  GLY170     -0.1942
    172  CA        37.4230   11.3470   78.6330 C.3   170  GLY170      0.2014
    173  C         37.8630   12.7080   79.1450 C.2   170  GLY170      0.2639
    174  O         37.8760   12.9500   80.3410 O.2   170  GLY170     -0.2714
    175  N         38.2310   13.5980   78.2320 N.am  171  ASP171     -0.1957
    176  CA        38.6130   14.9600   78.5900 C.3   171  ASP171      0.1840
    177  C         38.2490   15.9220   77.4560 C.2   171  ASP171      0.2622
    178  O         38.9220   15.9570   76.4270 O.2   171  ASP171     -0.2715
    179  CB        40.1150   15.0380   78.8960 C.3   171  ASP171      0.1450
    180  CG        40.5190   16.3480   79.5720 C.2   171  ASP171      0.3671
    181  OD1       39.7100   17.3020   79.6020 O.co2 171  ASP171     -0.2456
    182  OD2       41.6620   16.4260   80.0720 O.co2 171  ASP171     -0.2456
    183  N         37.1830   16.6960   77.6460 N.am  172  PHE172     -0.1974
    184  CA        36.7780   17.7030   76.6650 C.3   172  PHE172      0.1639
    185  C         37.8630   18.7420   76.4030 C.2   172  PHE172      0.2290
    186  O         38.0280   19.2050   75.2760 O.2   172  PHE172     -0.2864
    187  CB        35.4870   18.3910   77.0910 C.3   172  PHE172      0.0560
    188  CG        34.2570   17.6010   76.7740 C.ar  172  PHE172     -0.0200
    189  CD1       33.4150   17.9800   75.7440 C.ar  172  PHE172     -0.0042
    190  CD2       33.9490   16.4660   77.5000 C.ar  172  PHE172     -0.0042
    191  CE1       32.2800   17.2440   75.4540 C.ar  172  PHE172     -0.0003
    192  CE2       32.8200   15.7280   77.2160 C.ar  172  PHE172     -0.0003
    193  CZ        31.9840   16.1140   76.1940 C.ar  172  PHE172     -0.0000
@<TRIPOS>BOND
     1    78    79    1
     2    79    80    1
     3    79    82    1
     4    80    81    2
     5    24    23    2
     6    16    17    1
     7    18    19    2
     8    18    17    1
     9    23    22    1
    10    21    22    1
    11    17    20    1
    12    85    86    1
    13    82    84    1
    14    82    83    1
    15    88    87    2
    16    22    25    1
    17    11    12    2
    18    11    10    1
    19   108   110   ar
    20   108   106   ar
    21   105   106    1
    22   105   102    1
    23   110   111   ar
    24   106   107   ar
    25   111   112    1
    26   111   109   ar
    27   107   109   ar
    28    87    86    1
    29    87    92   am
    30    86    89    1
    31     1     2    1
    32     8     6    1
    33     6     7    1
    34     6     5    1
    35    10     9    1
    36    10    13    1
    37    25    26    1
    38   101   102    1
    39   101    94   am
    40   102   103    1
    41    92    93    1
    42    93    94    1
    43    93    96    1
    44    14    13    1
    45    90    89    1
    46    89    91    1
    47     2     5    1
    48     2     3    1
    49    94    95    2
    50    13    15    1
    51    26    27    1
    52   104   103    2
    53    97    96    1
    54    97    98    1
    55   103   113   am
    56     3     4    2
    57    99    98   ar
    58    27    28    1
    59   113   114    1
    60    98   100   ar
    61    53    54    1
    62    53    52    1
    63    49    50    2
    64    49    48    1
    65    51    48    1
    66    51    52    1
    67    32    33    2
    68    32    31    1
    69   115   114    1
    70   115   116    2
    71    28    29    1
    72   114   117    1
    73    30    31    1
    74    38    36   ar
    75    39    40    1
    76    48    47    1
    77    34    31    1
    78    34    35    1
    79    36    37   ar
    80    36    35    1
    81    47    41   am
    82    76    75    1
    83   117   118    1
    84    41    40    1
    85    41    42    2
    86    73    74    2
    87    73    72    1
    88    40    43    1
    89   186   185    2
    90    75    72    1
    91    75    77    1
    92    72    71    1
    93    55    56    1
    94   191   189   ar
    95   191   193   ar
    96   119   120    1
    97    43    44    1
    98    43    45    1
    99   189   188   ar
   100   120   121    1
   101    44    46    1
   102    57    56    1
   103    57    58    2
   104   193   192   ar
   105   162   160    1
   106    66    65    2
   107   185   184    1
   108   178   177    2
   109    56    59    1
   110   184   187    1
   111   184   183    1
   112    71    65   am
   113   188   187    1
   114   188   190   ar
   115    59    60    1
   116   161   160    1
   117    65    64    1
   118    70    68    1
   119   192   190   ar
   120    68    67    1
   121   159   160    1
   122   159   156    1
   123   121   122    2
   124   121   123   am
   125   177   183   am
   126   177   176    1
   127    60    61    1
   128    60    62    1
   129   123   124    1
   130   175   176    1
   131   175   173   am
   132    67    64    1
   133    67    69    1
   134    64    63    1
   135   157   156    1
   136   157   158    2
   137   176   179    1
   138   156   155    1
   139   172   173    1
   140   172   171    1
   141   179   180    1
   142   129   128   ar
   143   173   174    2
   144   166   165    2
   145   124   127    1
   146   124   125    1
   147   180   181   ar
   148   180   182   ar
   149   171   165   am
   150   127   128    1
   151   165   164    1
   152   128   130   ar
   153   126   125    2
   154   163   164    1
   155   164   167    1
   156   138   136    1
   157   144   143    1
   158   169   167    1
   159   154   153   ar
   160   154   152   ar
   161   167   168    1
   162   143   140    1
   163   136   137    1
   164   136   135    1
   165   168   170    1
   166   153   151   ar
   167   152   150   ar
   168   132   131    1
   169   132   135    1
   170   132   133    1
   171   140   139    1
   172   140   141    1
   173   151   150   ar
   174   150   149    1
   175   148   147    2
   176   134   133    2
   177   146   149    1
   178   146   147    1
   179   146   145    1
   180   141   142    2
