@<TRIPOS>MOLECULE
tmp/4hwbA02.pdb
 97 94 0 0 0
SMALL
GASTEIGER

@<TRIPOS>ATOM
      1  N          2.7110  -61.3620   50.9160 N.3    29  ILE29      -0.1231
      2  CA         2.6470  -62.4400   49.9280 C.3    29  ILE29       0.1692
      3  C          2.8410  -63.7860   50.6350 C.2    29  ILE29       0.2592
      4  O          1.9250  -64.6130   50.6260 O.2    29  ILE29      -0.2718
      5  CB         3.5950  -62.2350   48.7070 C.3    29  ILE29       0.0266
      6  CG1        3.0080  -61.2220   47.7050 C.3    29  ILE29       0.0019
      7  CG2        3.8870  -63.5540   47.9830 C.3    29  ILE29       0.0020
      8  CD1        3.9720  -60.1870   47.3280 C.3    29  ILE29       0.0001
      9  N          3.9990  -63.9610   51.3070 N.am   30  SER30      -0.1952
     10  CA         4.4070  -65.1860   51.9990 C.3    30  SER30       0.1924
     11  C          3.3010  -65.9010   52.8000 C.2    30  SER30       0.2314
     12  O          3.2430  -67.1320   52.7700 O.2    30  SER30      -0.2863
     13  CB         5.6120  -64.9190   52.8920 C.3    30  SER30       0.2116
     14  OG         6.5830  -64.0980   52.2690 O.3    30  SER30      -0.2180
     15  N         -0.2530  -66.5240   49.8830 N.3    33  LEU33      -0.1231
     16  CA        -0.1290  -67.4830   48.7860 C.3    33  LEU33       0.1693
     17  C          0.5400  -68.8150   49.1510 C.2    33  LEU33       0.2592
     18  O          1.3420  -68.8980   50.0840 O.2    33  LEU33      -0.2718
     19  CB         0.5210  -66.8560   47.5240 C.3    33  LEU33       0.0284
     20  CG         0.1620  -65.4240   47.1070 C.3    33  LEU33       0.0019
     21  CD1        0.7610  -65.1140   45.7820 C.3    33  LEU33       0.0001
     22  CD2       -1.3380  -65.2220   46.9700 C.3    33  LEU33       0.0001
     23  N          0.1860  -69.8550   48.3850 N.am   34  PHE34      -0.1962
     24  CA         0.7220  -71.2080   48.4570 C.3    34  PHE34       0.1771
     25  C          0.4960  -71.8950   47.1060 C.2    34  PHE34       0.2619
     26  O         -0.4150  -71.5130   46.3390 O.2    34  PHE34      -0.2715
     27  CB         0.1630  -72.0180   49.6480 C.3    34  PHE34       0.0574
     28  CG        -1.2760  -72.4560   49.5390 C.ar   34  PHE34      -0.0200
     29  CD1       -2.3050  -71.6470   50.0060 C.ar   34  PHE34      -0.0042
     30  CD2       -1.6060  -73.6910   48.9810 C.ar   34  PHE34      -0.0042
     31  CE1       -3.6450  -72.0460   49.8840 C.ar   34  PHE34      -0.0003
     32  CE2       -2.9470  -74.0870   48.8510 C.ar   34  PHE34      -0.0003
     33  CZ        -3.9570  -73.2660   49.3140 C.ar   34  PHE34      -0.0000
     34  N          1.3560  -72.8720   46.7860 N.am   35  TYR35      -0.1974
     35  CA         1.2370  -73.6030   45.5250 C.3    35  TYR35       0.1639
     36  C          0.6300  -74.9350   45.7880 C.2    35  TYR35       0.2290
     37  O          0.9090  -75.5570   46.8050 O.2    35  TYR35      -0.2864
     38  CB         2.5900  -73.8300   44.8430 C.3    35  TYR35       0.0560
     39  CG         3.3130  -72.5720   44.4610 C.ar   35  TYR35      -0.0198
     40  CD1        2.8490  -71.7660   43.4280 C.ar   35  TYR35      -0.0009
     41  CD2        4.5050  -72.2220   45.0750 C.ar   35  TYR35      -0.0009
     42  CE1        3.5410  -70.6200   43.0380 C.ar   35  TYR35       0.0417
     43  CE2        5.2030  -71.0750   44.7020 C.ar   35  TYR35       0.0417
     44  CZ         4.7120  -70.2680   43.6900 C.ar   35  TYR35       0.1957
     45  OH         5.4190  -69.1540   43.3040 O.3    35  TYR35      -0.2866
     46  N          2.7190  -76.3860   48.7360 N.3    52  VAL52      -0.1231
     47  CA         4.0040  -75.7240   49.0140 C.3    52  VAL52       0.1692
     48  C          3.7880  -74.4050   49.7710 C.2    52  VAL52       0.2592
     49  O          3.1150  -73.4930   49.2560 O.2    52  VAL52      -0.2718
     50  CB         4.8380  -75.4960   47.7310 C.3    52  VAL52       0.0266
     51  CG1        6.1420  -74.7710   48.0420 C.3    52  VAL52       0.0020
     52  CG2        5.1130  -76.8050   47.0130 C.3    52  VAL52       0.0020
     53  N          4.3790  -74.3090   50.9960 N.am   53  GLN53      -0.1966
     54  CA         4.2950  -73.1090   51.8340 C.3    53  GLN53       0.1733
     55  C          5.5560  -72.2660   51.6440 C.2    53  GLN53       0.2616
     56  O          5.4630  -71.0510   51.4570 O.2    53  GLN53      -0.2715
     57  CB         4.0750  -73.4990   53.2900 C.3    53  GLN53       0.0408
     58  CG         4.1910  -72.3770   54.3010 C.3    53  GLN53       0.0908
     59  CD         2.8920  -71.6450   54.5390 C.2    53  GLN53       0.2608
     60  OE1        1.9180  -71.7980   53.7980 O.2    53  GLN53      -0.2717
     61  NE2        2.8440  -70.8260   55.6000 N.am   53  GLN53      -0.0878
     62  N          6.7220  -72.9230   51.6650 N.am   54  GLU54      -0.1963
     63  CA         8.0260  -72.2970   51.4900 C.3    54  GLU54       0.1733
     64  C          8.6500  -72.6900   50.1530 C.2    54  GLU54       0.2616
     65  O          8.8800  -73.8730   49.8920 O.2    54  GLU54      -0.2715
     66  CB         8.9760  -72.6960   52.6320 C.3    54  GLU54       0.0429
     67  CG         8.7960  -71.9110   53.9140 C.3    54  GLU54       0.1163
     68  CD         9.5340  -72.5240   55.0910 C.2    54  GLU54       0.3649
     69  OE1        9.0680  -73.5650   55.6160 O.co2  54  GLU54      -0.2457
     70  OE2       10.5860  -71.9650   55.4830 O.co2  54  GLU54      -0.2457
     71  N          8.9520  -71.6980   49.3240 N.am   55  ALA55      -0.1963
     72  CA         9.6260  -71.8920   48.0440 C.3    55  ALA55       0.1728
     73  C         11.0280  -71.2190   48.1430 C.2    55  ALA55       0.2616
     74  O         11.4660  -70.5010   47.2330 O.2    55  ALA55      -0.2715
     75  CB         8.7930  -71.2860   46.9270 C.3    55  ALA55       0.0334
     76  N         11.7130  -71.4460   49.2970 N.am   56  LYS56      -0.1977
     77  CA        13.0200  -70.8720   49.6190 C.3    56  LYS56       0.1596
     78  C         14.1870  -71.7600   49.1500 C.2    56  LYS56       0.2287
     79  O         14.1610  -72.9790   49.3850 O.2    56  LYS56      -0.2864
     80  CB        13.1170  -70.5920   51.1110 C.3    56  LYS56       0.0298
     81  CG        11.9670  -69.7710   51.6310 C.3    56  LYS56       0.0038
     82  CD        12.1710  -68.3130   51.3700 C.3    56  LYS56       0.0206
     83  CE        11.0870  -67.4200   51.9590 C.3    56  LYS56       0.1093
     84  NZ         9.7310  -67.7320   51.5250 N.3    56  LYS56      -0.1314
     85  N         13.0770  -70.2000   42.5450 N.3    70  SER70      -0.1217
     86  CA        12.2890  -70.8450   43.6020 C.3    70  SER70       0.1889
     87  C         12.6270  -72.3160   43.7350 C.2    70  SER70       0.2288
     88  O         12.7290  -72.9990   42.7250 O.2    70  SER70      -0.2866
     89  CB        10.8010  -70.7240   43.2970 C.3    70  SER70       0.2089
     90  OG        10.3280  -69.4180   43.5680 O.3    70  SER70      -0.2183
     91  N         -1.4030  -71.6080   41.8890 N.3    89  VAL89      -0.1245
     92  CA        -1.2190  -70.7300   43.0430 C.3    89  VAL89       0.1561
     93  C         -2.6110  -70.4930   43.6610 C.2    89  VAL89       0.2260
     94  O         -3.5800  -70.2250   42.9350 O.2    89  VAL89      -0.2867
     95  CB        -0.4080  -69.4240   42.7390 C.3    89  VAL89       0.0252
     96  CG1       -1.0660  -68.5660   41.6770 C.3    89  VAL89       0.0019
     97  CG2       -0.1790  -68.6020   43.9930 C.3    89  VAL89       0.0019
@<TRIPOS>BOND
     1    96    95    1
     2    91    92    1
     3    85    86    1
     4    88    87    2
     5    95    92    1
     6    95    97    1
     7    94    93    2
     8    42    40   ar
     9    42    44   ar
    10    92    93    1
    11    89    90    1
    12    89    86    1
    13    45    44    1
    14    40    39   ar
    15    86    87    1
    16    44    43   ar
    17    39    38    1
    18    39    41   ar
    19    43    41   ar
    20    38    35    1
    21    35    36    1
    22    35    34    1
    23    21    20    1
    24    36    37    2
    25    26    25    2
    26    34    25   am
    27    75    72    1
    28    22    20    1
    29    52    50    1
    30    25    24    1
    31    20    19    1
    32    74    73    2
    33     8     6    1
    34    19    16    1
    35     6     5    1
    36    50    51    1
    37    50    47    1
    38     7     5    1
    39    72    73    1
    40    72    71    1
    41    73    76   am
    42    23    24    1
    43    23    17   am
    44    24    27    1
    45     5     2    1
    46    46    47    1
    47    16    17    1
    48    16    15    1
    49    32    30   ar
    50    32    33   ar
    51    30    28   ar
    52    47    48    1
    53    78    79    2
    54    78    77    1
    55    17    18    2
    56    49    48    2
    57    76    77    1
    58    33    31   ar
    59    71    64   am
    60    28    27    1
    61    28    29   ar
    62    77    80    1
    63    48    53   am
    64    31    29   ar
    65    65    64    2
    66     2     3    1
    67     2     1    1
    68    64    63    1
    69     4     3    2
    70     3     9   am
    71    53    54    1
    72    80    81    1
    73     9    10    1
    74    82    81    1
    75    82    83    1
    76    56    55    2
    77    63    62    1
    78    63    66    1
    79    84    83    1
    80    55    62   am
    81    55    54    1
    82    54    57    1
    83    10    11    1
    84    10    13    1
    85    14    13    1
    86    66    67    1
    87    12    11    2
    88    57    58    1
    89    60    59    2
    90    67    68    1
    91    58    59    1
    92    59    61   am
    93    68    70   ar
    94    68    69   ar
