@<TRIPOS>MOLECULE
tmp/4hwbA01.pdb
 100 103 0 0 0
SMALL
GASTEIGER

@<TRIPOS>ATOM
      1  N          3.1020  -54.9770   61.6820 N.3     4  ASP4       -0.1225
      2  CA         4.4270  -54.3620   61.6310 C.3     4  ASP4        0.1790
      3  C          4.5240  -53.4130   60.4050 C.2     4  ASP4        0.2440
      4  O          4.3010  -53.8650   59.2690 O.2     4  ASP4       -0.2733
      5  CB         5.5310  -55.4320   61.6670 C.3     4  ASP4        0.1423
      6  CG         5.6710  -56.1000   63.0250 C.2     4  ASP4        0.3668
      7  OD1        6.1240  -55.4200   63.9800 O.co2   4  ASP4       -0.2456
      8  OD2        5.3420  -57.3040   63.1330 O.co2   4  ASP4       -0.2456
      9  N          4.7670  -52.0860   60.6280 N.am    5  PRO5       -0.2718
     10  CA         4.7850  -51.1280   59.4990 C.3     5  PRO5        0.1520
     11  C          5.9330  -51.3290   58.5060 C.2     5  PRO5        0.2440
     12  O          6.8680  -52.0580   58.8380 O.2     5  PRO5       -0.2731
     13  CB         4.8800  -49.7650   60.1980 C.3     5  PRO5        0.0310
     14  CG         5.5390  -50.0580   61.4670 C.3     5  PRO5        0.0237
     15  CD         5.0120  -51.3940   61.9070 C.3     5  PRO5        0.0939
     16  N          5.9180  -50.6870   57.3050 N.am    6  PRO6       -0.2716
     17  CA         7.0500  -50.8480   56.3660 C.3     6  PRO6        0.1536
     18  C          8.3500  -50.2640   56.9230 C.2     6  PRO6        0.2598
     19  O          8.3070  -49.5060   57.8920 O.2     6  PRO6       -0.2715
     20  CB         6.5890  -50.0710   55.1290 C.3     6  PRO6        0.0310
     21  CG         5.0990  -49.9350   55.2770 C.3     6  PRO6        0.0237
     22  CD         4.8820  -49.7990   56.7370 C.3     6  PRO6        0.0939
     23  N          9.5080  -50.6230   56.3610 N.am    7  HIS7       -0.1974
     24  CA        10.7490  -50.0900   56.9300 C.3     7  HIS7        0.1656
     25  C         11.7260  -49.5630   55.8890 C.2     7  HIS7        0.2291
     26  O         12.1650  -50.3280   55.0310 O.2     7  HIS7       -0.2864
     27  CB        11.4100  -51.1360   57.8480 C.3     7  HIS7        0.0771
     28  CG        12.5070  -50.5950   58.7120 C.ar    7  HIS7        0.0820
     29  ND1       13.8190  -50.5450   58.2660 N.ar    7  HIS7       -0.2267
     30  CD2       12.4590  -50.1340   59.9820 C.ar    7  HIS7        0.1154
     31  CE1       14.5200  -50.0350   59.2660 C.ar    7  HIS7        0.1986
     32  NE2       13.7470  -49.7740   60.3200 N.ar    7  HIS7       -0.2212
     33  N         13.1660  -49.6630   50.3680 N.3    22  TRP22      -0.1227
     34  CA        12.4400  -50.3080   51.4700 C.3    22  TRP22       0.1737
     35  C         12.9270  -51.6930   51.7480 C.2    22  TRP22       0.2595
     36  O         13.2000  -52.4400   50.8150 O.2    22  TRP22      -0.2718
     37  CB        10.9280  -50.3760   51.1650 C.3    22  TRP22       0.0564
     38  CG        10.3340  -49.0830   50.6940 C.ar   22  TRP22       0.0003
     39  CD1       10.4110  -48.5500   49.4410 C.ar   22  TRP22       0.0946
     40  CD2        9.5970  -48.1450   51.4870 C.ar   22  TRP22       0.0152
     41  NE1        9.7780  -47.3290   49.4050 N.ar   22  TRP22      -0.2442
     42  CE2        9.2310  -47.0740   50.6370 C.ar   22  TRP22       0.0810
     43  CE3        9.1740  -48.1210   52.8300 C.ar   22  TRP22       0.0012
     44  CZ2        8.4900  -45.9700   51.0950 C.ar   22  TRP22       0.0191
     45  CZ3        8.4050  -47.0470   53.2700 C.ar   22  TRP22       0.0001
     46  CH2        8.0800  -45.9820   52.4110 C.ar   22  TRP22       0.0015
     47  N         12.9750  -52.0630   53.0230 N.am   23  GLU23      -0.1965
     48  CA        13.2360  -53.4350   53.4460 C.3    23  GLU23       0.1733
     49  C         11.8900  -54.1110   53.0810 C.2    23  GLU23       0.2616
     50  O         10.8240  -53.6970   53.5710 O.2    23  GLU23      -0.2715
     51  CB        13.4970  -53.4970   54.9570 C.3    23  GLU23       0.0429
     52  CG        13.7920  -54.8700   55.4770 C.3    23  GLU23       0.1163
     53  CD        14.1710  -54.9610   56.9230 C.2    23  GLU23       0.3649
     54  OE1       14.1420  -53.9680   57.6190 O.co2  23  GLU23      -0.2457
     55  OE2       14.3660  -56.0480   57.4880 O.co2  23  GLU23      -0.2457
     56  N         11.9190  -55.0140   52.0930 N.am   24  ASN24      -0.1959
     57  CA        10.7080  -55.6860   51.6370 C.3    24  ASN24       0.1804
     58  C         10.7520  -57.1950   51.9060 C.2    24  ASN24       0.2463
     59  O         11.2380  -57.9340   51.0450 O.2    24  ASN24      -0.2730
     60  CB        10.4340  -55.4010   50.1610 C.3    24  ASN24       0.1195
     61  CG         9.1970  -56.0810   49.6340 C.2    24  ASN24       0.2630
     62  OD1        8.2510  -56.4250   50.3840 O.2    24  ASN24      -0.2716
     63  ND2        9.1890  -56.3050   48.3360 N.am   24  ASN24      -0.0877
     64  N         10.2180  -57.6820   53.0570 N.am   25  PRO25      -0.2727
     65  CA        10.2100  -59.1360   53.2990 C.3    25  PRO25       0.1402
     66  C          9.0980  -59.8550   52.5440 C.2    25  PRO25       0.2269
     67  O          9.1130  -61.0870   52.4990 O.2    25  PRO25      -0.2865
     68  CB         9.9930  -59.2510   54.7960 C.3    25  PRO25       0.0296
     69  CG         9.3650  -57.9800   55.2070 C.3    25  PRO25       0.0237
     70  CD         9.5870  -56.9410   54.1650 C.3    25  PRO25       0.0939
     71  N          5.9260  -60.1680   53.3860 N.3    27  ASN27      -0.1225
     72  CA         5.1340  -61.0000   54.2920 C.3    27  ASN27       0.1785
     73  C          3.7080  -61.0870   53.8000 C.2    27  ASN27       0.2597
     74  O          3.1060  -62.1580   53.9170 O.2    27  ASN27      -0.2718
     75  CB         5.1410  -60.4650   55.7120 C.3    27  ASN27       0.1169
     76  CG         6.4220  -60.6620   56.4530 C.2    27  ASN27       0.2627
     77  OD1        6.8500  -61.7980   56.7480 O.2    27  ASN27      -0.2716
     78  ND2        7.0120  -59.5450   56.8340 N.am   27  ASN27      -0.0877
     79  N          3.1750  -59.9690   53.2180 N.am   28  PHE28      -0.1976
     80  CA         1.8130  -59.9510   52.6990 C.3    28  PHE28       0.1639
     81  C          1.6210  -60.9970   51.6370 C.2    28  PHE28       0.2290
     82  O          0.5190  -61.5460   51.5400 O.2    28  PHE28      -0.2864
     83  CB         1.3690  -58.5550   52.2500 C.3    28  PHE28       0.0560
     84  CG         2.0610  -57.9820   51.0530 C.ar   28  PHE28      -0.0200
     85  CD1        3.3600  -57.5010   51.1470 C.ar   28  PHE28      -0.0042
     86  CD2        1.3980  -57.8690   49.8390 C.ar   28  PHE28      -0.0042
     87  CE1        4.0040  -56.9740   50.0330 C.ar   28  PHE28      -0.0003
     88  CE2        2.0310  -57.3010   48.7280 C.ar   28  PHE28      -0.0003
     89  CZ         3.3300  -56.8650   48.8310 C.ar   28  PHE28      -0.0000
     90  N          2.4270  -65.1150   53.4870 N.3    31  ARG31      -0.1245
     91  CA         1.3220  -65.5850   54.3240 C.3    31  ARG31       0.1563
     92  C          0.0320  -65.8450   53.5950 C.2    31  ARG31       0.2260
     93  O         -0.8600  -66.4520   54.2020 O.2    31  ARG31      -0.2867
     94  CB         1.0370  -64.6260   55.5090 C.3    31  ARG31       0.0307
     95  CG         0.3890  -63.2740   55.1860 C.3    31  ARG31       0.0489
     96  CD        -0.1100  -62.5170   56.4280 C.3    31  ARG31       0.2205
     97  NE         0.0290  -61.0620   56.2690 N.pl3  31  ARG31      -0.0865
     98  CZ        -0.8710  -60.2610   55.6930 C.cat  31  ARG31       0.5346
     99  NH1       -2.0290  -60.7510   55.2630 N.pl3  31  ARG31       0.1354
    100  NH2       -0.6190  -58.9600   55.5500 N.pl3  31  ARG31       0.1354
@<TRIPOS>BOND
     1    63    61   am
     2    88    89   ar
     3    88    86   ar
     4    89    87   ar
     5    41    39   ar
     6    41    42   ar
     7    39    38   ar
     8    61    60    1
     9    61    62    2
    10    86    84   ar
    11    87    85   ar
    12    60    57    1
    13    33    34    1
    14    42    44   ar
    15    42    40   ar
    16    38    37    1
    17    38    40   ar
    18    36    35    2
    19    59    58    2
    20    84    85   ar
    21    84    83    1
    22    44    46   ar
    23    37    34    1
    24    34    35    1
    25    40    43   ar
    26    82    81    2
    27    81    80    1
    28    57    58    1
    29    57    56    1
    30    35    47   am
    31    58    64   am
    32    56    49   am
    33    83    80    1
    34    46    45   ar
    35    67    66    2
    36    66    65    1
    37    80    79    1
    38    43    45   ar
    39    47    48    1
    40    64    65    1
    41    64    70    1
    42    49    48    1
    43    49    50    2
    44    79    73   am
    45    65    68    1
    46    71    72    1
    47    48    51    1
    48    90    91    1
    49    92    93    2
    50    92    91    1
    51    73    74    2
    52    73    72    1
    53    70    69    1
    54    72    75    1
    55    91    94    1
    56    68    69    1
    57    51    52    1
    58    26    25    2
    59    20    21    1
    60    20    17    1
    61    95    94    1
    62    95    96    1
    63    99    98    1
    64    21    22    1
    65    52    53    1
    66   100    98    1
    67    98    97    2
    68    75    76    1
    69    25    24    1
    70    97    96    1
    71    23    18   am
    72    23    24    1
    73    17    18    1
    74    17    16    1
    75    76    77    2
    76    76    78   am
    77    22    16    1
    78    53    55   ar
    79    53    54   ar
    80    18    19    2
    81    24    27    1
    82    16    11   am
    83    27    28    1
    84    29    28   ar
    85    29    31   ar
    86    11    12    2
    87    11    10    1
    88    28    30   ar
    89    31    32   ar
    90     4     3    2
    91    10    13    1
    92    10     9    1
    93    30    32   ar
    94    13    14    1
    95     3     9   am
    96     3     2    1
    97     9    15    1
    98    14    15    1
    99     2     5    1
   100     2     1    1
   101     5     6    1
   102     6     8   ar
   103     6     7   ar
