@<TRIPOS>MOLECULE
tmp/4hwbA00.pdb
 99 99 0 0 0
SMALL
GASTEIGER

@<TRIPOS>ATOM
      1  N         -0.4380  -54.2650   62.7120 N.3     3  PRO3       -0.2116
      2  CA         0.6590  -55.0200   62.0560 C.3     3  PRO3        0.1372
      3  C          2.0080  -54.2710   62.0370 C.2     3  PRO3        0.2244
      4  O          2.0670  -53.0820   62.3860 O.2     3  PRO3       -0.2868
      5  CB         0.1160  -55.3090   60.6400 C.3     3  PRO3        0.0268
      6  CG        -1.3420  -55.0220   60.7000 C.3     3  PRO3        0.0207
      7  CD        -1.5030  -53.9450   61.7380 C.3     3  PRO3        0.0892
      8  N          5.9180  -50.6870   57.3050 N.3     6  PRO6       -0.2116
      9  CA         7.0500  -50.8480   56.3660 C.3     6  PRO6        0.1372
     10  C          8.3500  -50.2640   56.9230 C.2     6  PRO6        0.2244
     11  O          8.3070  -49.5060   57.8920 O.2     6  PRO6       -0.2868
     12  CB         6.5890  -50.0710   55.1290 C.3     6  PRO6        0.0268
     13  CG         5.0990  -49.9350   55.2770 C.3     6  PRO6        0.0207
     14  CD         4.8820  -49.7990   56.7370 C.3     6  PRO6        0.0892
     15  N          3.1750  -59.9690   53.2180 N.3    28  PHE28      -0.1241
     16  CA         1.8130  -59.9510   52.6990 C.3    28  PHE28       0.1605
     17  C          1.6210  -60.9970   51.6370 C.2    28  PHE28       0.2264
     18  O          0.5190  -61.5460   51.5400 O.2    28  PHE28      -0.2867
     19  CB         1.3690  -58.5550   52.2500 C.3    28  PHE28       0.0534
     20  CG         2.0610  -57.9820   51.0530 C.ar   28  PHE28      -0.0203
     21  CD1        3.3600  -57.5010   51.1470 C.ar   28  PHE28      -0.0042
     22  CD2        1.3980  -57.8690   49.8390 C.ar   28  PHE28      -0.0042
     23  CE1        4.0040  -56.9740   50.0330 C.ar   28  PHE28      -0.0003
     24  CE2        2.0310  -57.3010   48.7280 C.ar   28  PHE28      -0.0003
     25  CZ         3.3300  -56.8650   48.8310 C.ar   28  PHE28      -0.0000
     26  N          2.4270  -65.1150   53.4870 N.3    31  ARG31      -0.1245
     27  CA         1.3220  -65.5850   54.3240 C.3    31  ARG31       0.1563
     28  C          0.0320  -65.8450   53.5950 C.2    31  ARG31       0.2260
     29  O         -0.8600  -66.4520   54.2020 O.2    31  ARG31      -0.2867
     30  CB         1.0370  -64.6260   55.5090 C.3    31  ARG31       0.0307
     31  CG         0.3890  -63.2740   55.1860 C.3    31  ARG31       0.0489
     32  CD        -0.1100  -62.5170   56.4280 C.3    31  ARG31       0.2205
     33  NE         0.0290  -61.0620   56.2690 N.pl3  31  ARG31      -0.0865
     34  CZ        -0.8710  -60.2610   55.6930 C.cat  31  ARG31       0.5346
     35  NH1       -2.0290  -60.7510   55.2630 N.pl3  31  ARG31       0.1354
     36  NH2       -0.6190  -58.9600   55.5500 N.pl3  31  ARG31       0.1354
     37  N         -6.6740  -64.0200   54.8310 N.3    95  CYS95      -0.1235
     38  CA        -6.1580  -62.7260   54.3890 C.3    95  CYS95       0.1677
     39  C         -7.2540  -61.7750   53.8910 C.2    95  CYS95       0.2270
     40  O         -6.9380  -60.6340   53.5320 O.2    95  CYS95      -0.2867
     41  CB        -5.1240  -62.9370   53.2920 C.3    95  CYS95       0.0956
     42  SG        -3.6100  -63.7470   53.8340 S.3    95  CYS95      -0.0801
     43  N        -10.7820  -59.5450   53.9280 N.3    97  GLU97      -0.1245
     44  CA       -11.7430  -58.7830   54.7280 C.3    97  GLU97       0.1567
     45  C        -12.8100  -58.2760   53.7480 C.2    97  GLU97       0.2260
     46  O        -12.4810  -57.6110   52.7500 O.2    97  GLU97      -0.2867
     47  CB       -11.0760  -57.6290   55.4780 C.3    97  GLU97       0.0388
     48  CG       -10.4030  -58.0170   56.7810 C.3    97  GLU97       0.1160
     49  CD        -9.4520  -56.9340   57.2650 C.2    97  GLU97       0.3649
     50  OE1       -9.9260  -55.9740   57.9260 O.co2  97  GLU97      -0.2457
     51  OE2       -8.2390  -57.0280   56.9470 O.co2  97  GLU97      -0.2457
     52  N         -5.4560  -58.0140   50.9940 N.3   102  TRP102     -0.1227
     53  CA        -4.5930  -56.8750   51.3280 C.3   102  TRP102      0.1737
     54  C         -5.3360  -55.5260   51.3510 C.2   102  TRP102      0.2596
     55  O         -4.8800  -54.5030   50.8410 O.2   102  TRP102     -0.2718
     56  CB        -3.4470  -56.8710   50.3470 C.3   102  TRP102      0.0564
     57  CG        -2.7340  -58.1800   50.2300 C.ar  102  TRP102      0.0003
     58  CD1       -2.0290  -58.8130   51.2050 C.ar  102  TRP102      0.0946
     59  CD2       -2.5070  -58.9190   49.0290 C.ar  102  TRP102      0.0152
     60  NE1       -1.4070  -59.9260   50.6940 N.ar  102  TRP102     -0.2442
     61  CE2       -1.6590  -60.0010   49.3560 C.ar  102  TRP102      0.0810
     62  CE3       -2.9190  -58.7620   47.7000 C.ar  102  TRP102      0.0012
     63  CZ2       -1.2430  -60.9350   48.4130 C.ar  102  TRP102      0.0191
     64  CZ3       -2.5250  -59.7060   46.7740 C.ar  102  TRP102      0.0001
     65  CH2       -1.7100  -60.7860   47.1370 C.ar  102  TRP102      0.0015
     66  N         -6.4940  -55.5900   51.9740 N.am  103  SER103     -0.1938
     67  CA        -7.5610  -54.6360   52.1630 C.3   103  SER103      0.2055
     68  C         -7.1780  -53.2380   52.7190 C.2   103  SER103      0.2643
     69  O         -7.8450  -52.2580   52.3610 O.2   103  SER103     -0.2714
     70  CB        -8.6130  -55.3110   53.0480 C.3   103  SER103      0.2130
     71  OG        -9.7460  -54.5080   53.3220 O.3   103  SER103     -0.2179
     72  N         -6.1290  -53.1480   53.5800 N.am  104  ASN104     -0.1957
     73  CA        -5.7500  -51.9360   54.3240 C.3   104  ASN104      0.1819
     74  C         -4.3980  -51.2690   54.0140 C.2   104  ASN104      0.2621
     75  O         -3.5200  -51.9060   53.4260 O.2   104  ASN104     -0.2715
     76  CB        -5.7710  -52.2480   55.8370 C.3   104  ASN104      0.1195
     77  CG        -6.9740  -53.0100   56.3300 C.2   104  ASN104      0.2630
     78  OD1       -8.1110  -52.5180   56.3120 O.2   104  ASN104     -0.2716
     79  ND2       -6.7400  -54.2330   56.7760 N.am  104  ASN104     -0.0877
     80  N         -4.2210  -50.0030   54.5460 N.am  105  TRP105     -0.1960
     81  CA        -3.0570  -49.0850   54.5060 C.3   105  TRP105      0.1771
     82  C         -1.9730  -49.4140   55.5870 C.2   105  TRP105      0.2620
     83  O         -1.8770  -50.5730   55.9470 O.2   105  TRP105     -0.2715
     84  CB        -3.5650  -47.6590   54.7340 C.3   105  TRP105      0.0590
     85  CG        -4.3610  -47.0420   53.6310 C.ar  105  TRP105      0.0006
     86  CD1       -5.7040  -46.8190   53.6190 C.ar  105  TRP105      0.0946
     87  CD2       -3.8340  -46.4000   52.4640 C.ar  105  TRP105      0.0152
     88  NE1       -6.0620  -46.1570   52.4620 N.ar  105  TRP105     -0.2442
     89  CE2       -4.9320  -45.8960   51.7300 C.ar  105  TRP105      0.0810
     90  CE3       -2.5400  -46.2730   51.9190 C.ar  105  TRP105      0.0012
     91  CZ2       -4.7770  -45.2480   50.5040 C.ar  105  TRP105      0.0191
     92  CZ3       -2.3920  -45.6420   50.6900 C.ar  105  TRP105      0.0001
     93  CH2       -3.5000  -45.1350   50.0020 C.ar  105  TRP105      0.0015
     94  N         -1.2210  -48.4090   56.1610 N.am  106  SER106     -0.1950
     95  CA        -0.0940  -48.5800   57.1400 C.3   106  SER106      0.1924
     96  C          0.5210  -47.2000   57.5510 C.2   106  SER106      0.2314
     97  O          0.6610  -46.3980   56.6410 O.2   106  SER106     -0.2863
     98  CB         1.0190  -49.3280   56.4110 C.3   106  SER106      0.2116
     99  OG         1.1610  -48.7650   55.1120 O.3   106  SER106     -0.2180
@<TRIPOS>BOND
     1    64    65   ar
     2    64    62   ar
     3    65    63   ar
     4    62    59   ar
     5    63    61   ar
     6    24    25   ar
     7    24    22   ar
     8    25    23   ar
     9    59    61   ar
    10    59    57   ar
    11    61    60   ar
    12    22    20   ar
    13    93    91   ar
    14    93    92   ar
    15    23    21   ar
    16    57    56    1
    17    57    58   ar
    18    56    53    1
    19    91    89   ar
    20    92    90   ar
    21    60    58   ar
    22    55    54    2
    23    52    53    1
    24    20    21   ar
    25    20    19    1
    26    53    54    1
    27    54    66   am
    28    18    17    2
    29    17    16    1
    30    89    88   ar
    31    89    87   ar
    32    90    87   ar
    33    66    67    1
    34    67    68    1
    35    67    70    1
    36    19    16    1
    37    69    68    2
    38    88    86   ar
    39    87    85   ar
    40    16    15    1
    41    68    72   am
    42    46    45    2
    43    70    71    1
    44    41    42    1
    45    41    38    1
    46    75    74    2
    47    26    27    1
    48    40    39    2
    49    72    73    1
    50    28    29    2
    51    28    27    1
    52    86    85   ar
    53    85    84    1
    54    45    44    1
    55    39    38    1
    56    43    44    1
    57    74    73    1
    58    74    80   am
    59    27    30    1
    60    73    76    1
    61    38    37    1
    62    81    80    1
    63    81    84    1
    64    81    82    1
    65    44    47    1
    66    99    98    1
    67    12    13    1
    68    12     9    1
    69    31    30    1
    70    31    32    1
    71    35    34    1
    72    13    14    1
    73    47    48    1
    74    36    34    1
    75    82    83    2
    76    82    94   am
    77    34    33    2
    78    76    77    1
    79    94    95    1
    80    33    32    1
    81    78    77    2
    82    77    79   am
    83     9    10    1
    84     9     8    1
    85    98    95    1
    86    97    96    2
    87    14     8    1
    88    48    49    1
    89    10    11    2
    90    51    49   ar
    91    95    96    1
    92    49    50   ar
    93     5     6    1
    94     5     2    1
    95     6     7    1
    96     7     1    1
    97     3     2    1
    98     3     4    2
    99     2     1    1
