@<TRIPOS>MOLECULE
tmp/4hwpA00.pdb
 205 192 0 0 0
SMALL
GASTEIGER

@<TRIPOS>ATOM
      1  N        -14.6060  -30.5040   12.4570 N.3    91  MET91      -0.1245
      2  CA       -13.7330  -30.4950   13.6480 C.3    91  MET91       0.1570
      3  C        -13.3430  -29.0750   13.9790 C.2    91  MET91       0.2261
      4  O        -13.3590  -28.2110   13.1220 O.2    91  MET91      -0.2867
      5  CB       -12.3920  -31.1860   13.3230 C.3    91  MET91       0.0387
      6  CG       -12.5220  -32.6660   13.1260 C.3    91  MET91       0.0595
      7  SD       -10.8850  -33.3340   12.6650 S.3    91  MET91      -0.1393
      8  CE       -11.3690  -35.0490   12.4990 C.3    91  MET91       0.0692
      9  N        -10.3250  -28.2110   15.4690 N.3    93  CYS93      -0.1235
     10  CA        -8.8580  -28.0410   15.5910 C.3    93  CYS93       0.1677
     11  C         -8.2750  -26.9260   14.7020 C.2    93  CYS93       0.2270
     12  O         -7.4830  -26.0630   15.1800 O.2    93  CYS93      -0.2867
     13  CB        -8.1130  -29.4080   15.4660 C.3    93  CYS93       0.0956
     14  SG        -9.1720  -30.8640   15.1170 S.3    93  CYS93      -0.0801
     15  N        -20.9890  -33.3690   10.2130 N.3   122  ARG122     -0.1245
     16  CA       -20.3700  -34.4370    9.4320 C.3   122  ARG122      0.1563
     17  C        -21.5320  -35.1130    8.6980 C.2   122  ARG122      0.2260
     18  O        -22.5310  -35.4780    9.3200 O.2   122  ARG122     -0.2867
     19  CB       -19.6180  -35.4510   10.3220 C.3   122  ARG122      0.0307
     20  CG       -18.4220  -34.8500   11.0250 C.3   122  ARG122      0.0489
     21  CD       -17.5600  -35.8360   11.7960 C.3   122  ARG122      0.2205
     22  NE       -16.6010  -35.1020   12.6310 N.pl3 122  ARG122     -0.0865
     23  CZ       -15.7270  -35.6670   13.4620 C.cat 122  ARG122      0.5346
     24  NH1      -15.6360  -37.0010   13.5130 N.pl3 122  ARG122      0.1354
     25  NH2      -14.8960  -34.9190   14.1860 N.pl3 122  ARG122      0.1354
     26  N        -23.0780  -37.7150    7.6710 N.3   124  GLU124     -0.1245
     27  CA       -23.1880  -39.1340    7.9080 C.3   124  GLU124      0.1567
     28  C        -24.2630  -39.6900    6.9840 C.2   124  GLU124      0.2260
     29  O        -25.3340  -39.0890    6.8830 O.2   124  GLU124     -0.2867
     30  CB       -23.6040  -39.3500    9.3670 C.3   124  GLU124      0.0388
     31  CG       -23.8370  -40.8010    9.7530 C.3   124  GLU124      0.1160
     32  CD       -22.5570  -41.6180    9.7650 C.2   124  GLU124      0.3649
     33  OE1      -22.6750  -42.8670    9.7500 O.co2 124  GLU124     -0.2457
     34  OE2      -21.4420  -41.0260    9.7580 O.co2 124  GLU124     -0.2457
     35  N        -29.8190  -39.7560   19.0990 N.3   132  LEU132     -0.1231
     36  CA       -28.8090  -38.7870   19.5600 C.3   132  LEU132      0.1693
     37  C        -27.3750  -39.3180   19.4460 C.2   132  LEU132      0.2592
     38  O        -26.4190  -38.5430   19.5680 O.2   132  LEU132     -0.2718
     39  CB       -29.0760  -38.4410   21.0230 C.3   132  LEU132      0.0284
     40  CG       -30.3750  -37.7330   21.3580 C.3   132  LEU132      0.0019
     41  CD1      -30.4240  -37.5040   22.8560 C.3   132  LEU132      0.0001
     42  CD2      -30.4710  -36.4400   20.5540 C.3   132  LEU132      0.0001
     43  N        -27.2280  -40.6290   19.2720 N.am  133  MET133     -0.1965
     44  CA       -25.8860  -41.2480   19.3400 C.3   133  MET133      0.1736
     45  C        -25.1060  -41.0120   18.0780 C.2   133  MET133      0.2616
     46  O        -23.8810  -40.8730   18.1400 O.2   133  MET133     -0.2715
     47  CB       -25.9570  -42.7730   19.5270 C.3   133  MET133      0.0427
     48  CG       -26.8610  -43.2320   20.6470 C.3   133  MET133      0.0599
     49  SD       -26.2040  -42.6520   22.2030 S.3   133  MET133     -0.1393
     50  CE       -27.0650  -43.8260   23.2980 C.3   133  MET133      0.0692
     51  N        -25.7940  -41.0360   16.9290 N.am  134  ARG134     -0.1963
     52  CA       -25.1120  -40.7520   15.6530 C.3   134  ARG134      0.1729
     53  C        -25.9860  -39.7930   14.8470 C.2   134  ARG134      0.2616
     54  O        -27.0310  -40.2050   14.3410 O.2   134  ARG134     -0.2715
     55  CB       -24.7520  -42.0400   14.8810 C.3   134  ARG134      0.0348
     56  CG       -23.9650  -41.7650   13.5960 C.3   134  ARG134      0.0492
     57  CD       -23.2990  -42.9990   13.0190 C.3   134  ARG134      0.2205
     58  NE       -22.2040  -43.3950   13.9060 N.pl3 134  ARG134     -0.0865
     59  CZ       -22.0510  -44.5910   14.4680 C.cat 134  ARG134      0.5346
     60  NH1      -22.8800  -45.6100   14.2310 N.pl3 134  ARG134      0.1354
     61  NH2      -21.0010  -44.7640   15.2520 N.pl3 134  ARG134      0.1354
     62  N        -25.5810  -38.5090   14.8480 N.am  135  VAL135     -0.1977
     63  CA       -26.3170  -37.4090   14.2040 C.3   135  VAL135      0.1596
     64  C        -25.4160  -36.8150   13.1150 C.2   135  VAL135      0.2287
     65  O        -24.2950  -37.2930   12.9030 O.2   135  VAL135     -0.2864
     66  CB       -26.7080  -36.3200   15.2320 C.3   135  VAL135      0.0276
     67  CG1      -27.7320  -36.8430   16.2450 C.3   135  VAL135      0.0022
     68  CG2      -25.4670  -35.8130   15.9720 C.3   135  VAL135      0.0022
     69  N        -23.4960  -32.0960   15.7290 N.3   138  PHE138     -0.1241
     70  CA       -23.3140  -32.4000   17.1450 C.3   138  PHE138      0.1605
     71  C        -22.2900  -31.4410   17.7190 C.2   138  PHE138      0.2264
     72  O        -21.5930  -30.7520   16.9640 O.2   138  PHE138     -0.2867
     73  CB       -22.8200  -33.8410   17.3220 C.3   138  PHE138      0.0534
     74  CG       -21.5660  -34.1280   16.5270 C.ar  138  PHE138     -0.0203
     75  CD1      -21.6500  -34.4030   15.1530 C.ar  138  PHE138     -0.0042
     76  CD2      -20.3130  -34.0220   17.1220 C.ar  138  PHE138     -0.0042
     77  CE1      -20.5000  -34.6680   14.3920 C.ar  138  PHE138     -0.0003
     78  CE2      -19.1550  -34.2700   16.3790 C.ar  138  PHE138     -0.0003
     79  CZ       -19.2370  -34.6140   15.0160 C.ar  138  PHE138     -0.0000
     80  N        -19.0790  -31.0550   20.3000 N.3   140  GLN140     -0.1245
     81  CA       -18.0610  -31.6940   21.1170 C.3   140  GLN140      0.1566
     82  C        -17.6760  -30.8150   22.2930 C.2   140  GLN140      0.2260
     83  O        -17.5730  -29.5740   22.1580 O.2   140  GLN140     -0.2867
     84  CB       -16.7860  -31.9210   20.2940 C.3   140  GLN140      0.0367
     85  CG       -17.0080  -32.7310   19.0200 C.3   140  GLN140      0.0905
     86  CD       -15.7550  -32.8470   18.1820 C.2   140  GLN140      0.2608
     87  OE1      -15.0560  -31.8690   17.9740 O.2   140  GLN140     -0.2717
     88  NE2      -15.4960  -34.0510   17.6470 N.am  140  GLN140     -0.0878
     89  N        -14.7880  -30.0570   23.2330 N.3   142  ASP142     -0.1239
     90  CA       -13.4730  -30.2260   22.6460 C.3   142  ASP142      0.1674
     91  C        -12.4200  -29.3370   23.3120 C.2   142  ASP142      0.2266
     92  O        -12.7440  -28.3770   24.0080 O.2   142  ASP142     -0.2867
     93  CB       -13.6030  -29.8540   21.1590 C.3   142  ASP142      0.1410
     94  CG       -12.4890  -30.3950   20.2870 C.2   142  ASP142      0.3668
     95  OD1      -11.6790  -31.2720   20.6970 O.co2 142  ASP142     -0.2456
     96  OD2      -12.4620  -29.9370   19.1140 O.co2 142  ASP142     -0.2456
     97  N         -7.9030  -28.3600   22.4000 N.3   144  HIS144     -0.1241
     98  CA        -6.5690  -28.6630   21.9230 C.3   144  HIS144      0.1621
     99  C         -5.5840  -28.0530   22.8730 C.2   144  HIS144      0.2264
    100  O         -5.7310  -26.8910   23.2460 O.2   144  HIS144     -0.2867
    101  CB        -6.4140  -28.2060   20.4700 C.3   144  HIS144      0.0745
    102  CG        -7.4060  -28.8980   19.5950 C.ar  144  HIS144      0.0817
    103  ND1       -8.6610  -28.4540   19.4470 N.ar  144  HIS144     -0.2268
    104  CD2       -7.3560  -30.1280   18.9890 C.ar  144  HIS144      0.1154
    105  CE1       -9.3650  -29.3500   18.7250 C.ar  144  HIS144      0.1986
    106  NE2       -8.5720  -30.3770   18.4700 N.ar  144  HIS144     -0.2212
    107  N         -4.6570  -37.8400   11.3990 N.3   221  TYR221     -0.1241
    108  CA        -3.5590  -36.9850   11.8930 C.3   221  TYR221      0.1605
    109  C         -2.8650  -37.5380   13.1610 C.2   221  TYR221      0.2264
    110  O         -1.8390  -36.9890   13.5720 O.2   221  TYR221     -0.2867
    111  CB        -4.0490  -35.5460   12.1820 C.3   221  TYR221      0.0534
    112  CG        -5.2830  -35.5560   13.0440 C.ar  221  TYR221     -0.0201
    113  CD1       -6.5500  -35.4850   12.4580 C.ar  221  TYR221     -0.0009
    114  CD2       -5.1940  -35.7110   14.4190 C.ar  221  TYR221     -0.0009
    115  CE1       -7.7130  -35.5420   13.2250 C.ar  221  TYR221      0.0417
    116  CE2       -6.3270  -35.7980   15.2030 C.ar  221  TYR221      0.0417
    117  CZ        -7.5850  -35.6990   14.6030 C.ar  221  TYR221      0.1957
    118  OH        -8.7280  -35.7420   15.3410 O.3   221  TYR221     -0.2866
    119  N         -5.4210  -42.4130   18.7240 N.3   224  LYS224     -0.1245
    120  CA        -6.4620  -41.9760   19.6680 C.3   224  LYS224      0.1561
    121  C         -6.5980  -42.9760   20.8120 C.2   224  LYS224      0.2260
    122  O         -6.8090  -44.1570   20.5520 O.2   224  LYS224     -0.2867
    123  CB        -7.8270  -41.9840   18.9430 C.3   224  LYS224      0.0271
    124  CG        -7.8930  -41.1390   17.6870 C.3   224  LYS224      0.0035
    125  CD        -9.0930  -41.5320   16.8050 C.3   224  LYS224      0.0206
    126  CE       -10.4210  -41.5050   17.5760 C.3   224  LYS224      0.1093
    127  NZ       -11.6350  -41.6330   16.6810 N.3   224  LYS224     -0.1314
    128  N        -17.9020  -44.6190   21.2380 N.3   238  GLN238     -0.1231
    129  CA       -16.7740  -43.7620   21.6190 C.3   238  GLN238      0.1698
    130  C        -17.2610  -42.4800   22.3010 C.2   238  GLN238      0.2592
    131  O        -18.0540  -41.7320   21.7200 O.2   238  GLN238     -0.2718
    132  CB       -15.9370  -43.3640   20.3900 C.3   238  GLN238      0.0381
    133  CG       -14.7640  -42.4640   20.8160 C.3   238  GLN238      0.0905
    134  CD       -14.1200  -41.7940   19.6290 C.2   238  GLN238      0.2608
    135  OE1      -13.4210  -42.4450   18.8620 O.2   238  GLN238     -0.2717
    136  NE2      -14.4040  -40.4850   19.4320 N.am  238  GLN238     -0.0878
    137  N        -16.8100  -42.2310   23.5210 N.am  239  CYS239     -0.1970
    138  CA       -17.1750  -41.0020   24.1880 C.3   239  CYS239      0.1712
    139  C        -15.8920  -40.1930   24.3890 C.2   239  CYS239      0.2296
    140  O        -15.5140  -39.4260   23.5020 O.2   239  CYS239     -0.2864
    141  CB       -17.9460  -41.2800   25.4880 C.3   239  CYS239      0.0983
    142  SG       -19.5830  -41.9640   25.1630 S.3   239  CYS239     -0.0798
    143  N        -12.0320  -39.1510   24.3080 N.3   241  THR241     -0.1218
    144  CA       -10.9150  -39.4990   23.4160 C.3   241  THR241      0.1862
    145  C         -9.7430  -38.5160   23.6400 C.2   241  THR241      0.2287
    146  O         -9.9770  -37.3110   23.8860 O.2   241  THR241     -0.2866
    147  CB       -11.3370  -39.5580   21.9070 C.3   241  THR241      0.1770
    148  OG1      -10.2040  -39.9470   21.1230 O.3   241  THR241     -0.2211
    149  CG2      -11.9330  -38.2030   21.3930 C.3   241  THR241      0.0375
    150  N         -5.8660  -37.6380   21.9250 N.3   243  GLN243     -0.1245
    151  CA        -5.1690  -37.9020   20.6570 C.3   243  GLN243      0.1566
    152  C         -3.9120  -37.0480   20.6070 C.2   243  GLN243      0.2260
    153  O         -3.8960  -35.9300   21.1390 O.2   243  GLN243     -0.2867
    154  CB        -6.0750  -37.6140   19.4340 C.3   243  GLN243      0.0367
    155  CG        -7.5240  -38.0150   19.6990 C.3   243  GLN243      0.0905
    156  CD        -8.5120  -37.5390   18.6500 C.2   243  GLN243      0.2608
    157  OE1       -9.7000  -37.9990   18.6260 O.2   243  GLN243     -0.2717
    158  NE2       -8.0680  -36.6580   17.7760 N.am  243  GLN243     -0.0878
    159  N         -5.3830  -33.4160   21.1450 N.3   270  HIS270     -0.1226
    160  CA        -6.8290  -33.1780   21.0290 C.3   270  HIS270      0.1752
    161  C         -7.5170  -34.0080   22.0550 C.2   270  HIS270      0.2596
    162  O         -7.1580  -35.1750   22.2520 O.2   270  HIS270     -0.2718
    163  CB        -7.3680  -33.7260   19.6980 C.3   270  HIS270      0.0759
    164  CG        -6.5970  -33.3240   18.4720 C.ar  270  HIS270      0.0818
    165  ND1       -7.2270  -32.9070   17.3760 N.ar  270  HIS270     -0.2268
    166  CD2       -5.2180  -33.3790   18.1430 C.ar  270  HIS270      0.1154
    167  CE1       -6.3300  -32.6280   16.3970 C.ar  270  HIS270      0.1986
    168  NE2       -5.0880  -32.9110   16.8760 N.ar  270  HIS270     -0.2212
    169  N         -8.5660  -33.4970   22.6760 N.am  271  ARG271     -0.1966
    170  CA        -9.3550  -34.3700   23.5440 C.3   271  ARG271      0.1729
    171  C        -10.7880  -33.8960   23.6560 C.2   271  ARG271      0.2616
    172  O        -11.0290  -32.6820   23.5980 O.2   271  ARG271     -0.2715
    173  CB        -8.7100  -34.5700   24.9460 C.3   271  ARG271      0.0348
    174  CG        -9.3170  -33.7970   26.1260 C.3   271  ARG271      0.0492
    175  CD        -9.0120  -32.3180   26.0200 C.3   271  ARG271      0.2205
    176  NE        -9.6270  -31.5980   27.1670 N.pl3 271  ARG271     -0.0865
    177  CZ       -10.9060  -31.1900   27.2210 C.cat 271  ARG271      0.5346
    178  NH1      -11.7790  -31.4190   26.2450 N.pl3 271  ARG271      0.1354
    179  NH2      -11.3360  -30.5660   28.3200 N.pl3 271  ARG271      0.1354
    180  N        -11.7170  -34.8350   23.8130 N.am  272  ALA272     -0.1977
    181  CA       -13.1020  -34.5040   24.2170 C.3   272  ALA272      0.1597
    182  C        -13.3650  -35.4500   25.3760 C.2   272  ALA272      0.2287
    183  O        -12.9000  -36.6010   25.3380 O.2   272  ALA272     -0.2864
    184  CB       -14.0720  -34.7820   23.0640 C.3   272  ALA272      0.0319
    185  N        -17.3690  -36.3310   24.8080 N.3   275  GLY275     -0.1210
    186  CA       -17.4000  -36.8300   23.4210 C.3   275  GLY275      0.1956
    187  C        -18.1890  -35.8750   22.5530 C.2   275  GLY275      0.2612
    188  O        -17.6830  -34.8130   22.1480 O.2   275  GLY275     -0.2717
    189  N        -19.4390  -36.2140   22.2790 N.am  276  SER276     -0.1952
    190  CA       -20.4030  -35.1540   21.9860 C.3   276  SER276      0.1924
    191  C        -21.4630  -35.0420   23.0400 C.2   276  SER276      0.2314
    192  O        -21.7220  -36.0340   23.7390 O.2   276  SER276     -0.2863
    193  CB       -20.9780  -35.2800   20.6070 C.3   276  SER276      0.2116
    194  OG       -21.9560  -36.2780   20.5510 O.3   276  SER276     -0.2180
    195  N        -24.4780  -37.3470   22.0830 N.3   279  ARG279     -0.1245
    196  CA       -24.2210  -38.7660   22.3860 C.3   279  ARG279      0.1563
    197  C        -24.1790  -39.0260   23.8990 C.2   279  ARG279      0.2260
    198  O        -24.7280  -40.0350   24.3780 O.2   279  ARG279     -0.2867
    199  CB       -22.9320  -39.2440   21.7170 C.3   279  ARG279      0.0307
    200  CG       -22.5910  -40.7250   22.0130 C.3   279  ARG279      0.0489
    201  CD       -21.3420  -41.1100   21.2340 C.3   279  ARG279      0.2205
    202  NE       -21.6170  -41.1750   19.7940 N.pl3 279  ARG279     -0.0865
    203  CZ       -20.6850  -41.4400   18.8810 C.cat 279  ARG279      0.5346
    204  NH1      -19.4320  -41.6460   19.2550 N.pl3 279  ARG279      0.1354
    205  NH2      -21.0090  -41.5010   17.5850 N.pl3 279  ARG279      0.1354
@<TRIPOS>BOND
     1    29    28    2
     2    28    27    1
     3    26    27    1
     4    27    30    1
     5    17    18    2
     6    17    16    1
     7    30    31    1
     8    16    15    1
     9    16    19    1
    10    33    32   ar
    11    31    32    1
    12    34    32   ar
    13    19    20    1
    14    20    21    1
    15   107   108    1
    16    21    22    1
    17   108   111    1
    18   108   109    1
    19   111   112    1
    20     1     2    1
    21   113   112   ar
    22   113   115   ar
    23     8     7    1
    24    22    23    2
    25     7     6    1
    26    65    64    2
    27    57    56    1
    28    57    58    1
    29   112   114   ar
    30    64    63    1
    31     4     3    2
    32     6     5    1
    33   109   110    2
    34   115   117   ar
    35     5     2    1
    36    23    24    1
    37    23    25    1
    38    56    55    1
    39     2     3    1
    40    58    59    2
    41    63    62    1
    42    63    66    1
    43    60    59    1
    44    54    53    2
    45    77    79   ar
    46    77    75   ar
    47   114   116   ar
    48    59    61    1
    49   117   116   ar
    50   117   118    1
    51    11    12    2
    52    11    10    1
    53    53    62   am
    54    53    52    1
    55    55    52    1
    56    79    78   ar
    57    14    13    1
    58    75    74   ar
    59    66    68    1
    60    66    67    1
    61    13    10    1
    62     9    10    1
    63    52    51    1
    64    69    70    1
    65    78    76   ar
    66   167   168   ar
    67   167   165   ar
    68    74    76   ar
    69    74    73    1
    70   127   126    1
    71   125   126    1
    72   125   124    1
    73   168   166   ar
    74    51    45   am
    75    72    71    2
    76    70    73    1
    77    70    71    1
    78   165   164   ar
    79   205   203    1
    80    88    86   am
    81   124   123    1
    82   158   156   am
    83    87    86    2
    84    45    46    2
    85    45    44    1
    86   166   164   ar
    87    86    85    1
    88   106   105   ar
    89   106   104   ar
    90   164   163    1
    91   157   156    2
    92   156   155    1
    93   119   120    1
    94   105   103   ar
    95   135   134    2
    96   203   204    1
    97   203   202    2
    98   123   120    1
    99   104   102   ar
   100    85    84    1
   101    35    36    1
   102    96    94   ar
   103    43    44    1
   104    43    37   am
   105    44    47    1
   106   136   134   am
   107   154   155    1
   108   154   151    1
   109    37    36    1
   110    37    38    2
   111   103   102   ar
   112    47    48    1
   113    36    39    1
   114   102   101    1
   115   134   133    1
   116   120   121    1
   117   163   160    1
   118   202   201    1
   119    94    95   ar
   120    94    93    1
   121    84    81    1
   122    80    81    1
   123   132   133    1
   124   132   129    1
   125   101    98    1
   126   194   193    1
   127   122   121    2
   128    42    40    1
   129   193   190    1
   130   152   151    1
   131   152   153    2
   132    48    49    1
   133   151   150    1
   134    39    40    1
   135   160   159    1
   136   160   161    1
   137    81    82    1
   138   148   147    1
   139    93    90    1
   140   201   200    1
   141   128   129    1
   142    40    41    1
   143   149   147    1
   144   129   130    1
   145   199   200    1
   146   199   196    1
   147   131   130    2
   148   147   144    1
   149    98    97    1
   150    98    99    1
   151   190   189    1
   152   190   191    1
   153   161   162    2
   154   161   169   am
   155   195   196    1
   156   188   187    2
   157    83    82    2
   158    49    50    1
   159   189   187   am
   160   130   137   am
   161   196   197    1
   162   187   186    1
   163    90    89    1
   164    90    91    1
   165   169   170    1
   166    99   100    2
   167   191   192    2
   168   184   181    1
   169    91    92    2
   170   144   145    1
   171   144   143    1
   172   186   185    1
   173   140   139    2
   174   137   138    1
   175   170   171    1
   176   170   173    1
   177   172   171    2
   178   145   146    2
   179   171   180   am
   180   180   181    1
   181   197   198    2
   182   138   139    1
   183   138   141    1
   184   181   182    1
   185   173   174    1
   186   142   141    1
   187   183   182    2
   188   175   174    1
   189   175   176    1
   190   178   177    1
   191   176   177    2
   192   177   179    1
