@<TRIPOS>MOLECULE
tmp/4hwrA00.pdb
 200 187 0 0 0
SMALL
GASTEIGER

@<TRIPOS>ATOM
      1  N         41.2170  -38.3050   39.9670 N.3    73  TYR73      -0.1241
      2  CA        41.4730  -38.2230   38.5230 C.3    73  TYR73       0.1605
      3  C         42.8660  -37.6980   38.2420 C.2    73  TYR73       0.2264
      4  O         43.2600  -37.5800   37.0880 O.2    73  TYR73      -0.2867
      5  CB        40.4350  -37.3140   37.8300 C.3    73  TYR73       0.0534
      6  CG        39.3650  -38.0480   37.0590 C.ar   73  TYR73      -0.0201
      7  CD1       38.2720  -38.6320   37.7190 C.ar   73  TYR73      -0.0009
      8  CD2       39.4400  -38.1530   35.6670 C.ar   73  TYR73      -0.0009
      9  CE1       37.2960  -39.3160   37.0140 C.ar   73  TYR73       0.0417
     10  CE2       38.4670  -38.8250   34.9500 C.ar   73  TYR73       0.0417
     11  CZ        37.4010  -39.4120   35.6260 C.ar   73  TYR73       0.1957
     12  OH        36.4340  -40.0880   34.9100 O.3    73  TYR73      -0.2866
     13  N         35.8710  -33.0750   32.3130 N.3    92  MET92      -0.1245
     14  CA        34.4300  -33.1600   32.5000 C.3    92  MET92       0.1570
     15  C         33.8980  -31.7540   32.4750 C.2    92  MET92       0.2261
     16  O         34.6110  -30.8010   32.7920 O.2    92  MET92      -0.2867
     17  CB        34.0510  -33.8450   33.8320 C.3    92  MET92       0.0387
     18  CG        34.2170  -35.3730   33.8430 C.3    92  MET92       0.0595
     19  SD        33.6530  -36.0320   35.4530 S.3    92  MET92      -0.1393
     20  CE        34.2390  -37.6990   35.3610 C.3    92  MET92       0.0692
     21  N         31.0190  -30.7950   34.0720 N.3    94  CYS94      -0.1235
     22  CA        30.0940  -30.5360   35.1860 C.3    94  CYS94       0.1677
     23  C         30.4720  -29.3500   36.0590 C.2    94  CYS94       0.2270
     24  O         29.6110  -28.5360   36.2750 O.2    94  CYS94      -0.2867
     25  CB        29.7300  -31.7990   36.0220 C.3    94  CYS94       0.0956
     26  SG        30.6960  -33.2580   35.6110 S.3    94  CYS94      -0.0801
     27  N         41.4670  -36.1840   28.5800 N.3   123  ARG123     -0.1245
     28  CA        41.9670  -37.0840   29.6370 C.3   123  ARG123      0.1563
     29  C         43.2660  -37.7450   29.1800 C.2   123  ARG123      0.2260
     30  O         43.3970  -38.1590   28.0060 O.2   123  ARG123     -0.2867
     31  CB        40.9000  -38.1470   29.9570 C.3   123  ARG123      0.0307
     32  CG        39.7820  -37.5600   30.8150 C.3   123  ARG123      0.0489
     33  CD        38.7250  -38.5850   31.1500 C.3   123  ARG123      0.2205
     34  NE        37.4200  -37.9590   31.3450 N.pl3 123  ARG123     -0.0865
     35  CZ        36.3040  -38.6100   31.6500 C.cat 123  ARG123      0.5346
     36  NH1       36.3360  -39.9360   31.8290 N.pl3 123  ARG123      0.1354
     37  NH2       35.1540  -37.9460   31.7550 N.pl3 123  ARG123      0.1354
     38  N         44.7470  -40.5030   28.8000 N.3   125  GLU125     -0.1245
     39  CA        44.5970  -41.9690   28.6840 C.3   125  GLU125      0.1567
     40  C         45.9480  -42.6110   28.2730 C.2   125  GLU125      0.2260
     41  O         46.6790  -42.0150   27.4800 O.2   125  GLU125     -0.2867
     42  CB        43.5060  -42.3120   27.6550 C.3   125  GLU125      0.0388
     43  CG        42.1300  -41.7180   27.9320 C.3   125  GLU125      0.1160
     44  CD        41.4280  -42.3250   29.1490 C.2   125  GLU125      0.3649
     45  OE1       41.7100  -43.4950   29.4890 O.co2 125  GLU125     -0.2457
     46  OE2       40.6060  -41.6320   29.7750 O.co2 125  GLU125     -0.2457
     47  N         37.5670  -44.7010   18.7450 N.3   134  MET134     -0.1230
     48  CA        36.8640  -45.4160   19.8270 C.3   134  MET134      0.1702
     49  C         37.4260  -45.0680   21.1870 C.2   134  MET134      0.2592
     50  O         36.6610  -44.8890   22.1240 O.2   134  MET134     -0.2718
     51  CB        37.0130  -46.9620   19.7330 C.3   134  MET134      0.0401
     52  CG        36.6830  -47.5920   18.4120 C.3   134  MET134      0.0596
     53  SD        35.1370  -46.9000   17.8990 S.3   134  MET134     -0.1393
     54  CE        34.6620  -48.2370   16.8050 C.3   134  MET134      0.0692
     55  N         38.7590  -45.0870   21.3000 N.am  135  ARG135     -0.1966
     56  CA        39.4430  -44.7420   22.5820 C.3   135  ARG135      0.1729
     57  C         40.3720  -43.5550   22.3350 C.2   135  ARG135      0.2616
     58  O         41.4670  -43.7420   21.7630 O.2   135  ARG135     -0.2715
     59  CB        40.2850  -45.9240   23.1180 C.3   135  ARG135      0.0348
     60  CG        40.6640  -45.7480   24.5920 C.3   135  ARG135      0.0492
     61  CD        39.4040  -45.5990   25.4360 C.3   135  ARG135      0.2205
     62  NE        39.6480  -45.2380   26.8340 N.pl3 135  ARG135     -0.0865
     63  CZ        38.7010  -44.8580   27.6940 C.cat 135  ARG135      0.5346
     64  NH1       37.4160  -44.8040   27.3230 N.pl3 135  ARG135      0.1354
     65  NH2       39.0370  -44.5310   28.9440 N.pl3 135  ARG135      0.1354
     66  N         39.9480  -42.3550   22.7280 N.am  136  VAL136     -0.1977
     67  CA        40.7500  -41.1220   22.4630 C.3   136  VAL136      0.1596
     68  C         41.1380  -40.3710   23.7370 C.2   136  VAL136      0.2287
     69  O         40.5560  -40.6120   24.8160 O.2   136  VAL136     -0.2864
     70  CB        39.9690  -40.1160   21.5280 C.3   136  VAL136      0.0276
     71  CG1       39.8990  -40.6310   20.0790 C.3   136  VAL136      0.0022
     72  CG2       38.5880  -39.8390   22.1080 C.3   136  VAL136      0.0022
     73  N         37.9990  -35.9980   23.4480 N.3   139  PHE139     -0.1241
     74  CA        36.6830  -36.4770   23.0510 C.3   139  PHE139      0.1605
     75  C         35.6840  -35.3330   23.2620 C.2   139  PHE139      0.2264
     76  O         35.9220  -34.4430   24.1020 O.2   139  PHE139     -0.2867
     77  CB        36.2760  -37.6850   23.9210 C.3   139  PHE139      0.0534
     78  CG        36.4790  -37.4690   25.3890 C.ar  139  PHE139     -0.0203
     79  CD1       37.7560  -37.6000   25.9590 C.ar  139  PHE139     -0.0042
     80  CD2       35.4130  -37.2360   26.2170 C.ar  139  PHE139     -0.0042
     81  CE1       37.9430  -37.4220   27.3290 C.ar  139  PHE139     -0.0003
     82  CE2       35.5800  -37.0530   27.5650 C.ar  139  PHE139     -0.0003
     83  CZ        36.8430  -37.1470   28.1420 C.ar  139  PHE139     -0.0000
     84  N         31.7590  -34.7920   24.2530 N.3   141  GLN141     -0.1245
     85  CA        30.5700  -35.4060   24.8560 C.3   141  GLN141      0.1566
     86  C         29.2810  -34.6260   24.5200 C.2   141  GLN141      0.2260
     87  O         29.2750  -33.4030   24.5370 O.2   141  GLN141     -0.2867
     88  CB        30.7100  -35.4410   26.3700 C.3   141  GLN141      0.0367
     89  CG        31.8610  -36.2840   26.9580 C.3   141  GLN141      0.0905
     90  CD        31.8740  -36.1700   28.4810 C.2   141  GLN141      0.2608
     91  OE1       31.5390  -35.1020   29.0390 O.2   141  GLN141     -0.2717
     92  NE2       32.2550  -37.2630   29.1750 N.am  141  GLN141     -0.0878
     93  N         26.8730  -33.8600   26.4040 N.3   143  ASP143     -0.1239
     94  CA        26.6940  -33.8340   27.8490 C.3   143  ASP143      0.1674
     95  C         25.5420  -32.9390   28.2860 C.2   143  ASP143      0.2266
     96  O         25.0540  -32.0820   27.5400 O.2   143  ASP143     -0.2867
     97  CB        28.0270  -33.3280   28.4590 C.3   143  ASP143      0.1410
     98  CG        28.1970  -33.6900   29.9430 C.2   143  ASP143      0.3668
     99  OD1       27.3590  -34.4000   30.6010 O.co2 143  ASP143     -0.2456
    100  OD2       29.1950  -33.2180   30.4500 O.co2 143  ASP143     -0.2456
    101  N         23.9650  -31.4560   32.3630 N.3   145  HIS145     -0.1241
    102  CA        23.5990  -31.6190   33.7720 C.3   145  HIS145      0.1621
    103  C         22.2730  -30.9700   34.0410 C.2   145  HIS145      0.2264
    104  O         22.0130  -29.8220   33.6320 O.2   145  HIS145     -0.2867
    105  CB        24.7380  -31.0860   34.6770 C.3   145  HIS145      0.0745
    106  CG        26.0390  -31.7660   34.3810 C.ar  145  HIS145      0.0817
    107  ND1       26.8790  -31.3090   33.4320 N.ar  145  HIS145     -0.2268
    108  CD2       26.5730  -32.9840   34.8320 C.ar  145  HIS145      0.1154
    109  CE1       27.9280  -32.1500   33.3110 C.ar  145  HIS145      0.1986
    110  NE2       27.7260  -33.1930   34.1420 N.ar  145  HIS145     -0.2212
    111  N         31.4280  -39.6820   42.5370 N.3   222  TYR222     -0.1241
    112  CA        30.3840  -38.7500   43.0140 C.3   222  TYR222      0.1605
    113  C         28.9380  -39.2900   43.0520 C.2   222  TYR222      0.2264
    114  O         28.0410  -38.6720   43.6880 O.2   222  TYR222     -0.2867
    115  CB        30.3770  -37.4590   42.1630 C.3   222  TYR222      0.0534
    116  CG        30.4420  -37.6610   40.6390 C.ar  222  TYR222     -0.0201
    117  CD1       29.3400  -38.0730   39.9110 C.ar  222  TYR222     -0.0009
    118  CD2       31.6140  -37.3980   39.9370 C.ar  222  TYR222     -0.0009
    119  CE1       29.4120  -38.2460   38.5180 C.ar  222  TYR222      0.0417
    120  CE2       31.6910  -37.5650   38.5580 C.ar  222  TYR222      0.0417
    121  CZ        30.5940  -38.0030   37.8620 C.ar  222  TYR222      0.1957
    122  OH        30.6930  -38.1960   36.4950 O.3   222  TYR222     -0.2866
    123  N         25.5150  -44.8490   38.4250 N.3   225  LYS225     -0.1245
    124  CA        25.3050  -44.6890   36.9740 C.3   225  LYS225      0.1561
    125  C         24.3720  -45.7570   36.3800 C.2   225  LYS225      0.2260
    126  O         24.5800  -46.9460   36.6130 O.2   225  LYS225     -0.2867
    127  CB        26.6620  -44.7510   36.1960 C.3   225  LYS225      0.0271
    128  CG        27.7870  -43.8720   36.7670 C.3   225  LYS225      0.0035
    129  CD        28.8730  -43.5380   35.7410 C.3   225  LYS225      0.0206
    130  CE        29.7530  -44.7120   35.3760 C.3   225  LYS225      0.1093
    131  NZ        30.9310  -44.2180   34.5860 N.3   225  LYS225     -0.1314
    132  N         27.3950  -46.9590   25.5340 N.3   240  CYS240     -0.1235
    133  CA        27.3600  -45.5570   25.0890 C.3   240  CYS240      0.1677
    134  C         26.7540  -44.6040   26.1280 C.2   240  CYS240      0.2270
    135  O         27.4340  -43.7050   26.6500 O.2   240  CYS240     -0.2867
    136  CB        26.6080  -45.4570   23.7510 C.3   240  CYS240      0.0956
    137  SG        27.5210  -46.1810   22.3560 S.3   240  CYS240     -0.0801
    138  N         24.8100  -42.9170   29.4430 N.3   242  THR242     -0.1218
    139  CA        25.0510  -42.8780   30.8970 C.3   242  THR242      0.1862
    140  C         24.1090  -41.8800   31.5620 C.2   242  THR242      0.2287
    141  O         23.9240  -40.7400   31.0750 O.2   242  THR242     -0.2866
    142  CB        26.5700  -42.6250   31.2500 C.3   242  THR242      0.1770
    143  OG1       26.7700  -42.7460   32.6670 O.3   242  THR242     -0.2211
    144  CG2       27.1160  -41.1950   30.7470 C.3   242  THR242      0.0375
    145  N         23.5330  -40.4320   35.5810 N.3   244  GLN244     -0.1245
    146  CA        24.3030  -40.3940   36.8330 C.3   244  GLN244      0.1566
    147  C         23.6390  -39.4690   37.8760 C.2   244  GLN244      0.2260
    148  O         23.2190  -38.3700   37.5780 O.2   244  GLN244     -0.2867
    149  CB        25.7620  -40.0150   36.5740 C.3   244  GLN244      0.0367
    150  CG        26.3960  -40.7170   35.3580 C.3   244  GLN244      0.0905
    151  CD        27.7990  -40.2200   34.9970 C.2   244  GLN244      0.2608
    152  OE1       28.4700  -40.7620   34.0730 O.2   244  GLN244     -0.2717
    153  NE2       28.2590  -39.1980   35.7000 N.am  244  GLN244     -0.0878
    154  N         23.6990  -36.0250   35.8410 N.3   271  HIS271     -0.1226
    155  CA        24.6270  -36.0170   34.6540 C.3   271  HIS271      0.1752
    156  C         24.1070  -36.9990   33.6130 C.2   271  HIS271      0.2596
    157  O         23.6510  -38.1220   33.9590 O.2   271  HIS271     -0.2718
    158  CB        26.0330  -36.5330   35.0000 C.3   271  HIS271      0.0759
    159  CG        26.6970  -35.9340   36.2380 C.ar  271  HIS271      0.0818
    160  ND1       27.9270  -35.3690   36.1880 N.ar  271  HIS271     -0.2268
    161  CD2       26.2640  -35.8120   37.5730 C.ar  271  HIS271      0.1154
    162  CE1       28.2900  -34.9430   37.4090 C.ar  271  HIS271      0.1986
    163  NE2       27.2820  -35.2290   38.2740 N.ar  271  HIS271     -0.2212
    164  N         24.2170  -36.6720   32.3170 N.am  272  ARG272     -0.1966
    165  CA        23.8710  -37.6620   31.2540 C.3   272  ARG272      0.1729
    166  C         24.5060  -37.3450   29.8940 C.2   272  ARG272      0.2616
    167  O         24.7070  -36.1620   29.5350 O.2   272  ARG272     -0.2715
    168  CB        22.3330  -37.8560   31.1000 C.3   272  ARG272      0.0348
    169  CG        21.6770  -37.2850   29.8160 C.3   272  ARG272      0.0492
    170  CD        21.4280  -35.7920   29.9840 C.3   272  ARG272      0.2205
    171  NE        20.8610  -35.1190   28.8160 N.pl3 272  ARG272     -0.0865
    172  CZ        21.5200  -34.8310   27.7080 C.cat 272  ARG272      0.5346
    173  NH1       22.7870  -35.1930   27.5720 N.pl3 272  ARG272      0.1354
    174  NH2       20.9040  -34.1870   26.7220 N.pl3 272  ARG272      0.1354
    175  N         24.9070  -38.4050   29.2060 N.am  273  ALA273     -0.1977
    176  CA        25.3410  -38.3510   27.8090 C.3   273  ALA273      0.1597
    177  C         24.7440  -39.5610   27.1140 C.2   273  ALA273      0.2287
    178  O         24.8510  -40.6660   27.6430 O.2   273  ALA273     -0.2864
    179  CB        26.8460  -38.3910   27.7430 C.3   273  ALA273      0.0319
    180  N         27.5980  -40.4000   24.1360 N.3   276  GLY276     -0.1210
    181  CA        28.8850  -40.6240   24.8020 C.3   276  GLY276      0.1956
    182  C         29.9560  -39.6760   24.2660 C.2   276  GLY276      0.2612
    183  O         29.8650  -38.4920   24.4520 O.2   276  GLY276     -0.2717
    184  N         30.9860  -40.2170   23.6390 N.am  277  SER277     -0.1952
    185  CA        31.9500  -39.4600   22.8260 C.3   277  SER277      0.1924
    186  C         31.3650  -39.4120   21.4130 C.2   277  SER277      0.2314
    187  O         30.9750  -40.4450   20.8950 O.2   277  SER277     -0.2863
    188  CB        33.2850  -40.2230   22.8370 C.3   277  SER277      0.2116
    189  OG        34.0790  -40.0390   21.6750 O.3   277  SER277     -0.2180
    190  N         33.5850  -41.4270   19.0890 N.3   280  ARG280     -0.1245
    191  CA        33.3550  -42.8760   19.2260 C.3   280  ARG280      0.1563
    192  C         32.0400  -43.2320   18.5100 C.2   280  ARG280      0.2260
    193  O         31.9600  -44.2490   17.7970 O.2   280  ARG280     -0.2867
    194  CB        33.3860  -43.2720   20.7080 C.3   280  ARG280      0.0307
    195  CG        33.0150  -44.7220   21.0220 C.3   280  ARG280      0.0489
    196  CD        33.4020  -45.1270   22.4630 C.3   280  ARG280      0.2205
    197  NE        33.2320  -46.5540   22.7190 N.pl3 280  ARG280     -0.0865
    198  CZ        32.1040  -47.0900   23.1930 C.cat 280  ARG280      0.5346
    199  NH1       31.0590  -46.2980   23.4430 N.pl3 280  ARG280      0.1354
    200  NH2       32.0130  -48.4030   23.4380 N.pl3 280  ARG280      0.1354
@<TRIPOS>BOND
     1    54    53    1
     2   193   192    2
     3    53    52    1
     4    52    51    1
     5   192   191    1
     6    47    48    1
     7   190   191    1
     8   191   194    1
     9    51    48    1
    10    48    49    1
    11    71    70    1
    12   194   195    1
    13   187   186    2
    14   195   196    1
    15    49    55   am
    16    49    50    2
    17    55    56    1
    18   186   185    1
    19    70    72    1
    20    70    67    1
    21   189   188    1
    22    58    57    2
    23    57    56    1
    24    57    66   am
    25   137   136    1
    26   196   197    1
    27    67    66    1
    28    67    68    1
    29    56    59    1
    30   197   198    2
    31   185   188    1
    32   185   184    1
    33    74    75    1
    34    74    73    1
    35    74    77    1
    36    59    60    1
    37   198   200    1
    38   198   199    1
    39    75    76    2
    40   184   182   am
    41    68    69    2
    42   136   133    1
    43    77    78    1
    44   180   181    1
    45    84    85    1
    46   182   183    2
    47   182   181    1
    48    86    87    2
    49    86    85    1
    50    60    61    1
    51    85    88    1
    52   133   132    1
    53   133   134    1
    54    78    79   ar
    55    78    80   ar
    56    61    62    1
    57    79    81   ar
    58   134   135    2
    59    80    82   ar
    60    88    89    1
    61    93    94    1
    62   174   172    1
    63    62    63    2
    64    89    90    1
    65   177   178    2
    66   177   176    1
    67    64    63    1
    68    81    83   ar
    69    41    40    2
    70    96    95    2
    71    82    83   ar
    72   173   172    1
    73    42    43    1
    74    42    39    1
    75    63    65    1
    76   172   171    2
    77   179   176    1
    78   176   175    1
    79    94    95    1
    80    94    97    1
    81    43    44    1
    82    30    29    2
    83    40    39    1
    84    97    98    1
    85    90    91    2
    86    90    92   am
    87    27    28    1
    88    39    38    1
    89   171   170    1
    90    44    45   ar
    91    44    46   ar
    92    29    28    1
    93   175   166   am
    94   138   139    1
    95   167   166    2
    96    28    31    1
    97   169   170    1
    98   169   168    1
    99   166   165    1
   100    98   100   ar
   101    98    99   ar
   102    31    32    1
   103   144   142    1
   104    32    33    1
   105   139   142    1
   106   139   140    1
   107   141   140    2
   108   168   165    1
   109    33    34    1
   110   142   143    1
   111   165   164    1
   112    34    35    2
   113    35    37    1
   114    35    36    1
   115    13    14    1
   116   164   156   am
   117   101   102    1
   118    15    14    1
   119    15    16    2
   120    14    17    1
   121   109   107   ar
   122   109   110   ar
   123   107   106   ar
   124   156   157    2
   125   156   155    1
   126   104   103    2
   127   102   103    1
   128   102   105    1
   129    17    18    1
   130    18    19    1
   131    21    22    1
   132   152   151    2
   133   110   108   ar
   134   106   105    1
   135   106   108   ar
   136   131   130    1
   137   155   158    1
   138   155   154    1
   139    12    11    1
   140    10    11   ar
   141    10     8   ar
   142   151   150    1
   143   151   153   am
   144   158   159    1
   145    22    25    1
   146    22    23    1
   147   150   149    1
   148    20    19    1
   149   130   129    1
   150   145   146    1
   151    26    25    1
   152    11     9   ar
   153     8     6   ar
   154   129   128    1
   155    23    24    2
   156   160   159   ar
   157   160   162   ar
   158   127   128    1
   159   127   124    1
   160   159   161   ar
   161   125   126    2
   162   125   124    1
   163   122   121    1
   164   149   146    1
   165   146   147    1
   166   124   123    1
   167     9     7   ar
   168     6     7   ar
   169     6     5    1
   170     4     3    2
   171   162   163   ar
   172   161   163   ar
   173   148   147    2
   174     5     2    1
   175   121   119   ar
   176   121   120   ar
   177     3     2    1
   178   119   117   ar
   179     2     1    1
   180   120   118   ar
   181   117   116   ar
   182   118   116   ar
   183   116   115    1
   184   115   112    1
   185   111   112    1
   186   112   113    1
   187   113   114    2
