@<TRIPOS>MOLECULE
tmp/4hwtA00.pdb
 208 194 0 0 0
SMALL
GASTEIGER

@<TRIPOS>ATOM
      1  N         -0.5400  -33.7980   -4.7740 N.3    72  TYR72      -0.1241
      2  CA        -0.4310  -34.1350   -6.1930 C.3    72  TYR72       0.1605
      3  C         -0.6850  -35.6220   -6.4380 C.2    72  TYR72       0.2264
      4  O         -0.5780  -36.0940   -7.5730 O.2    72  TYR72      -0.2867
      5  CB         0.9730  -33.7620   -6.6860 C.3    72  TYR72       0.0534
      6  CG         1.0510  -32.9450   -7.9690 C.ar   72  TYR72      -0.0201
      7  CD1        0.7410  -31.5770   -7.9800 C.ar   72  TYR72      -0.0009
      8  CD2        1.4910  -33.5280   -9.1610 C.ar   72  TYR72      -0.0009
      9  CE1        0.8330  -30.8300   -9.1460 C.ar   72  TYR72       0.0417
     10  CE2        1.5830  -32.7900  -10.3330 C.ar   72  TYR72       0.0417
     11  CZ         1.2570  -31.4470  -10.3230 C.ar   72  TYR72       0.1957
     12  OH         1.3490  -30.7320  -11.4890 O.3    72  TYR72      -0.2866
     13  N          7.6050  -34.2430  -11.5160 N.3    91  MET91      -0.1245
     14  CA         8.4540  -33.0580  -11.4610 C.3    91  MET91       0.1570
     15  C          9.8700  -33.4960  -11.1200 C.2    91  MET91       0.2261
     16  O         10.0640  -34.5890  -10.5480 O.2    91  MET91      -0.2867
     17  CB         7.9320  -32.0630  -10.4270 C.3    91  MET91       0.0387
     18  CG         6.7030  -31.2710  -10.8450 C.3    91  MET91       0.0595
     19  SD         6.2530  -30.0460   -9.5660 S.3    91  MET91      -0.1393
     20  CE         4.6500  -29.4850  -10.1780 C.3    91  MET91       0.0692
     21  N         11.9810  -31.5980   -9.2280 N.3    93  CYS93      -0.1235
     22  CA        12.4890  -30.8080   -8.0870 C.3    93  CYS93       0.1677
     23  C         12.9820  -31.6640   -6.9100 C.2    93  CYS93       0.2270
     24  O         14.0850  -31.4210   -6.3880 O.2    93  CYS93      -0.2867
     25  CB        11.4780  -29.7460   -7.6030 C.3    93  CYS93       0.0956
     26  SG        10.0300  -29.5140   -8.6670 S.3    93  CYS93      -0.0801
     27  N          2.3830  -37.1630  -15.7890 N.3   122  ARG122     -0.1245
     28  CA         1.2710  -36.7170  -14.9470 C.3   122  ARG122      0.1563
     29  C         -0.0160  -37.3570  -15.4450 C.2   122  ARG122      0.2260
     30  O         -0.1980  -37.5190  -16.6500 O.2   122  ARG122     -0.2867
     31  CB         1.1540  -35.1890  -14.9190 C.3   122  ARG122      0.0307
     32  CG         2.3640  -34.4870  -14.3140 C.3   122  ARG122      0.0489
     33  CD         2.2800  -32.9790  -14.4070 C.3   122  ARG122      0.2205
     34  NE         3.5810  -32.3970  -14.0740 N.pl3 122  ARG122     -0.0865
     35  CZ         3.8100  -31.0910  -13.9470 C.cat 122  ARG122      0.5346
     36  NH1        2.8170  -30.2210  -14.1130 N.pl3 122  ARG122      0.1354
     37  NH2        5.0200  -30.6550  -13.6440 N.pl3 122  ARG122      0.1354
     38  N         10.2850  -31.5240  -19.8780 N.3   140  GLN140     -0.1245
     39  CA        10.3640  -30.0860  -19.6910 C.3   140  GLN140      0.1566
     40  C         11.8000  -29.6430  -19.8630 C.2   140  GLN140      0.2260
     41  O         12.7070  -30.3890  -19.4870 O.2   140  GLN140     -0.2867
     42  CB        10.0320  -29.7310  -18.2510 C.3   140  GLN140      0.0367
     43  CG         8.5930  -29.8470  -17.8110 C.3   140  GLN140      0.0905
     44  CD         8.4490  -29.3970  -16.3570 C.2   140  GLN140      0.2608
     45  OE1        9.4150  -29.4150  -15.5670 O.2   140  GLN140     -0.2717
     46  NE2        7.2440  -29.0060  -15.9920 N.am  140  GLN140     -0.0878
     47  N         13.4120  -28.0750  -17.8400 N.3   142  ASP142     -0.1239
     48  CA        13.3880  -27.7330  -16.4350 C.3   142  ASP142      0.1674
     49  C         14.7790  -27.3840  -15.8700 C.2   142  ASP142      0.2266
     50  O         15.8160  -27.8970  -16.3340 O.2   142  ASP142     -0.2867
     51  CB        12.7840  -28.9330  -15.6820 C.3   142  ASP142      0.1410
     52  CG        12.5020  -28.6470  -14.2370 C.2   142  ASP142      0.3668
     53  OD1       12.4250  -27.4580  -13.8730 O.co2 142  ASP142     -0.2456
     54  OD2       12.3590  -29.6250  -13.4640 O.co2 142  ASP142     -0.2456
     55  N         16.4160  -25.9680  -11.6600 N.3   144  HIS144     -0.1241
     56  CA        16.2600  -25.4290  -10.3060 C.3   144  HIS144      0.1621
     57  C         17.5080  -24.7380   -9.9020 C.2   144  HIS144      0.2264
     58  O         18.6080  -25.3300   -9.9330 O.2   144  HIS144     -0.2867
     59  CB        15.8690  -26.5220   -9.3150 C.3   144  HIS144      0.0745
     60  CG        14.6060  -27.2110   -9.7080 C.ar  144  HIS144      0.0817
     61  ND1       14.5890  -28.3050  -10.4900 N.ar  144  HIS144     -0.2268
     62  CD2       13.2860  -26.8600   -9.4910 C.ar  144  HIS144      0.1154
     63  CE1       13.3240  -28.6590  -10.7240 C.ar  144  HIS144      0.1986
     64  NE2       12.5250  -27.7680  -10.1160 N.ar  144  HIS144     -0.2212
     65  N          2.2540  -12.6580  -15.9600 N.3   177  ASN177     -0.1240
     66  CA         1.2600  -12.7850  -14.8930 C.3   177  ASN177      0.1653
     67  C          1.9250  -13.1390  -13.5780 C.2   177  ASN177      0.2266
     68  O          2.9700  -13.7900  -13.5830 O.2   177  ASN177     -0.2867
     69  CB         0.2540  -13.8800  -15.2410 C.3   177  ASN177      0.1155
     70  CG        -0.6990  -13.4660  -16.3430 C.2   177  ASN177      0.2627
     71  OD1       -0.5590  -12.3910  -16.9300 O.2   177  ASN177     -0.2716
     72  ND2       -1.6830  -14.3150  -16.6260 N.am  177  ASN177     -0.0877
     73  N         -3.2000  -12.6990  -11.0380 N.3   213  ASN213     -0.1240
     74  CA        -3.7670  -13.9790  -11.4460 C.3   213  ASN213      0.1653
     75  C         -4.0580  -14.8240  -10.1870 C.2   213  ASN213      0.2266
     76  O         -3.3640  -15.8050   -9.8950 O.2   213  ASN213     -0.2867
     77  CB        -2.7770  -14.6710  -12.3910 C.3   213  ASN213      0.1155
     78  CG        -3.4030  -15.7860  -13.1960 C.2   213  ASN213      0.2627
     79  OD1       -4.4510  -16.3230  -12.8390 O.2   213  ASN213     -0.2716
     80  ND2       -2.7490  -16.1520  -14.2920 N.am  213  ASN213     -0.0877
     81  N          1.8100  -22.3440   -7.3920 N.3   218  ALA218     -0.1245
     82  CA         2.0910  -23.7430   -7.0170 C.3   218  ALA218      0.1562
     83  C          1.9860  -23.9010   -5.4990 C.2   218  ALA218      0.2260
     84  O          2.1400  -22.9220   -4.7500 O.2   218  ALA218     -0.2867
     85  CB         3.4750  -24.1770   -7.4960 C.3   218  ALA218      0.0290
     86  N          4.0140  -24.9440   -3.4880 N.3   220  TYR220     -0.1241
     87  CA         5.2790  -24.6890   -2.8000 C.3   220  TYR220      0.1605
     88  C          5.7630  -23.2550   -3.0040 C.2   220  TYR220      0.2264
     89  O          6.7530  -22.8490   -2.4010 O.2   220  TYR220     -0.2867
     90  CB         6.3720  -25.6920   -3.2320 C.3   220  TYR220      0.0534
     91  CG         6.4640  -25.8480   -4.7350 C.ar  220  TYR220     -0.0201
     92  CD1        7.1410  -24.9040   -5.5200 C.ar  220  TYR220     -0.0009
     93  CD2        5.8480  -26.9270   -5.3780 C.ar  220  TYR220     -0.0009
     94  CE1        7.1880  -25.0340   -6.8990 C.ar  220  TYR220      0.0417
     95  CE2        5.8910  -27.0610   -6.7500 C.ar  220  TYR220      0.0417
     96  CZ         6.5640  -26.1190   -7.5010 C.ar  220  TYR220      0.1957
     97  OH         6.6070  -26.2590   -8.8540 O.3   220  TYR220     -0.2866
     98  N          4.2630  -17.8010   -8.4450 N.3   223  LYS223     -0.1245
     99  CA         4.8440  -17.9490   -9.7700 C.3   223  LYS223      0.1561
    100  C          4.7400  -16.6720  -10.5710 C.2   223  LYS223      0.2260
    101  O          3.6930  -16.0210  -10.5750 O.2   223  LYS223     -0.2867
    102  CB         4.1060  -19.0200  -10.5810 C.3   223  LYS223      0.0271
    103  CG         3.9880  -20.4140   -9.9860 C.3   223  LYS223      0.0035
    104  CD         3.8990  -21.4280  -11.1210 C.3   223  LYS223      0.0206
    105  CE         2.5260  -21.5240  -11.7610 C.3   223  LYS223      0.1093
    106  NZ         1.8880  -22.7870  -11.3130 N.3   223  LYS223     -0.1314
    107  N          4.1500  -16.2990  -14.1690 N.3   225  ASP225     -0.1225
    108  CA         3.7590  -17.0440  -15.3590 C.3   225  ASP225      0.1805
    109  C          3.8710  -16.1620  -16.5990 C.2   225  ASP225      0.2598
    110  O          3.7640  -14.9290  -16.5100 O.2   225  ASP225     -0.2718
    111  CB         2.3670  -17.6670  -15.1950 C.3   225  ASP225      0.1424
    112  CG         2.3720  -18.8580  -14.2220 C.2   225  ASP225      0.3668
    113  OD1        3.2990  -19.7160  -14.3060 O.co2 225  ASP225     -0.2456
    114  OD2        1.4470  -18.9500  -13.3800 O.co2 225  ASP225     -0.2456
    115  N          4.1330  -16.8000  -17.7430 N.am  226  ILE226     -0.1966
    116  CA         4.4190  -16.0900  -18.9890 C.3   226  ILE226      0.1727
    117  C          3.6820  -16.7530  -20.1410 C.2   226  ILE226      0.2616
    118  O          3.8250  -17.9540  -20.3830 O.2   226  ILE226     -0.2715
    119  CB         5.9390  -16.0450  -19.2840 C.3   226  ILE226      0.0290
    120  CG1        6.6980  -15.3330  -18.1640 C.3   226  ILE226      0.0022
    121  CG2        6.2370  -15.3850  -20.6220 C.3   226  ILE226      0.0023
    122  CD1        7.3980  -16.2770  -17.2040 C.3   226  ILE226      0.0001
    123  N          2.8640  -15.9730  -20.8340 N.am  227  GLN227     -0.1977
    124  CA         2.2730  -16.4410  -22.0750 C.3   227  GLN227      0.1601
    125  C          3.0280  -15.7850  -23.2000 C.2   227  GLN227      0.2287
    126  O          3.3830  -14.6160  -23.1150 O.2   227  GLN227     -0.2864
    127  CB         0.7980  -16.0760  -22.1760 C.3   227  GLN227      0.0394
    128  CG        -0.0180  -16.3920  -20.9380 C.3   227  GLN227      0.0908
    129  CD        -0.7740  -15.1720  -20.4880 C.2   227  GLN227      0.2608
    130  OE1       -0.3860  -14.5240  -19.5180 O.2   227  GLN227     -0.2717
    131  NE2       -1.8240  -14.8080  -21.2330 N.am  227  GLN227     -0.0878
    132  N          0.5620  -20.6010  -22.7720 N.3   237  GLN237     -0.1231
    133  CA         1.3220  -20.6480  -21.5180 C.3   237  GLN237      0.1698
    134  C          2.5050  -21.5940  -21.6210 C.2   237  GLN237      0.2592
    135  O          2.3310  -22.7900  -21.8550 O.2   237  GLN237     -0.2718
    136  CB         0.4390  -21.0470  -20.3480 C.3   237  GLN237      0.0381
    137  CG        -0.9020  -21.6440  -20.7170 C.3   237  GLN237      0.0905
    138  CD        -1.9730  -21.2530  -19.7150 C.2   237  GLN237      0.2608
    139  OE1       -2.5690  -22.1080  -19.0590 O.2   237  GLN237     -0.2717
    140  NE2       -2.2020  -19.9480  -19.5730 N.am  237  GLN237     -0.0878
    141  N          3.7050  -21.0520  -21.4510 N.am  238  CYS238     -0.1956
    142  CA         4.9170  -21.8300  -21.5930 C.3   238  CYS238      0.1843
    143  C          5.8050  -21.6700  -20.3740 C.2   238  CYS238      0.2625
    144  O          5.9980  -22.6110  -19.6060 O.2   238  CYS238     -0.2714
    145  CB         5.6970  -21.3840  -22.8320 C.3   238  CYS238      0.0997
    146  SG         4.8020  -21.5360  -24.3870 S.3   238  CYS238     -0.0797
    147  N          6.3490  -20.4670  -20.2190 N.am  239  ALA239     -0.1963
    148  CA         7.3660  -20.2050  -19.2340 C.3   239  ALA239      0.1728
    149  C          6.7980  -19.8900  -17.8660 C.2   239  ALA239      0.2616
    150  O          5.7120  -19.3310  -17.7270 O.2   239  ALA239     -0.2715
    151  CB         8.2880  -19.0890  -19.6900 C.3   239  ALA239      0.0334
    152  N          7.5770  -20.2620  -16.8640 N.am  240  THR240     -0.1951
    153  CA         7.2410  -20.0420  -15.4880 C.3   240  THR240      0.1897
    154  C          8.5370  -19.8390  -14.6860 C.2   240  THR240      0.2313
    155  O          9.5400  -20.4840  -14.9580 O.2   240  THR240     -0.2863
    156  CB         6.4200  -21.2150  -14.9380 C.3   240  THR240      0.1794
    157  OG1        6.1910  -21.0050  -13.5420 O.3   240  THR240     -0.2208
    158  CG2        7.1360  -22.5380  -15.1360 C.3   240  THR240      0.0378
    159  N          9.3000  -19.6970  -10.6190 N.3   242  GLN242     -0.1245
    160  CA         8.6010  -20.0170   -9.3980 C.3   242  GLN242      0.1566
    161  C          9.5640  -19.8730   -8.2350 C.2   242  GLN242      0.2260
    162  O         10.6940  -20.3740   -8.2710 O.2   242  GLN242     -0.2867
    163  CB         8.0620  -21.4450   -9.4570 C.3   242  GLN242      0.0367
    164  CG         7.3870  -21.8040  -10.7760 C.3   242  GLN242      0.0905
    165  CD         6.9260  -23.2540  -10.8450 C.2   242  GLN242      0.2608
    166  OE1        7.2160  -24.0490   -9.9500 O.2   242  GLN242     -0.2717
    167  NE2        6.2180  -23.6080  -11.9190 N.am  242  GLN242     -0.0878
    168  N         12.2810  -22.3670   -9.4030 N.3   266  HIS266     -0.1226
    169  CA        11.9430  -23.3150  -10.4340 C.3   266  HIS266      0.1752
    170  C         11.7200  -22.4820  -11.6410 C.2   266  HIS266      0.2596
    171  O         11.1680  -21.3740  -11.5370 O.2   266  HIS266     -0.2718
    172  CB        10.6730  -24.0580  -10.1310 C.3   266  HIS266      0.0759
    173  CG        10.6470  -24.7260   -8.7900 C.ar  266  HIS266      0.0818
    174  ND1       10.5010  -26.0510   -8.6580 N.ar  266  HIS266     -0.2268
    175  CD2       10.7030  -24.2070   -7.5010 C.ar  266  HIS266      0.1154
    176  CE1       10.4720  -26.3720   -7.3410 C.ar  266  HIS266      0.1986
    177  NE2       10.6060  -25.2500   -6.6420 N.ar  266  HIS266     -0.2212
    178  N         12.0790  -23.0230  -12.8000 N.am  267  ARG267     -0.1966
    179  CA        12.0290  -22.2740  -14.0300 C.3   267  ARG267      0.1729
    180  C         11.9480  -23.2340  -15.2370 C.2   267  ARG267      0.2616
    181  O         12.6200  -24.2640  -15.2820 O.2   267  ARG267     -0.2715
    182  CB        13.3190  -21.4590  -14.1140 C.3   267  ARG267      0.0348
    183  CG        14.4820  -22.4450  -14.1740 C.3   267  ARG267      0.0492
    184  CD        15.7260  -21.8090  -14.6440 C.3   267  ARG267      0.2205
    185  NE        15.8380  -21.5940  -16.0760 N.pl3 267  ARG267     -0.0865
    186  CZ        15.5310  -22.4280  -17.0580 C.cat 267  ARG267      0.5346
    187  NH1       14.9780  -23.6160  -16.8580 N.pl3 267  ARG267      0.1354
    188  NH2       15.7650  -22.0050  -18.2840 N.pl3 267  ARG267      0.1354
    189  N         11.1160  -22.8860  -16.2050 N.am  268  ALA268     -0.1977
    190  CA        11.1360  -23.5210  -17.5060 C.3   268  ALA268      0.1597
    191  C         10.8240  -22.4360  -18.5070 C.2   268  ALA268      0.2287
    192  O         10.1450  -21.4520  -18.1680 O.2   268  ALA268     -0.2864
    193  CB        10.1160  -24.6460  -17.5920 C.3   268  ALA268      0.0319
    194  N          8.5840  -24.8020  -21.5810 N.3   271  GLY271     -0.1225
    195  CA         7.4300  -25.4710  -20.9540 C.3   271  GLY271      0.1811
    196  C          7.6350  -26.9550  -21.0550 C.2   271  GLY271      0.2280
    197  O          8.1960  -27.5540  -20.1650 O.2   271  GLY271     -0.2866
    198  N          4.9540  -29.4210  -25.9660 N.3   275  ARG275     -0.1245
    199  CA         4.0350  -28.2790  -26.1680 C.3   275  ARG275      0.1563
    200  C          4.6040  -27.2720  -27.1710 C.2   275  ARG275      0.2260
    201  O          3.8870  -26.7340  -28.0290 O.2   275  ARG275     -0.2867
    202  CB         3.6470  -27.5960  -24.8400 C.3   275  ARG275      0.0307
    203  CG         2.6180  -26.4670  -24.9820 C.3   275  ARG275      0.0489
    204  CD         2.0620  -25.9740  -23.6400 C.3   275  ARG275      0.2205
    205  NE         0.8570  -26.7200  -23.2570 N.pl3 275  ARG275     -0.0865
    206  CZ         0.3370  -26.7690  -22.0290 C.cat 275  ARG275      0.5346
    207  NH1        0.8940  -26.1040  -21.0140 N.pl3 275  ARG275      0.1354
    208  NH2       -0.7540  -27.4940  -21.8130 N.pl3 275  ARG275      0.1354
@<TRIPOS>BOND
     1   201   200    2
     2   200   199    1
     3   199   198    1
     4   199   202    1
     5   203   202    1
     6   203   204    1
     7   146   145    1
     8   204   205    1
     9   205   206    2
    10   125   126    2
    11   125   124    1
    12   145   142    1
    13   132   133    1
    14   127   124    1
    15   127   128    1
    16   124   123    1
    17   206   208    1
    18   206   207    1
    19   135   134    2
    20   134   133    1
    21   134   141   am
    22   142   141    1
    23   142   143    1
    24   194   195    1
    25   133   136    1
    26   131   129   am
    27   196   195    1
    28   196   197    2
    29   128   129    1
    30   123   117   am
    31   137   136    1
    32   137   138    1
    33   121   119    1
    34   129   130    2
    35   118   117    2
    36   143   147   am
    37   143   144    2
    38   147   148    1
    39   117   116    1
    40    38    39    1
    41    40    39    1
    42    40    41    2
    43   138   140   am
    44   138   139    2
    45    39    42    1
    46   151   148    1
    47   119   116    1
    48   119   120    1
    49   148   149    1
    50   116   115    1
    51   191   192    2
    52   191   190    1
    53   188   186    1
    54    42    43    1
    55   120   122    1
    56   149   150    2
    57   149   152   am
    58    47    48    1
    59    43    44    1
    60   115   109   am
    61   193   190    1
    62   190   189    1
    63   186   187    1
    64   186   185    2
    65    71    70    2
    66   152   153    1
    67    30    29    2
    68    72    70   am
    69   109   110    2
    70   109   108    1
    71    48    49    1
    72    48    51    1
    73    44    46   am
    74    44    45    2
    75    70    69    1
    76    50    49    2
    77   189   180   am
    78   185   184    1
    79    65    66    1
    80    27    28    1
    81    51    52    1
    82   153   156    1
    83   153   154    1
    84    29    28    1
    85   108   111    1
    86   108   107    1
    87   181   180    2
    88    69    66    1
    89   180   179    1
    90   111   112    1
    91   158   156    1
    92   155   154    2
    93    28    31    1
    94   156   157    1
    95    31    32    1
    96    66    67    1
    97   184   183    1
    98    33    32    1
    99    33    34    1
   100   113   112   ar
   101    80    78   am
   102    52    53   ar
   103    52    54   ar
   104   112   114   ar
   105   183   182    1
   106   182   179    1
   107    36    35    1
   108    34    35    2
   109   179   178    1
   110    35    37    1
   111    68    67    2
   112    78    79    2
   113    78    77    1
   114   178   170   am
   115    77    74    1
   116   167   165   am
   117   105   106    1
   118   105   104    1
   119    55    56    1
   120   170   171    2
   121   170   169    1
   122    13    14    1
   123    12    11    1
   124    14    15    1
   125    14    17    1
   126    74    73    1
   127    74    75    1
   128   104   103    1
   129    15    16    2
   130   165   164    1
   131   165   166    2
   132    18    17    1
   133    18    19    1
   134   164   163    1
   135    63    61   ar
   136    63    64   ar
   137   159   160    1
   138   102   103    1
   139   102    99    1
   140   101   100    2
   141   100    99    1
   142    61    60   ar
   143   169   172    1
   144   169   168    1
   145    10    11   ar
   146    10     8   ar
   147    11     9   ar
   148    56    57    1
   149    56    59    1
   150    75    76    2
   151    20    19    1
   152   172   173    1
   153    64    62   ar
   154    58    57    2
   155    99    98    1
   156    60    62   ar
   157    60    59    1
   158   163   160    1
   159   160   161    1
   160    21    22    1
   161     8     6   ar
   162     9     7   ar
   163    97    96    1
   164   173   174   ar
   165   173   175   ar
   166    26    25    1
   167   174   176   ar
   168   162   161    2
   169    22    25    1
   170    22    23    1
   171     7     6   ar
   172     6     5    1
   173     4     3    2
   174   175   177   ar
   175    96    94   ar
   176    96    95   ar
   177    85    82    1
   178    81    82    1
   179   176   177   ar
   180    82    83    1
   181    23    24    2
   182    94    92   ar
   183    95    93   ar
   184     5     2    1
   185     3     2    1
   186     2     1    1
   187    92    91   ar
   188    83    84    2
   189    93    91   ar
   190    91    90    1
   191    86    87    1
   192    90    87    1
   193    88    87    1
   194    88    89    2
