@<TRIPOS>MOLECULE
tmp/4hwwB00.pdb
 117 107 0 0 0
SMALL
GASTEIGER

@<TRIPOS>ATOM
      1  N        -15.8330   11.2570   18.3260 N.3   122  HIS122     -0.1241
      2  CA       -17.2450   11.5820   18.1090 C.3   122  HIS122      0.1621
      3  C        -17.4550   12.5110   16.9050 C.2   122  HIS122      0.2264
      4  O        -16.5590   13.2530   16.5320 O.2   122  HIS122     -0.2867
      5  CB       -17.8200   12.2640   19.3510 C.3   122  HIS122      0.0745
      6  CG       -17.5620   11.5240   20.6270 C.ar  122  HIS122      0.0817
      7  ND1      -16.5600   11.8810   21.5050 N.ar  122  HIS122     -0.2268
      8  CD2      -18.1820   10.4560   21.1810 C.ar  122  HIS122      0.1154
      9  CE1      -16.5710   11.0620   22.5390 C.ar  122  HIS122      0.1986
     10  NE2      -17.5460   10.1870   22.3670 N.ar  122  HIS122     -0.2212
     11  N        -19.9000   14.8920   16.8270 N.3   124  ASP124     -0.1239
     12  CA       -20.3500   16.1870   17.3310 C.3   124  ASP124      0.1674
     13  C        -21.3640   16.8620   16.4040 C.2   124  ASP124      0.2266
     14  O        -21.3730   18.0770   16.2520 O.2   124  ASP124     -0.2867
     15  CB       -19.1490   17.0960   17.5860 C.3   124  ASP124      0.1410
     16  CG       -18.2770   16.5940   18.7100 C.2   124  ASP124      0.3668
     17  OD1      -17.2400   17.2250   18.9860 O.co2 124  ASP124     -0.2456
     18  OD2      -18.6350   15.5700   19.3220 O.co2 124  ASP124     -0.2456
     19  N        -24.8600   15.9970   16.3700 N.3   126  ASN126     -0.1240
     20  CA       -26.2400   15.9550   16.8140 C.3   126  ASN126      0.1653
     21  C        -26.8550   17.3300   16.6210 C.2   126  ASN126      0.2266
     22  O        -26.1740   18.3300   16.7490 O.2   126  ASN126     -0.2867
     23  CB       -26.3310   15.5420   18.2830 C.3   126  ASN126      0.1155
     24  CG       -26.4430   14.0440   18.4680 C.2   126  ASN126      0.2627
     25  OD1      -27.3350   13.4070   17.9210 O.2   126  ASN126     -0.2716
     26  ND2      -25.5360   13.4770   19.2430 N.am  126  ASN126     -0.0877
     27  N        -30.3140   15.1450   19.6160 N.3   131  THR131     -0.1203
     28  CA       -29.5310   14.8780   20.8170 C.3   131  THR131      0.1994
     29  C        -30.3650   14.1670   21.8820 C.2   131  THR131      0.2619
     30  O        -31.5530   14.4230   22.0250 O.2   131  THR131     -0.2717
     31  CB       -28.9200   16.1590   21.4000 C.3   131  THR131      0.1784
     32  OG1      -28.1530   15.8310   22.5610 O.3   131  THR131     -0.2211
     33  CG2      -29.9960   17.1540   21.7750 C.3   131  THR131      0.0376
     34  N        -29.7430   13.2460   22.6050 N.am  132  THR132     -0.1938
     35  CA       -30.4320   12.5630   23.6840 C.3   132  THR132      0.2028
     36  C        -29.8600   13.0030   25.0250 C.2   132  THR132      0.2642
     37  O        -30.4870   12.8440   26.0630 O.2   132  THR132     -0.2714
     38  CB       -30.3340   11.0280   23.5590 C.3   132  THR132      0.1808
     39  OG1      -28.9730   10.6470   23.3200 O.3   132  THR132     -0.2208
     40  CG2      -31.2010   10.5250   22.4290 C.3   132  THR132      0.0379
     41  N        -28.6560   13.5540   24.9940 N.am  133  SER133     -0.1949
     42  CA       -27.9850   13.9850   26.2090 C.3   133  SER133      0.1924
     43  C        -28.2660   15.4530   26.4970 C.2   133  SER133      0.2314
     44  O        -28.2550   15.8750   27.6500 O.2   133  SER133     -0.2863
     45  CB       -26.4850   13.7850   26.0700 C.3   133  SER133      0.2116
     46  OG       -25.9720   14.6770   25.1020 O.3   133  SER133     -0.2180
     47  N        -26.3090   17.8210   25.6230 N.3   135  ASN135     -0.1240
     48  CA       -25.0290   18.4890   25.7980 C.3   135  ASN135      0.1653
     49  C        -24.5530   19.1100   24.4940 C.2   135  ASN135      0.2266
     50  O        -24.4130   18.4160   23.4980 O.2   135  ASN135     -0.2867
     51  CB       -23.9920   17.5030   26.3390 C.3   135  ASN135      0.1155
     52  CG       -24.4040   16.9070   27.6660 C.2   135  ASN135      0.2627
     53  OD1      -25.0610   17.5640   28.4630 O.2   135  ASN135     -0.2716
     54  ND2      -24.0270   15.6610   27.9070 N.am  135  ASN135     -0.0877
     55  N        -21.7480   20.2800   23.4520 N.3   137  HIS137     -0.1226
     56  CA       -20.4280   19.9220   22.9310 C.3   137  HIS137      0.1752
     57  C        -20.5120   18.7660   21.9310 C.2   137  HIS137      0.2596
     58  O        -19.5690   18.5060   21.1910 O.2   137  HIS137     -0.2718
     59  CB       -19.4170   19.6460   24.0640 C.3   137  HIS137      0.0759
     60  CG       -19.6260   18.3450   24.7870 C.ar  137  HIS137      0.0818
     61  ND1      -18.5850   17.6370   25.3470 N.ar  137  HIS137     -0.2268
     62  CD2      -20.7460   17.6350   25.0520 C.ar  137  HIS137      0.1154
     63  CE1      -19.0560   16.5380   25.9120 C.ar  137  HIS137      0.1986
     64  NE2      -20.3650   16.5140   25.7480 N.ar  137  HIS137     -0.2212
     65  N        -21.6610   18.0950   21.9030 N.am  138  GLY138     -0.1957
     66  CA       -21.9110   17.0210   20.9560 C.3   138  GLY138      0.1869
     67  C        -22.7940   17.4470   19.7960 C.2   138  GLY138      0.2309
     68  O        -23.3200   16.6030   19.0750 O.2   138  GLY138     -0.2863
     69  N        -17.4470    6.4030   18.3630 N.3   177  ASP177     -0.1239
     70  CA       -18.6520    6.4550   19.1920 C.3   177  ASP177      0.1674
     71  C        -19.6470    7.4570   18.6150 C.2   177  ASP177      0.2266
     72  O        -19.7280    8.5990   19.0570 O.2   177  ASP177     -0.2867
     73  CB       -18.3120    6.7880   20.6570 C.3   177  ASP177      0.1410
     74  CG       -19.4510    6.4570   21.6210 C.2   177  ASP177      0.3668
     75  OD1      -20.4430    5.8500   21.1950 O.co2 177  ASP177     -0.2456
     76  OD2      -19.3510    6.7860   22.8180 O.co2 177  ASP177     -0.2456
     77  N        -23.5980    8.3950   17.5120 N.3   179  ASP179     -0.1239
     78  CA       -24.9990    8.1110   17.8210 C.3   179  ASP179      0.1674
     79  C        -25.7400    7.7250   16.5530 C.2   179  ASP179      0.2266
     80  O        -25.3170    8.0940   15.4680 O.2   179  ASP179     -0.2867
     81  CB       -25.6610    9.3350   18.4560 C.3   179  ASP179      0.1410
     82  CG       -25.1060    9.6590   19.8260 C.2   179  ASP179      0.3668
     83  OD1      -24.5690    8.7460   20.4820 O.co2 179  ASP179     -0.2456
     84  OD2      -25.2070   10.8290   20.2520 O.co2 179  ASP179     -0.2456
     85  N        -26.6730   10.6430   14.4270 N.3   182  GLU182     -0.1245
     86  CA       -25.4730   11.2230   13.8600 C.3   182  GLU182      0.1567
     87  C        -25.0150   10.4100   12.6670 C.2   182  GLU182      0.2260
     88  O        -24.5520   10.9630   11.6790 O.2   182  GLU182     -0.2867
     89  CB       -24.3550   11.2370   14.8890 C.3   182  GLU182      0.0388
     90  CG       -24.5310   12.2460   15.9930 C.3   182  GLU182      0.1160
     91  CD       -23.3440   12.2640   16.9240 C.2   182  GLU182      0.3649
     92  OE1      -23.1340   11.2630   17.6280 O.co2 182  GLU182     -0.2457
     93  OE2      -22.6110   13.2640   16.9270 O.co2 182  GLU182     -0.2457
     94  N        -10.1550   17.3460   19.2030 N.3   228  ASP228     -0.1239
     95  CA       -10.6740   16.8700   20.4790 C.3   228  ASP228      0.1674
     96  C         -9.6800   15.8390   20.9990 C.2   228  ASP228      0.2266
     97  O         -9.3680   14.8720   20.3070 O.2   228  ASP228     -0.2867
     98  CB       -12.0440   16.2350   20.2680 C.3   228  ASP228      0.1410
     99  CG       -12.7490   15.8770   21.5650 C.2   228  ASP228      0.3668
    100  OD1      -12.0770   15.5490   22.5600 O.co2 228  ASP228     -0.2456
    101  OD2      -13.9990   15.9190   21.5840 O.co2 228  ASP228     -0.2456
    102  N        -15.2480   12.5310   27.9090 N.3   242  THR242     -0.1218
    103  CA       -15.9040   11.4270   27.2220 C.3   242  THR242      0.1862
    104  C        -14.9120   10.4770   26.5340 C.2   242  THR242      0.2287
    105  O        -14.8870   10.3900   25.3120 O.2   242  THR242     -0.2866
    106  CB       -16.8860   11.9750   26.1840 C.3   242  THR242      0.1770
    107  OG1      -16.2500   13.0410   25.4720 O.3   242  THR242     -0.2211
    108  CG2      -18.1110   12.5250   26.8590 C.3   242  THR242      0.0375
    109  N        -11.2660   20.0020   25.0570 N.3   273  GLU273     -0.1245
    110  CA       -11.7140   18.9560   25.9690 C.3   273  GLU273      0.1567
    111  C        -10.6630   18.3960   26.9390 C.2   273  GLU273      0.2260
    112  O        -10.8600   17.3310   27.5070 O.2   273  GLU273     -0.2867
    113  CB       -12.4160   17.8170   25.2120 C.3   273  GLU273      0.0388
    114  CG       -13.6450   18.2490   24.4040 C.3   273  GLU273      0.1160
    115  CD       -14.8960   18.4190   25.2440 C.2   273  GLU273      0.3649
    116  OE1      -14.8860   18.0460   26.4310 O.co2 273  GLU273     -0.2457
    117  OE2      -15.9040   18.9230   24.7130 O.co2 273  GLU273     -0.2457
@<TRIPOS>BOND
     1    88    87    2
     2    87    86    1
     3    86    85    1
     4    86    89    1
     5    89    90    1
     6    80    79    2
     7    90    91    1
     8    14    13    2
     9    19    20    1
    10    13    12    1
    11     4     3    2
    12    79    78    1
    13    21    22    2
    14    21    20    1
    15    20    23    1
    16    11    12    1
    17     3     2    1
    18    91    93   ar
    19    91    92   ar
    20    12    15    1
    21    77    78    1
    22    15    16    1
    23    78    81    1
    24    25    24    2
    25     2     1    1
    26     2     5    1
    27    23    24    1
    28    69    70    1
    29    81    82    1
    30    24    26   am
    31    71    72    2
    32    71    70    1
    33    16    17   ar
    34    16    18   ar
    35    68    67    2
    36    70    73    1
    37    94    95    1
    38     5     6    1
    39    27    28    1
    40    67    66    1
    41    82    84   ar
    42    82    83   ar
    43    98    95    1
    44    98    99    1
    45    97    96    2
    46    95    96    1
    47     6     8   ar
    48     6     7   ar
    49    73    74    1
    50    28    31    1
    51    28    29    1
    52    66    65    1
    53     8    10   ar
    54    58    57    2
    55    75    74   ar
    56    31    33    1
    57    31    32    1
    58     7     9   ar
    59    99   101   ar
    60    99   100   ar
    61    74    76   ar
    62    29    30    2
    63    29    34   am
    64    65    57   am
    65    57    56    1
    66    10     9   ar
    67    40    38    1
    68    34    35    1
    69    56    55    1
    70    56    59    1
    71    39    38    1
    72    50    49    2
    73    38    35    1
    74    35    36    1
    75    59    60    1
    76   114   113    1
    77   114   115    1
    78    49    48    1
    79   117   115   ar
    80    60    62   ar
    81    60    61   ar
    82    41    36   am
    83    41    42    1
    84    36    37    2
    85    62    64   ar
    86   109   110    1
    87    46    45    1
    88   113   110    1
    89   115   116   ar
    90   105   104    2
    91    61    63   ar
    92   107   106    1
    93    47    48    1
    94    64    63   ar
    95    48    51    1
    96   110   111    1
    97    45    42    1
    98   106   108    1
    99   106   103    1
   100    42    43    1
   101    51    52    1
   102    43    44    2
   103   104   103    1
   104   111   112    2
   105   103   102    1
   106    52    54   am
   107    52    53    2
