@<TRIPOS>MOLECULE
tmp/4hx0A01.pdb
 107 99 0 0 0
SMALL
GASTEIGER

@<TRIPOS>ATOM
      1  N          9.1440    2.1150   12.2930 N.3    32  THR32      -0.1203
      2  CA         8.4540    2.0960   11.0130 C.3    32  THR32       0.1994
      3  C          7.0020    1.7420   11.2610 C.2    32  THR32       0.2618
      4  O          6.5280    1.8220   12.3900 O.2    32  THR32      -0.2717
      5  CB         9.1040    1.1130   10.0170 C.3    32  THR32       0.1784
      6  OG1        9.0390   -0.2180   10.5410 O.3    32  THR32      -0.2211
      7  CG2       10.5510    1.4880    9.7740 C.3    32  THR32       0.0376
      8  N          6.2690    1.3800   10.2130 N.am   33  GLY33      -0.1956
      9  CA         4.8840    0.9710   10.3900 C.3    33  GLY33       0.1869
     10  C          4.0350    2.0780   10.9900 C.2    33  GLY33       0.2309
     11  O          4.3620    3.2650   10.8860 O.2    33  GLY33      -0.2863
     12  N         12.7580   -1.0530   12.2520 N.3    52  GLN52      -0.1245
     13  CA        13.5390   -1.4690   11.1330 C.3    52  GLN52       0.1566
     14  C         14.9740   -1.0250   11.3960 C.2    52  GLN52       0.2260
     15  O         15.2300    0.0270   11.9920 O.2    52  GLN52      -0.2867
     16  CB        12.9850   -0.8470    9.8580 C.3    52  GLN52       0.0367
     17  CG        13.7990   -1.1340    8.6200 C.3    52  GLN52       0.0905
     18  CD        13.0690   -0.7150    7.3640 C.2    52  GLN52       0.2608
     19  OE1       11.8930   -0.3640    7.4180 O.2    52  GLN52      -0.2717
     20  NE2       13.7610   -0.7590    6.2260 N.am   52  GLN52      -0.0878
     21  N          9.8020  -10.4340    0.0540 N.3    81  ILE81      -0.1245
     22  CA        10.4710   -9.5750    1.0200 C.3    81  ILE81       0.1561
     23  C         11.2410  -10.4510    1.9830 C.2    81  ILE81       0.2260
     24  O         10.7990  -11.5340    2.3670 O.2    81  ILE81      -0.2867
     25  CB         9.4620   -8.6950    1.8100 C.3    81  ILE81       0.0252
     26  CG1        8.4490   -8.0260    0.8770 C.3    81  ILE81       0.0019
     27  CG2       10.1910   -7.6390    2.6220 C.3    81  ILE81       0.0019
     28  CD1        7.2800   -7.3980    1.6280 C.3    81  ILE81       0.0001
     29  N         13.0290   -5.7780   12.2370 N.3    98  MET98      -0.1245
     30  CA        13.3350   -6.1280   10.8490 C.3    98  MET98       0.1570
     31  C         14.6500   -5.5260   10.4320 C.2    98  MET98       0.2261
     32  O         14.7480   -4.3170   10.2600 O.2    98  MET98      -0.2867
     33  CB        12.2550   -5.6210    9.9060 C.3    98  MET98       0.0387
     34  CG        11.1000   -6.5740    9.7730 C.3    98  MET98       0.0595
     35  SD         9.9810   -6.2720   11.1260 S.3    98  MET98      -0.1393
     36  CE         9.0930   -4.8650   10.4610 C.3    98  MET98       0.0692
     37  N         15.7670   -4.9940    5.4990 N.3   101  ILE101     -0.1245
     38  CA        14.6330   -5.4110    4.7040 C.3   101  ILE101      0.1561
     39  C         14.9890   -5.2250    3.2500 C.2   101  ILE101      0.2260
     40  O         15.4680   -4.1660    2.8360 O.2   101  ILE101     -0.2867
     41  CB        13.3880   -4.5530    5.0070 C.3   101  ILE101      0.0252
     42  CG1       13.0360   -4.6860    6.4900 C.3   101  ILE101      0.0019
     43  CG2       12.2340   -4.9370    4.0830 C.3   101  ILE101      0.0019
     44  CD1       11.8240   -3.8660    6.8790 C.3   101  ILE101      0.0001
     45  N         13.5430   -6.0290   -0.8030 N.3   103  LYS103     -0.1245
     46  CA        12.4150   -6.3730   -1.6690 C.3   103  LYS103      0.1561
     47  C         12.9260   -7.0910   -2.9130 C.2   103  LYS103      0.2260
     48  O         13.9950   -6.7640   -3.4140 O.2   103  LYS103     -0.2867
     49  CB        11.6470   -5.1050   -2.0820 C.3   103  LYS103      0.0271
     50  CG        11.0520   -4.3240   -0.9070 C.3   103  LYS103      0.0035
     51  CD         9.9280   -3.3690   -1.3130 C.3   103  LYS103      0.0206
     52  CE         8.9470   -3.2100   -0.1490 C.3   103  LYS103      0.1093
     53  NZ         7.8980   -2.1440   -0.2570 N.3   103  LYS103     -0.1314
     54  N         11.4890    6.5190    9.8100 N.3   133  LEU133     -0.1245
     55  CA        11.6240    6.7620    8.3780 C.3   133  LEU133      0.1561
     56  C         10.6370    7.8170    7.9510 C.2   133  LEU133      0.2260
     57  O          9.5050    7.8540    8.4470 O.2   133  LEU133     -0.2867
     58  CB        11.4050    5.4880    7.5600 C.3   133  LEU133      0.0270
     59  CG        12.5570    4.5040    7.6920 C.3   133  LEU133      0.0019
     60  CD1       12.2560    3.2470    6.9150 C.3   133  LEU133      0.0001
     61  CD2       13.8800    5.1310    7.2540 C.3   133  LEU133      0.0001
     62  N          8.8740    8.2610    2.5820 N.3   137  TYR137     -0.1227
     63  CA         9.4120    6.9270    2.3660 C.3   137  TYR137      0.1736
     64  C          8.4090    5.8640    2.7810 C.2   137  TYR137      0.2595
     65  O          8.2450    4.8340    2.0930 O.2   137  TYR137     -0.2718
     66  CB        10.7150    6.6980    3.1500 C.3   137  TYR137      0.0548
     67  CG        11.3060    5.3510    2.8470 C.ar  137  TYR137     -0.0200
     68  CD1       12.1890    5.1830    1.7720 C.ar  137  TYR137     -0.0009
     69  CD2       10.9670    4.2370    3.6110 C.ar  137  TYR137     -0.0009
     70  CE1       12.7240    3.9420    1.4750 C.ar  137  TYR137      0.0417
     71  CE2       11.4900    2.9950    3.3120 C.ar  137  TYR137      0.0417
     72  CZ        12.3700    2.8560    2.2510 C.ar  137  TYR137      0.1957
     73  OH        12.8790    1.6130    1.9730 O.3   137  TYR137     -0.2866
     74  N          7.7780    6.0900    3.9230 N.am  138  GLU138     -0.1979
     75  CA         6.8310    5.1370    4.5140 C.3   138  GLU138      0.1602
     76  C          5.6280    4.9530    3.5930 C.2   138  GLU138      0.2287
     77  O          5.1780    3.8430    3.3420 O.2   138  GLU138     -0.2864
     78  CB         6.3500    5.6600    5.8700 C.3   138  GLU138      0.0415
     79  CG         7.3350    5.4860    7.0100 C.3   138  GLU138      0.1163
     80  CD         7.5960    4.0310    7.2840 C.2   138  GLU138      0.3649
     81  OE1        6.6660    3.2130    7.1300 O.co2 138  GLU138     -0.2457
     82  OE2        8.7270    3.7060    7.6510 O.co2 138  GLU138     -0.2457
     83  N          6.6190    3.0570    0.6230 N.3   141  ALA141     -0.1231
     84  CA         6.8250    1.6610    0.9580 C.3   141  ALA141      0.1694
     85  C          5.5060    0.8820    1.0670 C.2   141  ALA141      0.2592
     86  O          5.4200   -0.2560    0.5960 O.2   141  ALA141     -0.2718
     87  CB         7.6150    1.5410    2.2360 C.3   141  ALA141      0.0304
     88  N          4.5050    1.4800    1.7150 N.am  142  TYR142     -0.1976
     89  CA         3.1910    0.8560    1.8550 C.3   142  TYR142      0.1639
     90  C          2.4980    0.7510    0.5200 C.2   142  TYR142      0.2290
     91  O          1.8860   -0.2710    0.2380 O.2   142  TYR142     -0.2864
     92  CB         2.3120    1.5900    2.8760 C.3   142  TYR142      0.0560
     93  CG         2.5610    1.0610    4.2530 C.ar  142  TYR142     -0.0198
     94  CD1        3.6820    1.4580    4.9650 C.ar  142  TYR142     -0.0009
     95  CD2        1.7130    0.0990    4.8170 C.ar  142  TYR142     -0.0009
     96  CE1        3.9390    0.9520    6.2250 C.ar  142  TYR142      0.0417
     97  CE2        1.9590   -0.4160    6.0780 C.ar  142  TYR142      0.0417
     98  CZ         3.0770    0.0220    6.7690 C.ar  142  TYR142      0.1957
     99  OH         3.3280   -0.4600    8.0180 O.3   142  TYR142     -0.2866
    100  N          4.0280   -2.1760   -1.1300 N.3   145  LEU145     -0.1245
    101  CA         3.4430   -3.3790   -0.5310 C.3   145  LEU145      0.1561
    102  C          2.0520   -3.6140   -1.1020 C.2   145  LEU145      0.2260
    103  O          1.6620   -4.7460   -1.3690 O.2   145  LEU145     -0.2867
    104  CB         3.3340   -3.2280    0.9870 C.3   145  LEU145      0.0270
    105  CG         4.6010   -3.3240    1.8310 C.3   145  LEU145      0.0019
    106  CD1        4.2660   -2.9080    3.2510 C.3   145  LEU145      0.0001
    107  CD2        5.1250   -4.7490    1.8060 C.3   145  LEU145      0.0001
@<TRIPOS>BOND
     1    48    47    2
     2    47    46    1
     3    49    46    1
     4    49    50    1
     5    46    45    1
     6   103   102    2
     7    51    50    1
     8    51    52    1
     9   100   101    1
    10   102   101    1
    11   101   104    1
    12    53    52    1
    13    21    22    1
    14    91    90    2
    15    90    89    1
    16    86    85    2
    17    83    84    1
    18    26    28    1
    19    26    25    1
    20    84    85    1
    21    84    87    1
    22   104   105    1
    23    22    25    1
    24    22    23    1
    25    85    88   am
    26    70    68   ar
    27    70    72   ar
    28    88    89    1
    29    68    67   ar
    30   107   105    1
    31    25    27    1
    32   105   106    1
    33    89    92    1
    34    73    72    1
    35    23    24    2
    36    65    64    2
    37    72    71   ar
    38    63    62    1
    39    63    64    1
    40    63    66    1
    41    64    74   am
    42    40    39    2
    43    67    66    1
    44    67    69   ar
    45    92    93    1
    46    39    38    1
    47    71    69   ar
    48    77    76    2
    49    76    75    1
    50    74    75    1
    51    43    41    1
    52    93    95   ar
    53    93    94   ar
    54    75    78    1
    55    38    41    1
    56    38    37    1
    57    95    97   ar
    58    94    96   ar
    59    41    42    1
    60    78    79    1
    61    97    98   ar
    62    96    98   ar
    63    20    18   am
    64    42    44    1
    65    98    99    1
    66    60    59    1
    67    79    80    1
    68    81    80   ar
    69    61    59    1
    70    80    82   ar
    71    18    19    2
    72    18    17    1
    73    58    59    1
    74    58    55    1
    75    56    55    1
    76    56    57    2
    77    55    54    1
    78    17    16    1
    79    34    33    1
    80    34    35    1
    81     7     5    1
    82    16    13    1
    83    33    30    1
    84     5     6    1
    85     5     2    1
    86     8     9    1
    87     8     3   am
    88    32    31    2
    89     9    10    1
    90    31    30    1
    91    36    35    1
    92    30    29    1
    93    11    10    2
    94     2     3    1
    95     2     1    1
    96    13    14    1
    97    13    12    1
    98     3     4    2
    99    14    15    2
