@<TRIPOS>MOLECULE
tmp/4hx0A00.pdb
 101 91 0 0 0
SMALL
GASTEIGER

@<TRIPOS>ATOM
      1  N          9.1440    2.1150   12.2930 N.3    32  THR32      -0.1203
      2  CA         8.4540    2.0960   11.0130 C.3    32  THR32       0.1994
      3  C          7.0020    1.7420   11.2610 C.2    32  THR32       0.2618
      4  O          6.5280    1.8220   12.3900 O.2    32  THR32      -0.2717
      5  CB         9.1040    1.1130   10.0170 C.3    32  THR32       0.1784
      6  OG1        9.0390   -0.2180   10.5410 O.3    32  THR32      -0.2211
      7  CG2       10.5510    1.4880    9.7740 C.3    32  THR32       0.0376
      8  N          6.2690    1.3800   10.2130 N.am   33  GLY33      -0.1956
      9  CA         4.8840    0.9710   10.3900 C.3    33  GLY33       0.1869
     10  C          4.0350    2.0780   10.9900 C.2    33  GLY33       0.2309
     11  O          4.3620    3.2650   10.8860 O.2    33  GLY33      -0.2863
     12  N          7.0430   -1.4600   15.1260 N.3    50  ASP50      -0.1239
     13  CA         7.9300   -2.0270   14.1210 C.3    50  ASP50       0.1674
     14  C          9.2170   -1.2690   14.1830 C.2    50  ASP50       0.2266
     15  O          9.2200   -0.0530   14.1000 O.2    50  ASP50      -0.2867
     16  CB         7.3430   -1.8480   12.7300 C.3    50  ASP50       0.1410
     17  CG         6.0700   -2.5930   12.5540 C.2    50  ASP50       0.3668
     18  OD1        5.9680   -3.7050   13.0910 O.co2  50  ASP50      -0.2456
     19  OD2        5.1510   -2.0690   11.9050 O.co2  50  ASP50      -0.2456
     20  N         12.7580   -1.0530   12.2520 N.3    52  GLN52      -0.1245
     21  CA        13.5390   -1.4690   11.1330 C.3    52  GLN52       0.1566
     22  C         14.9740   -1.0250   11.3960 C.2    52  GLN52       0.2260
     23  O         15.2300    0.0270   11.9920 O.2    52  GLN52      -0.2867
     24  CB        12.9850   -0.8470    9.8580 C.3    52  GLN52       0.0367
     25  CG        13.7990   -1.1340    8.6200 C.3    52  GLN52       0.0905
     26  CD        13.0690   -0.7150    7.3640 C.2    52  GLN52       0.2608
     27  OE1       11.8930   -0.3640    7.4180 O.2    52  GLN52      -0.2717
     28  NE2       13.7610   -0.7590    6.2260 N.am   52  GLN52      -0.0878
     29  N          9.8020  -10.4340    0.0540 N.3    81  ILE81      -0.1245
     30  CA        10.4710   -9.5750    1.0200 C.3    81  ILE81       0.1561
     31  C         11.2410  -10.4510    1.9830 C.2    81  ILE81       0.2260
     32  O         10.7990  -11.5340    2.3670 O.2    81  ILE81      -0.2867
     33  CB         9.4620   -8.6950    1.8100 C.3    81  ILE81       0.0252
     34  CG1        8.4490   -8.0260    0.8770 C.3    81  ILE81       0.0019
     35  CG2       10.1910   -7.6390    2.6220 C.3    81  ILE81       0.0019
     36  CD1        7.2800   -7.3980    1.6280 C.3    81  ILE81       0.0001
     37  N         14.1670  -10.2410    5.5080 N.3    83  SER83      -0.1217
     38  CA        14.8500   -9.4340    6.4880 C.3    83  SER83       0.1889
     39  C         15.3740  -10.3350    7.5680 C.2    83  SER83       0.2288
     40  O         14.9960  -11.5150    7.6780 O.2    83  SER83      -0.2866
     41  CB        13.8990   -8.3980    7.1110 C.3    83  SER83       0.2089
     42  OG        13.0610   -8.9940    8.0700 O.3    83  SER83      -0.2183
     43  N         13.0290   -5.7780   12.2370 N.3    98  MET98      -0.1245
     44  CA        13.3350   -6.1280   10.8490 C.3    98  MET98       0.1570
     45  C         14.6500   -5.5260   10.4320 C.2    98  MET98       0.2261
     46  O         14.7480   -4.3170   10.2600 O.2    98  MET98      -0.2867
     47  CB        12.2550   -5.6210    9.9060 C.3    98  MET98       0.0387
     48  CG        11.1000   -6.5740    9.7730 C.3    98  MET98       0.0595
     49  SD         9.9810   -6.2720   11.1260 S.3    98  MET98      -0.1393
     50  CE         9.0930   -4.8650   10.4610 C.3    98  MET98       0.0692
     51  N         15.7670   -4.9940    5.4990 N.3   101  ILE101     -0.1245
     52  CA        14.6330   -5.4110    4.7040 C.3   101  ILE101      0.1561
     53  C         14.9890   -5.2250    3.2500 C.2   101  ILE101      0.2260
     54  O         15.4680   -4.1660    2.8360 O.2   101  ILE101     -0.2867
     55  CB        13.3880   -4.5530    5.0070 C.3   101  ILE101      0.0252
     56  CG1       13.0360   -4.6860    6.4900 C.3   101  ILE101      0.0019
     57  CG2       12.2340   -4.9370    4.0830 C.3   101  ILE101      0.0019
     58  CD1       11.8240   -3.8660    6.8790 C.3   101  ILE101      0.0001
     59  N         13.5430   -6.0290   -0.8030 N.3   103  LYS103     -0.1245
     60  CA        12.4150   -6.3730   -1.6690 C.3   103  LYS103      0.1561
     61  C         12.9260   -7.0910   -2.9130 C.2   103  LYS103      0.2260
     62  O         13.9950   -6.7640   -3.4140 O.2   103  LYS103     -0.2867
     63  CB        11.6470   -5.1050   -2.0820 C.3   103  LYS103      0.0271
     64  CG        11.0520   -4.3240   -0.9070 C.3   103  LYS103      0.0035
     65  CD         9.9280   -3.3690   -1.3130 C.3   103  LYS103      0.0206
     66  CE         8.9470   -3.2100   -0.1490 C.3   103  LYS103      0.1093
     67  NZ         7.8980   -2.1440   -0.2570 N.3   103  LYS103     -0.1314
     68  N          7.7780    6.0900    3.9230 N.3   138  GLU138     -0.1245
     69  CA         6.8310    5.1370    4.5140 C.3   138  GLU138      0.1567
     70  C          5.6280    4.9530    3.5930 C.2   138  GLU138      0.2260
     71  O          5.1780    3.8430    3.3420 O.2   138  GLU138     -0.2867
     72  CB         6.3500    5.6600    5.8700 C.3   138  GLU138      0.0388
     73  CG         7.3350    5.4860    7.0100 C.3   138  GLU138      0.1160
     74  CD         7.5960    4.0310    7.2840 C.2   138  GLU138      0.3649
     75  OE1        6.6660    3.2130    7.1300 O.co2 138  GLU138     -0.2457
     76  OE2        8.7270    3.7060    7.6510 O.co2 138  GLU138     -0.2457
     77  N          6.6190    3.0570    0.6230 N.3   141  ALA141     -0.1231
     78  CA         6.8250    1.6610    0.9580 C.3   141  ALA141      0.1694
     79  C          5.5060    0.8820    1.0670 C.2   141  ALA141      0.2592
     80  O          5.4200   -0.2560    0.5960 O.2   141  ALA141     -0.2718
     81  CB         7.6150    1.5410    2.2360 C.3   141  ALA141      0.0304
     82  N          4.5050    1.4800    1.7150 N.am  142  TYR142     -0.1976
     83  CA         3.1910    0.8560    1.8550 C.3   142  TYR142      0.1639
     84  C          2.4980    0.7510    0.5200 C.2   142  TYR142      0.2290
     85  O          1.8860   -0.2710    0.2380 O.2   142  TYR142     -0.2864
     86  CB         2.3120    1.5900    2.8760 C.3   142  TYR142      0.0560
     87  CG         2.5610    1.0610    4.2530 C.ar  142  TYR142     -0.0198
     88  CD1        3.6820    1.4580    4.9650 C.ar  142  TYR142     -0.0009
     89  CD2        1.7130    0.0990    4.8170 C.ar  142  TYR142     -0.0009
     90  CE1        3.9390    0.9520    6.2250 C.ar  142  TYR142      0.0417
     91  CE2        1.9590   -0.4160    6.0780 C.ar  142  TYR142      0.0417
     92  CZ         3.0770    0.0220    6.7690 C.ar  142  TYR142      0.1957
     93  OH         3.3280   -0.4600    8.0180 O.3   142  TYR142     -0.2866
     94  N          4.0280   -2.1760   -1.1300 N.3   145  LEU145     -0.1245
     95  CA         3.4430   -3.3790   -0.5310 C.3   145  LEU145      0.1561
     96  C          2.0520   -3.6140   -1.1020 C.2   145  LEU145      0.2260
     97  O          1.6620   -4.7460   -1.3690 O.2   145  LEU145     -0.2867
     98  CB         3.3340   -3.2280    0.9870 C.3   145  LEU145      0.0270
     99  CG         4.6010   -3.3240    1.8310 C.3   145  LEU145      0.0019
    100  CD1        4.2660   -2.9080    3.2510 C.3   145  LEU145      0.0001
    101  CD2        5.1250   -4.7490    1.8060 C.3   145  LEU145      0.0001
@<TRIPOS>BOND
     1    62    61    2
     2    61    60    1
     3    63    60    1
     4    63    64    1
     5    60    59    1
     6    97    96    2
     7    65    64    1
     8    65    66    1
     9    94    95    1
    10    96    95    1
    11    95    98    1
    12    67    66    1
    13    29    30    1
    14    85    84    2
    15    84    83    1
    16    80    79    2
    17    77    78    1
    18    34    36    1
    19    34    33    1
    20    78    79    1
    21    78    81    1
    22    98    99    1
    23    30    33    1
    24    30    31    1
    25    79    82   am
    26    82    83    1
    27   101    99    1
    28    33    35    1
    29    99   100    1
    30    83    86    1
    31    31    32    2
    32    54    53    2
    33    86    87    1
    34    53    52    1
    35    71    70    2
    36    70    69    1
    37    68    69    1
    38    57    55    1
    39    87    89   ar
    40    87    88   ar
    41    69    72    1
    42    52    55    1
    43    52    51    1
    44    89    91   ar
    45    88    90   ar
    46    55    56    1
    47    37    38    1
    48    72    73    1
    49    91    92   ar
    50    90    92   ar
    51    28    26   am
    52    38    41    1
    53    38    39    1
    54    56    58    1
    55    92    93    1
    56    73    74    1
    57    41    42    1
    58    75    74   ar
    59    74    76   ar
    60    26    27    2
    61    26    25    1
    62    39    40    2
    63    25    24    1
    64    48    47    1
    65    48    49    1
    66     7     5    1
    67    24    21    1
    68    47    44    1
    69     5     6    1
    70     5     2    1
    71     8     9    1
    72     8     3   am
    73    46    45    2
    74     9    10    1
    75    45    44    1
    76    50    49    1
    77    44    43    1
    78    11    10    2
    79     2     3    1
    80     2     1    1
    81    21    22    1
    82    21    20    1
    83     3     4    2
    84    22    23    2
    85    19    17   ar
    86    17    16    1
    87    17    18   ar
    88    16    13    1
    89    15    14    2
    90    13    14    1
    91    13    12    1
