@<TRIPOS>MOLECULE
tmp/4hx2A00.pdb
 73 69 0 0 0
SMALL
GASTEIGER

@<TRIPOS>ATOM
      1  N        -40.6380  -24.9080   -9.1120 N.3    25  ASN25      -0.1225
      2  CA       -40.9320  -26.3390   -8.9410 C.3    25  ASN25       0.1785
      3  C        -39.7360  -27.1740   -8.4520 C.2    25  ASN25       0.2597
      4  O        -39.8670  -28.3940   -8.3180 O.2    25  ASN25      -0.2718
      5  CB       -41.5200  -26.9420  -10.2110 C.3    25  ASN25       0.1169
      6  CG       -42.8810  -26.3740  -10.5150 C.2    25  ASN25       0.2627
      7  OD1      -43.7610  -26.2830   -9.6420 O.2    25  ASN25      -0.2716
      8  ND2      -43.0680  -25.9410  -11.7470 N.am   25  ASN25      -0.0877
      9  N        -38.6190  -26.5260   -8.1180 N.am   26  VAL26      -0.1966
     10  CA       -37.4390  -27.2130   -7.5750 C.3    26  VAL26       0.1727
     11  C        -37.4840  -27.0800   -6.0470 C.2    26  VAL26       0.2616
     12  O        -37.6760  -25.9740   -5.5390 O.2    26  VAL26      -0.2715
     13  CB       -36.0960  -26.6810   -8.1590 C.3    26  VAL26       0.0290
     14  CG1      -34.9010  -27.4720   -7.6290 C.3    26  VAL26       0.0023
     15  CG2      -36.1280  -26.6940   -9.6800 C.3    26  VAL26       0.0023
     16  N        -37.3450  -28.2220   -5.3360 N.am   27  LYS27      -0.1977
     17  CA       -37.3860  -28.3150   -3.8800 C.3    27  LYS27       0.1596
     18  C        -35.9860  -28.2560   -3.2960 C.2    27  LYS27       0.2287
     19  O        -35.1490  -29.1130   -3.5820 O.2    27  LYS27      -0.2864
     20  CB       -38.1060  -29.5920   -3.4450 C.3    27  LYS27       0.0298
     21  CG       -39.5430  -29.6600   -3.9810 C.3    27  LYS27       0.0038
     22  CD       -40.3010  -30.7870   -3.3500 C.3    27  LYS27       0.0206
     23  CE       -41.7210  -30.8410   -3.8440 C.3    27  LYS27       0.1093
     24  NZ       -42.3550  -32.1260   -3.4530 N.3    27  LYS27      -0.1314
     25  N        -34.2640  -36.5260    1.8730 N.3   114  THR114     -0.1218
     26  CA       -34.2700  -37.6330    0.9170 C.3   114  THR114      0.1862
     27  C        -35.6890  -38.2460    0.8050 C.2   114  THR114      0.2287
     28  O        -36.1610  -38.4530   -0.2990 O.2   114  THR114     -0.2866
     29  CB       -33.2310  -38.6850    1.3260 C.3   114  THR114      0.1770
     30  OG1      -31.9740  -38.0460    1.5430 O.3   114  THR114     -0.2211
     31  CG2      -33.0490  -39.7670    0.2800 C.3   114  THR114      0.0375
     32  N        -38.5700  -35.9100   -1.0500 N.3   117  GLY117     -0.1210
     33  CA       -38.3500  -35.5490   -2.4520 C.3   117  GLY117      0.1956
     34  C        -37.6200  -34.2490   -2.7310 C.2   117  GLY117      0.2612
     35  O        -37.9340  -33.5690   -3.7120 O.2   117  GLY117     -0.2717
     36  N        -36.6440  -33.8940   -1.8780 N.am  118  MET118     -0.1965
     37  CA       -35.8880  -32.6590   -2.1200 C.3   118  MET118      0.1736
     38  C        -34.9520  -32.8490   -3.3180 C.2   118  MET118      0.2616
     39  O        -34.3990  -33.9300   -3.5150 O.2   118  MET118     -0.2715
     40  CB       -35.0960  -32.1740   -0.8780 C.3   118  MET118      0.0427
     41  CG       -35.9590  -31.8400    0.3310 C.3   118  MET118      0.0599
     42  SD       -37.0600  -30.4240    0.1840 S.3   118  MET118     -0.1393
     43  CE       -38.6540  -31.2700    0.0900 C.3   118  MET118      0.0692
     44  N        -34.7970  -31.8160   -4.1160 N.am  119  ASP119     -0.1971
     45  CA       -33.9010  -31.8650   -5.2730 C.3   119  ASP119      0.1709
     46  C        -32.5060  -31.4540   -4.9020 C.2   119  ASP119      0.2293
     47  O        -31.5540  -31.8950   -5.5350 O.2   119  ASP119     -0.2864
     48  CB       -34.4200  -30.9420   -6.3640 C.3   119  ASP119      0.1436
     49  CG       -35.7770  -31.3880   -6.8520 C.2   119  ASP119      0.3671
     50  OD1      -36.7500  -30.6020   -6.7210 O.co2 119  ASP119     -0.2456
     51  OD2      -35.8780  -32.5260   -7.3320 O.co2 119  ASP119     -0.2456
     52  N        -29.9070  -41.3460   -4.5370 N.3   144  ARG144     -0.1231
     53  CA       -31.3480  -41.2140   -4.7730 C.3   144  ARG144      0.1694
     54  C        -31.6870  -39.9120   -5.5450 C.2   144  ARG144      0.2593
     55  O        -32.8620  -39.5690   -5.6730 O.2   144  ARG144     -0.2718
     56  CB       -32.1310  -41.3270   -3.4510 C.3   144  ARG144      0.0321
     57  CG       -32.0180  -42.7250   -2.8470 C.3   144  ARG144      0.0489
     58  CD       -33.0490  -43.0180   -1.7860 C.3   144  ARG144      0.2205
     59  NE       -32.8990  -44.3750   -1.2440 N.pl3 144  ARG144     -0.0865
     60  CZ       -33.4160  -45.4680   -1.7970 C.cat 144  ARG144      0.5346
     61  NH1      -34.1310  -45.3830   -2.9140 N.pl3 144  ARG144      0.1354
     62  NH2      -33.2190  -46.6550   -1.2410 N.pl3 144  ARG144      0.1354
     63  N        -30.6670  -39.2610   -6.1170 N.am  145  GLY145     -0.1942
     64  CA       -30.8190  -38.0900   -6.9760 C.3   145  GLY145      0.2014
     65  C        -30.8720  -36.7090   -6.3550 C.2   145  GLY145      0.2638
     66  O        -31.2720  -35.7490   -7.0280 O.2   145  GLY145     -0.2714
     67  N        -30.4380  -36.5640   -5.0930 N.am  146  VAL146     -0.1977
     68  CA       -30.3910  -35.2340   -4.4740 C.3   146  VAL146      0.1596
     69  C        -29.0120  -34.5930   -4.7420 C.2   146  VAL146      0.2287
     70  O        -27.9910  -35.2650   -4.5860 O.2   146  VAL146     -0.2864
     71  CB       -30.7040  -35.2980   -2.9560 C.3   146  VAL146      0.0276
     72  CG1      -30.7620  -33.9010   -2.3410 C.3   146  VAL146      0.0022
     73  CG2      -32.0050  -36.0660   -2.6850 C.3   146  VAL146      0.0022
@<TRIPOS>BOND
     1     8     6   am
     2     6     5    1
     3     6     7    2
     4     5     2    1
     5    15    13    1
     6     1     2    1
     7     2     3    1
     8     3     4    2
     9     3     9   am
    10    13    14    1
    11    13    10    1
    12     9    10    1
    13    10    11    1
    14    51    49   ar
    15    66    65    2
    16    64    65    1
    17    64    63    1
    18    49    50   ar
    19    49    48    1
    20    48    45    1
    21    65    67   am
    22    63    54   am
    23    11    12    2
    24    11    16   am
    25    55    54    2
    26    54    53    1
    27    47    46    2
    28    16    17    1
    29    45    46    1
    30    45    44    1
    31    67    68    1
    32    53    52    1
    33    53    56    1
    34    69    70    2
    35    69    68    1
    36    68    71    1
    37    44    38   am
    38    21    20    1
    39    21    22    1
    40    17    20    1
    41    17    18    1
    42    23    24    1
    43    23    22    1
    44    35    34    2
    45    19    18    2
    46    39    38    2
    47    56    57    1
    48    38    37    1
    49    71    73    1
    50    71    72    1
    51    61    60    1
    52    57    58    1
    53    34    33    1
    54    34    36   am
    55    33    32    1
    56    37    36    1
    57    37    40    1
    58    60    59    2
    59    60    62    1
    60    58    59    1
    61    40    41    1
    62    28    27    2
    63    43    42    1
    64    42    41    1
    65    31    29    1
    66    27    26    1
    67    26    29    1
    68    26    25    1
    69    29    30    1
