@<TRIPOS>MOLECULE
tmp/4hx5A00.pdb
 204 193 0 0 0
SMALL
GASTEIGER

@<TRIPOS>ATOM
      1  N         31.9950  -10.9800   22.4760 N.3    97  ILE97      -0.1231
      2  CA        31.5790  -11.3240   21.1130 C.3    97  ILE97       0.1692
      3  C         32.1540  -12.6820   20.7630 C.2    97  ILE97       0.2593
      4  O         33.1910  -13.0700   21.3110 O.2    97  ILE97      -0.2718
      5  CB        31.9790  -10.2750   20.0330 C.3    97  ILE97       0.0266
      6  CG1       33.4890   -9.9420   20.0860 C.3    97  ILE97       0.0019
      7  CG2       31.0570   -9.0270   20.0550 C.3    97  ILE97       0.0020
      8  CD1       34.0470   -9.2540   18.8060 C.3    97  ILE97       0.0001
      9  N         31.5330  -13.3720   19.8070 N.am   98  THR98      -0.1939
     10  CA        32.0330  -14.6380   19.2920 C.3    98  THR98       0.2028
     11  C         33.2240  -14.3350   18.3690 C.2    98  THR98       0.2642
     12  O         33.3030  -13.2380   17.7990 O.2    98  THR98      -0.2714
     13  CB        30.9110  -15.4190   18.5770 C.3    98  THR98       0.1808
     14  OG1       31.3140  -16.7810   18.5080 O.3    98  THR98      -0.2208
     15  CG2       30.5960  -14.8900   17.1550 C.3    98  THR98       0.0379
     16  N         34.1320  -15.3120   18.2140 N.am   99  ASN99      -0.1957
     17  CA        35.3000  -15.1910   17.3420 C.3    99  ASN99       0.1819
     18  C         34.8700  -14.8170   15.9170 C.2    99  ASN99       0.2621
     19  O         33.9430  -15.4190   15.3730 O.2    99  ASN99      -0.2715
     20  CB        36.1710  -16.4620   17.4170 C.3    99  ASN99       0.1195
     21  CG        36.8890  -16.6330   18.7610 C.2    99  ASN99       0.2630
     22  OD1       37.0400  -15.6960   19.5630 O.2    99  ASN99      -0.2716
     23  ND2       37.3350  -17.8410   19.0540 N.am   99  ASN99      -0.0877
     24  N         35.4740  -13.7410   15.3870 N.am  100  THR100     -0.1951
     25  CA        35.1540  -13.0940   14.1080 C.3   100  THR100      0.1897
     26  C         36.4190  -12.7960   13.2770 C.2   100  THR100      0.2313
     27  O         37.4200  -12.3450   13.8280 O.2   100  THR100     -0.2863
     28  CB        34.4340  -11.7500   14.4280 C.3   100  THR100      0.1794
     29  OG1       33.3240  -12.0220   15.2700 O.3   100  THR100     -0.2208
     30  CG2       33.9690  -10.9980   13.1850 C.3   100  THR100      0.0378
     31  N         37.6770  -11.0600    9.1310 N.3   102  LEU102     -0.1245
     32  CA        37.1430  -10.2860    8.0160 C.3   102  LEU102      0.1561
     33  C         37.0860  -11.2800    6.8640 C.2   102  LEU102      0.2260
     34  O         38.1120  -11.8320    6.4750 O.2   102  LEU102     -0.2867
     35  CB        37.9800   -9.0410    7.6210 C.3   102  LEU102      0.0270
     36  CG        38.3870   -8.0040    8.6780 C.3   102  LEU102      0.0019
     37  CD1       38.6930   -6.6870    8.0300 C.3   102  LEU102      0.0001
     38  CD2       37.3320   -7.7570    9.7070 C.3   102  LEU102      0.0001
     39  N         29.4470   -1.0750   17.8490 N.3   146  SER146     -0.1202
     40  CA        30.4850   -0.7330   16.8990 C.3   146  SER146      0.2020
     41  C         29.9720    0.2400   15.8760 C.2   146  SER146      0.2619
     42  O         28.7610    0.3250   15.6940 O.2   146  SER146     -0.2717
     43  CB        30.8940   -2.0330   16.1910 C.3   146  SER146      0.2103
     44  OG        31.6290   -1.8220   14.9970 O.3   146  SER146     -0.2182
     45  N         30.9020    0.8930   15.1180 N.am  147  LEU147     -0.1965
     46  CA        30.5780    1.7270   13.9620 C.3   147  LEU147      0.1728
     47  C         29.8500    0.8130   12.9430 C.2   147  LEU147      0.2616
     48  O         28.9260    1.2510   12.2850 O.2   147  LEU147     -0.2715
     49  CB        31.8730    2.2490   13.3120 C.3   147  LEU147      0.0311
     50  CG        32.4200    3.6180   13.7370 C.3   147  LEU147      0.0022
     51  CD1       33.6060    3.9820   12.8660 C.3   147  LEU147      0.0001
     52  CD2       31.3660    4.7270   13.5710 C.3   147  LEU147      0.0001
     53  N         30.2650   -0.4750   12.8620 N.am  148  ALA148     -0.1977
     54  CA        29.6560   -1.5140   12.0240 C.3   148  ALA148      0.1597
     55  C         28.2420   -1.9140   12.5660 C.2   148  ALA148      0.2287
     56  O         27.5220   -2.6590   11.9200 O.2   148  ALA148     -0.2864
     57  CB        30.5870   -2.7210   11.9220 C.3   148  ALA148      0.0319
     58  N         29.5690   -2.1440    6.4610 N.3   153  TYR153     -0.1228
     59  CA        30.9340   -2.4090    6.0230 C.3   153  TYR153      0.1721
     60  C         31.0100   -3.7840    5.3880 C.2   153  TYR153      0.2437
     61  O         30.5010   -4.7490    5.9570 O.2   153  TYR153     -0.2733
     62  CB        31.9530   -2.3560    7.1820 C.3   153  TYR153      0.0547
     63  CG        32.1360   -1.0030    7.8320 C.ar  153  TYR153     -0.0200
     64  CD1       31.9030   -0.8260    9.1900 C.ar  153  TYR153     -0.0009
     65  CD2       32.5700    0.0990    7.0930 C.ar  153  TYR153     -0.0009
     66  CE1       32.1310    0.3990    9.8110 C.ar  153  TYR153      0.0417
     67  CE2       32.7760    1.3390    7.6990 C.ar  153  TYR153      0.0417
     68  CZ        32.5760    1.4760    9.0640 C.ar  153  TYR153      0.1957
     69  OH        32.7610    2.6920    9.6770 O.3   153  TYR153     -0.2866
     70  N         31.7270   -3.9270    4.2630 N.am  154  PRO154     -0.2729
     71  CA        31.9170   -5.2720    3.7100 C.3   154  PRO154      0.1401
     72  C         32.7870   -6.1120    4.6550 C.2   154  PRO154      0.2269
     73  O         33.5650   -5.5450    5.4360 O.2   154  PRO154     -0.2865
     74  CB        32.6790   -5.0110    2.4120 C.3   154  PRO154      0.0296
     75  CG        33.4140   -3.7170    2.6550 C.3   154  PRO154      0.0237
     76  CD        32.4600   -2.9000    3.4840 C.3   154  PRO154      0.0939
     77  N         32.1320   -8.0720    7.2880 N.3   156  VAL156     -0.1245
     78  CA        31.6750   -8.3030    8.6800 C.3   156  VAL156      0.1561
     79  C         30.1400   -8.3490    8.7070 C.2   156  VAL156      0.2260
     80  O         29.5400   -7.8380    9.6280 O.2   156  VAL156     -0.2867
     81  CB        32.2550   -7.2610    9.6850 C.3   156  VAL156      0.0252
     82  CG1       33.7370   -7.5180    9.9460 C.3   156  VAL156      0.0019
     83  CG2       32.0140   -5.8180    9.2080 C.3   156  VAL156      0.0019
     84  N         28.5790  -10.1400   11.8360 N.3   159  TYR159     -0.1241
     85  CA        28.9240   -9.3070   13.0010 C.3   159  TYR159      0.1605
     86  C         28.0770   -8.0340   12.9790 C.2   159  TYR159      0.2264
     87  O         27.5310   -7.6320   14.0120 O.2   159  TYR159     -0.2867
     88  CB        30.4340   -8.9930   12.9520 C.3   159  TYR159      0.0534
     89  CG        30.9130   -7.9370   13.9240 C.ar  159  TYR159     -0.0201
     90  CD1       31.3380   -8.2820   15.2090 C.ar  159  TYR159     -0.0009
     91  CD2       31.0270   -6.6020   13.5340 C.ar  159  TYR159     -0.0009
     92  CE1       31.8130   -7.3190   16.0940 C.ar  159  TYR159      0.0417
     93  CE2       31.5340   -5.6380   14.4010 C.ar  159  TYR159      0.0417
     94  CZ        31.9290   -6.0000   15.6770 C.ar  159  TYR159      0.1957
     95  OH        32.4520   -5.0480   16.5140 O.3   159  TYR159     -0.2866
     96  N         31.8850    2.2080   18.7530 N.3   191  LEU191     -0.1231
     97  CA        33.3360    2.2500   18.6490 C.3   191  LEU191      0.1693
     98  C         33.8840    2.0780   17.2570 C.2   191  LEU191      0.2593
     99  O         33.5130    1.1380   16.5420 O.2   191  LEU191     -0.2718
    100  CB        34.0140    1.1680   19.5390 C.3   191  LEU191      0.0284
    101  CG        33.4890    0.9180   20.9540 C.3   191  LEU191      0.0019
    102  CD1       34.2740   -0.2150   21.6060 C.3   191  LEU191      0.0001
    103  CD2       33.5390    2.1880   21.8220 C.3   191  LEU191      0.0001
    104  N         34.8640    2.9270   16.9360 N.am  192  GLY192     -0.1942
    105  CA        35.6370    2.8000   15.7180 C.3   192  GLY192      0.2014
    106  C         36.7340    1.7870   15.9940 C.2   192  GLY192      0.2638
    107  O         36.7230    1.1580   17.0520 O.2   192  GLY192     -0.2714
    108  N         37.6680    1.5840   15.0580 N.am  193  LEU193     -0.1977
    109  CA        38.7340    0.6070   15.2380 C.3   193  LEU193      0.1596
    110  C         39.5830    0.8910   16.5110 C.2   193  LEU193      0.2287
    111  O         39.9960    2.0310   16.7450 O.2   193  LEU193     -0.2864
    112  CB        39.6180    0.5440   13.9820 C.3   193  LEU193      0.0297
    113  CG        40.6070   -0.6020   13.9350 C.3   193  LEU193      0.0022
    114  CD1       39.8770   -1.9800   13.8410 C.3   193  LEU193      0.0001
    115  CD2       41.5860   -0.4130   12.7830 C.3   193  LEU193      0.0001
    116  N         43.0450   -3.4100   20.0190 N.3   196  THR196     -0.1218
    117  CA        43.1040   -4.6750   20.7660 C.3   196  THR196      0.1862
    118  C         43.9040   -5.6560   19.9250 C.2   196  THR196      0.2287
    119  O         43.9350   -5.5190   18.7050 O.2   196  THR196     -0.2866
    120  CB        41.7140   -5.2450   21.1110 C.3   196  THR196      0.1770
    121  OG1       41.0730   -5.7110   19.9190 O.3   196  THR196     -0.2211
    122  CG2       40.8450   -4.2670   21.9010 C.3   196  THR196      0.0375
    123  N         43.1860   -8.6840   19.2140 N.3   198  THR198     -0.1203
    124  CA        42.2660   -9.3450   18.2640 C.3   198  THR198      0.1994
    125  C         41.9880   -8.4640   17.0240 C.2   198  THR198      0.2617
    126  O         42.0510   -8.9660   15.9140 O.2   198  THR198     -0.2717
    127  CB        40.9670   -9.7780   18.9420 C.3   198  THR198      0.1784
    128  OG1       41.2950  -10.5900   20.0460 O.3   198  THR198     -0.2211
    129  CG2       40.0650  -10.5860   18.0190 C.3   198  THR198      0.0376
    130  N         41.6840   -7.1760   17.2140 N.am  199  ALA199     -0.1979
    131  CA        41.4030   -6.2720   16.0880 C.3   199  ALA199      0.1597
    132  C         42.6390   -6.1100   15.1760 C.2   199  ALA199      0.2287
    133  O         42.5100   -6.2500   13.9650 O.2   199  ALA199     -0.2864
    134  CB        40.9540   -4.9130   16.6020 C.3   199  ALA199      0.0319
    135  N         43.0920   -9.2980   13.1060 N.3   202  ALA202     -0.1231
    136  CA        42.0470   -9.4440   12.0910 C.3   202  ALA202      0.1694
    137  C         42.0700   -8.4230   10.9360 C.2   202  ALA202      0.2591
    138  O         41.6410   -8.7630    9.8310 O.2   202  ALA202     -0.2718
    139  CB        40.6730   -9.4720   12.7510 C.3   202  ALA202      0.0304
    140  N         42.5390   -7.1950   11.1820 N.am  203  VAL203     -0.1980
    141  CA        42.5050   -6.1250   10.1730 C.3   203  VAL203      0.1595
    142  C         43.7910   -5.8710    9.3970 C.2   203  VAL203      0.2287
    143  O         43.7140   -5.5440    8.2120 O.2   203  VAL203     -0.2864
    144  CB        41.7830   -4.8250   10.6220 C.3   203  VAL203      0.0276
    145  CG1       40.4110   -5.1350   11.2120 C.3   203  VAL203      0.0022
    146  CG2       42.6280   -4.0030   11.5910 C.3   203  VAL203      0.0022
    147  N         43.1620   -3.9470    5.6440 N.3   207  VAL207     -0.1245
    148  CA        42.7220   -2.5650    5.7750 C.3   207  VAL207      0.1561
    149  C         43.7920   -1.6260    6.3600 C.2   207  VAL207      0.2260
    150  O         44.6400   -2.0580    7.1480 O.2   207  VAL207     -0.2867
    151  CB        41.3510   -2.5290    6.5040 C.3   207  VAL207      0.0252
    152  CG1       41.4680   -2.1270    7.9710 C.3   207  VAL207      0.0019
    153  CG2       40.3520   -1.6660    5.7550 C.3   207  VAL207      0.0019
    154  N         44.0390    1.9110    8.3860 N.3   209  MET209     -0.1245
    155  CA        43.4520    2.9770    9.2050 C.3   209  MET209      0.1570
    156  C         43.9750    2.9700   10.6500 C.2   209  MET209      0.2261
    157  O         44.4170    1.9310   11.1450 O.2   209  MET209     -0.2867
    158  CB        41.9170    2.9430    9.1550 C.3   209  MET209      0.0387
    159  CG        41.3210    1.6530    9.6690 C.3   209  MET209      0.0595
    160  SD        39.7180    1.8960   10.4680 S.3   209  MET209     -0.1393
    161  CE        40.0830    3.3850   11.4930 C.3   209  MET209      0.0692
    162  N         36.2810    6.9760   18.6290 N.3   235  ASP235     -0.1239
    163  CA        37.0490    6.7390   17.4060 C.3   235  ASP235      0.1674
    164  C         38.3360    7.5660   17.4320 C.2   235  ASP235      0.2266
    165  O         38.4040    8.5290   18.1810 O.2   235  ASP235     -0.2867
    166  CB        36.1970    7.0910   16.1590 C.3   235  ASP235      0.1410
    167  CG        36.8320    6.6750   14.8460 C.2   235  ASP235      0.3668
    168  OD1       37.3680    7.5530   14.1400 O.co2 235  ASP235     -0.2456
    169  OD2       36.8740    5.4730   14.5710 O.co2 235  ASP235     -0.2456
    170  N         39.4080    9.5300   15.1160 N.3   237  SER237     -0.1217
    171  CA        39.0240   10.7950   14.5150 C.3   237  SER237      0.1889
    172  C         37.7760   11.4360   15.1500 C.2   237  SER237      0.2288
    173  O         36.7280   10.7930   15.2460 O.2   237  SER237     -0.2866
    174  CB        38.8040   10.5990   13.0160 C.3   237  SER237      0.2089
    175  OG        38.1850   11.7340   12.4320 O.3   237  SER237     -0.2183
    176  N         36.0670   13.7170   13.6770 N.3   239  TRP239     -0.1227
    177  CA        35.1860   13.8630   12.5250 C.3   239  TRP239      0.1737
    178  C         34.1810   12.6960   12.4570 C.2   239  TRP239      0.2596
    179  O         33.0000   12.9240   12.1630 O.2   239  TRP239     -0.2718
    180  CB        36.0170   13.9820   11.2390 C.3   239  TRP239      0.0564
    181  CG        37.1440   14.9710   11.3670 C.ar  239  TRP239      0.0003
    182  CD1       38.4600   14.6890   11.5980 C.ar  239  TRP239      0.0946
    183  CD2       37.0280   16.4020   11.4080 C.ar  239  TRP239      0.0152
    184  NE1       39.1790   15.8570   11.7350 N.ar  239  TRP239     -0.2442
    185  CE2       38.3230   16.9230   11.6260 C.ar  239  TRP239      0.0810
    186  CE3       35.9560   17.2960   11.2570 C.ar  239  TRP239      0.0012
    187  CZ2       38.5810   18.2990   11.6720 C.ar  239  TRP239      0.0191
    188  CZ3       36.2080   18.6600   11.3300 C.ar  239  TRP239      0.0001
    189  CH2       37.5080   19.1490   11.5230 C.ar  239  TRP239      0.0015
    190  N         34.6410   11.4620   12.7990 N.am  240  THR240     -0.1953
    191  CA        33.8000   10.2660   12.8670 C.3   240  THR240      0.1897
    192  C         32.7010   10.4730   13.9030 C.2   240  THR240      0.2313
    193  O         31.5450   10.2050   13.5970 O.2   240  THR240     -0.2863
    194  CB        34.6220    9.0370   13.2640 C.3   240  THR240      0.1794
    195  OG1       35.8220    8.9910   12.5010 O.3   240  THR240     -0.2208
    196  CG2       33.8360    7.7300   13.1370 C.3   240  THR240      0.0378
    197  N         29.8470   12.5240   12.6710 N.3   243  LEU243     -0.1245
    198  CA        29.0710   11.8170   11.6560 C.3   243  LEU243      0.1561
    199  C         28.1930   10.6760   12.1980 C.2   243  LEU243      0.2260
    200  O         27.2450   10.2850   11.5170 O.2   243  LEU243     -0.2867
    201  CB        29.9890   11.3000   10.5390 C.3   243  LEU243      0.0270
    202  CG        30.7290   12.3440    9.7000 C.3   243  LEU243      0.0019
    203  CD1       31.8670   11.7000    8.9510 C.3   243  LEU243      0.0001
    204  CD2       29.7860   13.0830    8.7310 C.3   243  LEU243      0.0001
@<TRIPOS>BOND
     1    74    75    1
     2    74    71    1
     3    75    76    1
     4    76    70    1
     5    71    70    1
     6    71    72    1
     7    70    60   am
     8    72    73    2
     9    60    61    2
    10    60    59    1
    11   147   148    1
    12   153   151    1
    13   148   149    1
    14   148   151    1
    15    59    58    1
    16    59    62    1
    17   149   150    2
    18    34    33    2
    19   151   152    1
    20    33    32    1
    21    65    67   ar
    22    65    63   ar
    23    62    63    1
    24    77    78    1
    25    35    32    1
    26    35    36    1
    27    67    68   ar
    28    63    64   ar
    29    32    31    1
    30    37    36    1
    31   143   142    2
    32   154   155    1
    33    36    38    1
    34    78    79    1
    35    78    81    1
    36    79    80    2
    37   204   202    1
    38   203   202    1
    39    68    69    1
    40    68    66   ar
    41   158   155    1
    42   158   159    1
    43    64    66   ar
    44   155   156    1
    45    83    81    1
    46   142   141    1
    47   159   160    1
    48    81    82    1
    49   202   201    1
    50   138   137    2
    51   141   144    1
    52   141   140    1
    53   160   161    1
    54   201   198    1
    55   144   145    1
    56   144   146    1
    57   156   157    2
    58   137   140   am
    59   137   136    1
    60   180   181    1
    61   180   177    1
    62   186   188   ar
    63   186   183   ar
    64   188   189   ar
    65   181   183   ar
    66   181   182   ar
    67   183   185   ar
    68   200   199    2
    69   189   187   ar
    70   182   184   ar
    71   185   187   ar
    72   185   184   ar
    73   198   199    1
    74   198   197    1
    75    84    85    1
    76    56    55    2
    77    57    54    1
    78    54    55    1
    79    54    53    1
    80   136   139    1
    81   136   135    1
    82   179   178    2
    83    48    47    2
    84   175   174    1
    85   178   177    1
    86   178   190   am
    87   195   194    1
    88   177   176    1
    89   115   113    1
    90   190   191    1
    91    53    47   am
    92    51    50    1
    93   191   194    1
    94   191   192    1
    95    47    46    1
    96    88    85    1
    97    88    89    1
    98    86    85    1
    99    86    87    2
   100   174   171    1
   101   196   194    1
   102    30    28    1
   103    26    27    2
   104    26    25    1
   105    49    50    1
   106    49    46    1
   107    91    89   ar
   108    91    93   ar
   109    52    50    1
   110   193   192    2
   111   114   113    1
   112    89    90   ar
   113   113   112    1
   114    46    45    1
   115   133   132    2
   116   112   109    1
   117    25    28    1
   118    25    24    1
   119   168   167   ar
   120    93    94   ar
   121    28    29    1
   122   171   170    1
   123   171   172    1
   124   169   167   ar
   125   167   166    1
   126    44    43    1
   127   108   109    1
   128   108   106   am
   129    45    41   am
   130   172   173    2
   131   132   131    1
   132    90    92   ar
   133   109   110    1
   134    19    18    2
   135    24    18   am
   136    94    92   ar
   137    94    95    1
   138    42    41    2
   139   105   106    1
   140   105   104    1
   141    41    40    1
   142   126   125    2
   143    18    17    1
   144   106   107    2
   145   131   134    1
   146   131   130    1
   147   166   163    1
   148    43    40    1
   149   110   111    2
   150    99    98    2
   151    40    39    1
   152   104    98   am
   153   125   130   am
   154   125   124    1
   155    15    13    1
   156    98    97    1
   157    17    20    1
   158    17    16    1
   159   163   164    1
   160   163   162    1
   161    20    21    1
   162   164   165    2
   163    12    11    2
   164   129   127    1
   165    16    11   am
   166   124   127    1
   167   124   123    1
   168    11    10    1
   169    14    13    1
   170    13    10    1
   171    97    96    1
   172    97   100    1
   173   119   118    2
   174    21    23   am
   175    21    22    2
   176     8     6    1
   177   127   128    1
   178    10     9    1
   179   100   101    1
   180     9     3   am
   181   121   120    1
   182   118   117    1
   183   116   117    1
   184     5     7    1
   185     5     6    1
   186     5     2    1
   187     3     2    1
   188     3     4    2
   189   117   120    1
   190   101   102    1
   191   101   103    1
   192   120   122    1
   193     2     1    1
