@<TRIPOS>MOLECULE
tmp/4hxcA00.pdb
 137 131 0 0 0
SMALL
GASTEIGER

@<TRIPOS>ATOM
      1  N         32.0430    9.4870  100.2620 N.3    68  GLU68      -0.1245
      2  CA        31.8000    8.0500  100.4840 C.3    68  GLU68       0.1567
      3  C         31.0020    7.7620  101.7680 C.2    68  GLU68       0.2260
      4  O         30.4600    6.6670  101.9060 O.2    68  GLU68      -0.2867
      5  CB        33.1290    7.3100  100.5790 C.3    68  GLU68       0.0388
      6  CG        33.6590    6.8030   99.2630 C.3    68  GLU68       0.1160
      7  CD        34.8320    5.8680   99.4400 C.2    68  GLU68       0.3649
      8  OE1       34.8250    5.0760  100.4090 O.co2  68  GLU68      -0.2457
      9  OE2       35.7620    5.9280   98.6060 O.co2  68  GLU68      -0.2457
     10  N         30.7280   14.4720   92.1900 N.3    99  ASN99      -0.1240
     11  CA        31.1240   13.1060   91.9330 C.3    99  ASN99       0.1653
     12  C         29.9150   12.1790   92.0860 C.2    99  ASN99       0.2266
     13  O         29.1680   12.2710   93.0650 O.2    99  ASN99      -0.2867
     14  CB        32.2460   12.7230   92.9360 C.3    99  ASN99       0.1155
     15  CG        32.9100   11.3670   92.7900 C.2    99  ASN99       0.2627
     16  OD1       32.3030   10.3560   92.4490 O.2    99  ASN99      -0.2716
     17  ND2       34.1640   11.2900   93.1930 N.am   99  ASN99      -0.0877
     18  N         27.0270    2.1080   88.2250 N.3   103  PHE103     -0.1241
     19  CA        27.4370    0.7370   88.5160 C.3   103  PHE103      0.1605
     20  C         26.7170   -0.2160   87.5710 C.2   103  PHE103      0.2264
     21  O         25.6110    0.0930   87.1090 O.2   103  PHE103     -0.2867
     22  CB        27.1560    0.3770   89.9870 C.3   103  PHE103      0.0534
     23  CG        27.9800    1.1800   90.9670 C.ar  103  PHE103     -0.0203
     24  CD1       29.3380    0.9160   91.1430 C.ar  103  PHE103     -0.0042
     25  CD2       27.4000    2.2070   91.7150 C.ar  103  PHE103     -0.0042
     26  CE1       30.1070    1.6780   92.0360 C.ar  103  PHE103     -0.0003
     27  CE2       28.1700    2.9610   92.6220 C.ar  103  PHE103     -0.0003
     28  CZ        29.5110    2.6840   92.7830 C.ar  103  PHE103     -0.0000
     29  N         30.3510   -1.3300   95.2510 N.3   124  TYR124     -0.1241
     30  CA        31.5840   -1.2440   94.4720 C.3   124  TYR124      0.1605
     31  C         32.5300   -2.4400   94.6770 C.2   124  TYR124      0.2264
     32  O         33.4800   -2.5710   93.9010 O.2   124  TYR124     -0.2867
     33  CB        32.3150    0.0920   94.7350 C.3   124  TYR124      0.0534
     34  CG        32.6910    0.3550   96.1830 C.ar  124  TYR124     -0.0201
     35  CD1       33.7210   -0.3560   96.7970 C.ar  124  TYR124     -0.0009
     36  CD2       32.0870    1.3810   96.9040 C.ar  124  TYR124     -0.0009
     37  CE1       34.0740   -0.1190   98.1230 C.ar  124  TYR124      0.0417
     38  CE2       32.4490    1.6490   98.2260 C.ar  124  TYR124      0.0417
     39  CZ        33.4410    0.8910   98.8330 C.ar  124  TYR124      0.1957
     40  OH        33.7880    1.1220  100.1410 O.3   124  TYR124     -0.2866
     41  N         30.7160   -4.4860   91.7030 N.3   127  ALA127     -0.1231
     42  CA        30.3470   -3.7870   90.4750 C.3   127  ALA127      0.1679
     43  C         31.3910   -2.8540   89.8730 C.2   127  ALA127      0.2434
     44  O         31.7200   -1.8510   90.4960 O.2   127  ALA127     -0.2733
     45  CB        29.0820   -2.9720   90.7140 C.3   127  ALA127      0.0304
     46  N         31.7600   -3.0600   88.5860 N.am  128  PRO128     -0.2718
     47  CA        32.5710   -2.0610   87.8740 C.3   128  PRO128      0.1535
     48  C         31.8390   -0.7170   87.8160 C.2   128  PRO128      0.2598
     49  O         30.6000   -0.6530   87.7880 O.2   128  PRO128     -0.2715
     50  CB        32.7220   -2.6670   86.4620 C.3   128  PRO128      0.0310
     51  CG        32.5200   -4.1300   86.6650 C.3   128  PRO128      0.0237
     52  CD        31.4260   -4.1850   87.6870 C.3   128  PRO128      0.0939
     53  N         32.6100    0.3560   87.8030 N.am  129  GLU129     -0.1978
     54  CA        32.0460    1.6860   87.8460 C.3   129  GLU129      0.1602
     55  C         32.4810    2.5370   86.6880 C.2   129  GLU129      0.2287
     56  O         33.6760    2.6390   86.3870 O.2   129  GLU129     -0.2864
     57  CB        32.4410    2.3700   89.1640 C.3   129  GLU129      0.0415
     58  CG        31.8360    3.7540   89.3870 C.3   129  GLU129      0.1163
     59  CD        32.4890    4.5630   90.4940 C.2   129  GLU129      0.3649
     60  OE1       33.1920    3.9720   91.3420 O.co2 129  GLU129     -0.2457
     61  OE2       32.2670    5.7910   90.5320 O.co2 129  GLU129     -0.2457
     62  N         32.7880    6.2290   85.8710 N.3   131  GLN131     -0.1245
     63  CA        32.9520    7.4490   86.6580 C.3   131  GLN131      0.1566
     64  C         32.0790    8.6320   86.1260 C.2   131  GLN131      0.2260
     65  O         32.0150    8.8570   84.9280 O.2   131  GLN131     -0.2867
     66  CB        34.4530    7.8450   86.7180 C.3   131  GLN131      0.0367
     67  CG        34.7540    9.1700   87.4490 C.3   131  GLN131      0.0905
     68  CD        34.6220    9.1070   88.9580 C.2   131  GLN131      0.2608
     69  OE1       33.6260    8.6180   89.4980 O.2   131  GLN131     -0.2717
     70  NE2       35.6150    9.6520   89.6810 N.am  131  GLN131     -0.0878
     71  N         39.4920   14.2160   92.6370 N.3   140  ASP140     -0.1239
     72  CA        39.6750   12.8680   92.1070 C.3   140  ASP140      0.1674
     73  C         40.1840   12.8940   90.6570 C.2   140  ASP140      0.2266
     74  O         40.8800   11.9580   90.2380 O.2   140  ASP140     -0.2867
     75  CB        38.3710   12.0810   92.1880 C.3   140  ASP140      0.1410
     76  CG        38.5110   10.7030   92.7990 C.2   140  ASP140      0.3668
     77  OD1       39.5110   10.4670   93.5360 O.co2 140  ASP140     -0.2456
     78  OD2       37.6250    9.8650   92.5580 O.co2 140  ASP140     -0.2456
     79  N         36.5470    3.3340   86.6850 N.3   155  TYR155     -0.1241
     80  CA        37.0890    3.9730   87.8780 C.3   155  TYR155      0.1605
     81  C         38.3660    3.3190   88.4300 C.2   155  TYR155      0.2264
     82  O         38.3450    2.1630   88.8410 O.2   155  TYR155     -0.2867
     83  CB        36.0400    4.1150   88.9970 C.3   155  TYR155      0.0534
     84  CG        36.5970    4.9120   90.1560 C.ar  155  TYR155     -0.0201
     85  CD1       36.6500    6.3020   90.1080 C.ar  155  TYR155     -0.0009
     86  CD2       37.2170    4.2740   91.2310 C.ar  155  TYR155     -0.0009
     87  CE1       37.2210    7.0390   91.1440 C.ar  155  TYR155      0.0417
     88  CE2       37.8220    5.0000   92.2560 C.ar  155  TYR155      0.0417
     89  CZ        37.7940    6.3810   92.2230 C.ar  155  TYR155      0.1957
     90  OH        38.3780    7.0840   93.2420 O.3   155  TYR155     -0.2866
     91  N         42.5970   -1.4150   94.3200 N.3   207  LYS207     -0.1231
     92  CA        42.2510   -1.4460   95.7500 C.3   207  LYS207      0.1693
     93  C         41.5830   -2.7740   96.0980 C.2   207  LYS207      0.2592
     94  O         41.4390   -3.1170   97.2750 O.2   207  LYS207     -0.2718
     95  CB        41.2880   -0.2960   96.1030 C.3   207  LYS207      0.0285
     96  CG        41.7260    1.1070   95.6850 C.3   207  LYS207      0.0035
     97  CD        40.6600    2.1660   96.0310 C.3   207  LYS207      0.0206
     98  CE        39.4490    2.2100   95.1100 C.3   207  LYS207      0.1093
     99  NZ        38.4730    3.2390   95.5530 N.3   207  LYS207     -0.1314
    100  N         41.1310   -3.5040   95.0580 N.am  208  PHE208     -0.1976
    101  CA        40.3820   -4.7400   95.2280 C.3   208  PHE208      0.1639
    102  C         41.2210   -5.9750   94.8940 C.2   208  PHE208      0.2290
    103  O         40.6660   -7.0260   94.5400 O.2   208  PHE208     -0.2864
    104  CB        39.1010   -4.6700   94.3850 C.3   208  PHE208      0.0560
    105  CG        38.2840   -3.4180   94.6350 C.ar  208  PHE208     -0.0200
    106  CD1       37.7220   -3.1710   95.8870 C.ar  208  PHE208     -0.0042
    107  CD2       38.0850   -2.4860   93.6240 C.ar  208  PHE208     -0.0042
    108  CE1       36.9750   -2.0140   96.1180 C.ar  208  PHE208     -0.0003
    109  CE2       37.3280   -1.3370   93.8510 C.ar  208  PHE208     -0.0003
    110  CZ        36.7840   -1.1030   95.0990 C.ar  208  PHE208     -0.0000
    111  N         34.7700   -9.5040   92.0290 N.3   220  LEU220     -0.1245
    112  CA        35.1030   -8.7870   90.7870 C.3   220  LEU220      0.1561
    113  C         35.8190   -9.6870   89.7880 C.2   220  LEU220      0.2260
    114  O         35.5630   -9.5490   88.5900 O.2   220  LEU220     -0.2867
    115  CB        35.9220   -7.5140   91.0490 C.3   220  LEU220      0.0270
    116  CG        35.1390   -6.3540   91.6880 C.3   220  LEU220      0.0019
    117  CD1       36.0620   -5.4290   92.4560 C.3   220  LEU220      0.0001
    118  CD2       34.3510   -5.5600   90.6380 C.3   220  LEU220      0.0001
    119  N         25.3360    6.0410   91.7830 N.3   235  GLN235     -0.1245
    120  CA        26.0510    6.2830   93.0280 C.3   235  GLN235      0.1566
    121  C         25.6640    7.5000   93.8490 C.2   235  GLN235      0.2260
    122  O         25.5470    8.6050   93.3170 O.2   235  GLN235     -0.2867
    123  CB        27.5490    6.4010   92.7250 C.3   235  GLN235      0.0367
    124  CG        28.4350    6.4890   93.9670 C.3   235  GLN235      0.0905
    125  CD        29.8820    6.4550   93.6130 C.2   235  GLN235      0.2608
    126  OE1       30.3210    7.0830   92.6600 O.2   235  GLN235     -0.2717
    127  NE2       30.6530    5.6990   94.3660 N.am  235  GLN235     -0.0878
    128  N         27.5730    9.6750   96.0720 N.3   237  HIS237     -0.1241
    129  CA        28.9160   10.0780   96.4790 C.3   237  HIS237      0.1621
    130  C         28.8090   11.4690   97.1660 C.2   237  HIS237      0.2264
    131  O         29.7330   12.2880   97.1040 O.2   237  HIS237     -0.2867
    132  CB        29.9310   10.0370   95.3230 C.3   237  HIS237      0.0745
    133  CG        31.3500    9.9200   95.7980 C.ar  237  HIS237      0.0817
    134  ND1       32.0340   11.0140   96.3000 N.ar  237  HIS237     -0.2268
    135  CD2       32.1570    8.8330   95.8670 C.ar  237  HIS237      0.1154
    136  CE1       33.2330   10.5640   96.6520 C.ar  237  HIS237      0.1986
    137  NE2       33.3600    9.2630   96.3940 N.ar  237  HIS237     -0.2212
@<TRIPOS>BOND
     1    65    64    2
     2    62    63    1
     3    64    63    1
     4    56    55    2
     5    50    51    1
     6    50    47    1
     7    63    66    1
     8    51    52    1
     9    79    80    1
    10    55    54    1
    11    66    67    1
    12    21    20    2
    13    67    68    1
    14    20    19    1
    15    52    46    1
    16    49    48    2
    17    53    48   am
    18    53    54    1
    19    48    47    1
    20    54    57    1
    21    47    46    1
    22    80    81    1
    23    80    83    1
    24    18    19    1
    25    81    82    2
    26    19    22    1
    27    46    43   am
    28   114   113    2
    29    68    69    2
    30    68    70   am
    31    83    84    1
    32    57    58    1
    33    58    59    1
    34   113   112    1
    35    43    42    1
    36    43    44    2
    37    22    23    1
    38    85    84   ar
    39    85    87   ar
    40    84    86   ar
    41    74    73    2
    42    42    45    1
    43    42    41    1
    44    59    61   ar
    45    59    60   ar
    46   118   116    1
    47    73    72    1
    48   112   115    1
    49   112   111    1
    50    23    24   ar
    51    23    25   ar
    52   115   116    1
    53    24    26   ar
    54    87    89   ar
    55    86    88   ar
    56   116   117    1
    57    25    27   ar
    58   119   120    1
    59    11    12    1
    60    11    10    1
    61    11    14    1
    62    26    28   ar
    63    12    13    2
    64    72    75    1
    65    72    71    1
    66    75    76    1
    67    89    88   ar
    68    89    90    1
    69    16    15    2
    70    78    76   ar
    71    27    28   ar
    72   126   125    2
    73   123   120    1
    74   123   124    1
    75    15    14    1
    76    15    17   am
    77    76    77   ar
    78   120   121    1
    79   122   121    2
    80   125   124    1
    81   125   127   am
    82   107   109   ar
    83   107   105   ar
    84   109   110   ar
    85    32    31    2
    86    91    92    1
    87   104   105    1
    88   104   101    1
    89    30    31    1
    90    30    33    1
    91    30    29    1
    92   103   102    2
    93   105   106   ar
    94    33    34    1
    95   102   101    1
    96   100   101    1
    97   100    93   am
    98   110   108   ar
    99    98    99    1
   100    98    97    1
   101   132   133    1
   102   132   129    1
   103    96    97    1
   104    96    95    1
   105    92    93    1
   106    92    95    1
   107   133   135   ar
   108   133   134   ar
   109   135   137   ar
   110   106   108   ar
   111   128   129    1
   112    93    94    2
   113    34    35   ar
   114    34    36   ar
   115   134   136   ar
   116   137   136   ar
   117   129   130    1
   118    35    37   ar
   119    36    38   ar
   120   131   130    2
   121    37    39   ar
   122    38    39   ar
   123     9     7   ar
   124    39    40    1
   125     6     7    1
   126     6     5    1
   127     7     8   ar
   128     1     2    1
   129     2     5    1
   130     2     3    1
   131     3     4    2
