@<TRIPOS>MOLECULE
tmp/4hxfA10.pdb
 101 97 0 0 0
SMALL
GASTEIGER

@<TRIPOS>ATOM
      1  N        -22.4450  -26.0940  -10.3840 N.3   136  PHE136     -0.1241
      2  CA       -22.0540  -26.6870  -11.6360 C.3   136  PHE136      0.1605
      3  C        -20.5600  -26.6350  -11.7780 C.2   136  PHE136      0.2264
      4  O        -19.9400  -25.6420  -11.5180 O.2   136  PHE136     -0.2867
      5  CB       -22.7590  -26.0590  -12.8400 C.3   136  PHE136      0.0534
      6  CG       -22.8930  -26.9890  -14.0280 C.ar  136  PHE136     -0.0203
      7  CD1      -23.9950  -27.7600  -14.1520 C.ar  136  PHE136     -0.0042
      8  CD2      -21.9110  -27.1030  -15.0290 C.ar  136  PHE136     -0.0042
      9  CE1      -24.1520  -28.6920  -15.1320 C.ar  136  PHE136     -0.0003
     10  CE2      -22.0650  -27.9970  -16.0650 C.ar  136  PHE136     -0.0003
     11  CZ       -23.1810  -28.7490  -16.1520 C.ar  136  PHE136     -0.0000
     12  N        -29.5170  -30.5460  -20.9060 N.3   192  PHE192     -0.1241
     13  CA       -28.8210  -31.4490  -21.8980 C.3   192  PHE192      0.1605
     14  C        -29.8220  -32.3740  -22.5790 C.2   192  PHE192      0.2264
     15  O        -29.4290  -33.2340  -23.3370 O.2   192  PHE192     -0.2867
     16  CB       -27.5730  -32.1880  -21.3720 C.3   192  PHE192      0.0534
     17  CG       -26.4550  -31.2910  -20.9630 C.ar  192  PHE192     -0.0203
     18  CD1      -26.4000  -30.7880  -19.6710 C.ar  192  PHE192     -0.0042
     19  CD2      -25.4350  -30.9830  -21.8530 C.ar  192  PHE192     -0.0042
     20  CE1      -25.3710  -29.9550  -19.2520 C.ar  192  PHE192     -0.0003
     21  CE2      -24.3960  -30.1300  -21.4540 C.ar  192  PHE192     -0.0003
     22  CZ       -24.3600  -29.6310  -20.1660 C.ar  192  PHE192     -0.0000
     23  N        -29.5940  -38.8150  -23.2970 N.3   235  VAL235     -0.1231
     24  CA       -28.7010  -37.7050  -23.5740 C.3   235  VAL235      0.1692
     25  C        -27.5000  -38.2690  -24.3060 C.2   235  VAL235      0.2592
     26  O        -26.8670  -37.6240  -25.1510 O.2   235  VAL235     -0.2718
     27  CB       -28.3140  -37.0580  -22.2350 C.3   235  VAL235      0.0266
     28  CG1      -27.2220  -36.0570  -22.4430 C.3   235  VAL235      0.0020
     29  CG2      -29.5700  -36.3430  -21.6440 C.3   235  VAL235      0.0020
     30  N        -27.1680  -39.5290  -23.9860 N.am  236  SER236     -0.1952
     31  CA       -26.0080  -40.2440  -24.6320 C.3   236  SER236      0.1924
     32  C        -26.1590  -40.5660  -26.1170 C.2   236  SER236      0.2314
     33  O        -25.1760  -41.0450  -26.7170 O.2   236  SER236     -0.2863
     34  CB       -25.6710  -41.5140  -23.8680 C.3   236  SER236      0.2116
     35  OG       -25.3880  -41.2040  -22.4340 O.3   236  SER236     -0.2180
     36  N        -21.3060  -39.2120  -33.9690 N.3   258  GLU258     -0.1245
     37  CA       -21.6810  -37.9720  -33.2860 C.3   258  GLU258      0.1567
     38  C        -20.8750  -36.7650  -33.8430 C.2   258  GLU258      0.2260
     39  O        -19.6380  -36.8500  -34.0220 O.2   258  GLU258     -0.2867
     40  CB       -21.4210  -38.1200  -31.8290 C.3   258  GLU258      0.0388
     41  CG       -21.7940  -36.8270  -31.0620 C.3   258  GLU258      0.1160
     42  CD       -21.9670  -37.0520  -29.5720 C.2   258  GLU258      0.3649
     43  OE1      -21.0140  -37.3600  -28.8600 O.co2 258  GLU258     -0.2457
     44  OE2      -23.1170  -36.8180  -29.1550 O.co2 258  GLU258     -0.2457
     45  N        -16.0380  -40.3870  -19.1110 N.3   382  GLY382     -0.1225
     46  CA       -17.2370  -40.3600  -19.8330 C.3   382  GLY382      0.1811
     47  C        -18.3890  -40.9370  -19.0420 C.2   382  GLY382      0.2280
     48  O        -18.8670  -40.2970  -18.1430 O.2   382  GLY382     -0.2866
     49  N        -18.9310  -41.8860  -22.2240 N.3   384  LYS384     -0.1245
     50  CA       -18.8750  -41.5900  -23.6710 C.3   384  LYS384      0.1561
     51  C        -17.7270  -40.5690  -23.9740 C.2   384  LYS384      0.2260
     52  O        -17.8640  -39.6450  -24.8250 O.2   384  LYS384     -0.2867
     53  CB       -20.2170  -41.0320  -24.1670 C.3   384  LYS384      0.0271
     54  CG       -20.3970  -41.1950  -25.7010 C.3   384  LYS384      0.0035
     55  CD       -21.7190  -40.5980  -26.1710 C.3   384  LYS384      0.0206
     56  CE       -21.8450  -40.7180  -27.6360 C.3   384  LYS384      0.1093
     57  NZ       -23.0320  -39.9710  -28.2230 N.3   384  LYS384     -0.1314
     58  N        -24.7670  -32.8350  -12.3030 N.3   498  ILE498     -0.1245
     59  CA       -25.6170  -33.4300  -13.3300 C.3   498  ILE498      0.1561
     60  C        -26.3260  -34.6920  -12.8920 C.2   498  ILE498      0.2260
     61  O        -27.0660  -35.3220  -13.6600 O.2   498  ILE498     -0.2867
     62  CB       -24.7760  -33.6900  -14.5870 C.3   498  ILE498      0.0252
     63  CG1      -23.7660  -34.7850  -14.4140 C.3   498  ILE498      0.0019
     64  CG2      -24.2240  -32.3610  -15.1690 C.3   498  ILE498      0.0019
     65  CD1      -23.0240  -35.2640  -15.6980 C.3   498  ILE498      0.0001
     66  N        -30.3070  -36.0770  -13.4080 N.3   501  TRP501     -0.1227
     67  CA       -30.7520  -36.6430  -14.6840 C.3   501  TRP501      0.1737
     68  C        -29.7590  -37.5910  -15.2530 C.2   501  TRP501      0.2595
     69  O        -30.1830  -38.6370  -15.7480 O.2   501  TRP501     -0.2718
     70  CB       -31.0980  -35.4730  -15.6180 C.3   501  TRP501      0.0564
     71  CG       -30.0250  -34.4620  -15.7360 C.ar  501  TRP501      0.0003
     72  CD1      -29.8430  -33.3310  -14.9820 C.ar  501  TRP501      0.0946
     73  CD2      -28.9950  -34.4660  -16.6970 C.ar  501  TRP501      0.0152
     74  NE1      -28.7220  -32.6580  -15.4130 N.ar  501  TRP501     -0.2442
     75  CE2      -28.1910  -33.2550  -16.4250 C.ar  501  TRP501      0.0810
     76  CE3      -28.6300  -35.3270  -17.7650 C.ar  501  TRP501      0.0012
     77  CZ2      -27.1140  -32.9630  -17.1420 C.ar  501  TRP501      0.0191
     78  CZ3      -27.5090  -35.0000  -18.4820 C.ar  501  TRP501      0.0001
     79  CH2      -26.7620  -33.8530  -18.1600 C.ar  501  TRP501      0.0015
     80  N        -28.4590  -37.3500  -15.1610 N.am  502  PHE502     -0.1976
     81  CA       -27.5300  -38.2110  -15.8250 C.3   502  PHE502      0.1639
     82  C        -27.3730  -39.5820  -15.1490 C.2   502  PHE502      0.2290
     83  O        -27.3100  -40.5740  -15.8660 O.2   502  PHE502     -0.2864
     84  CB       -26.1840  -37.5790  -16.0090 C.3   502  PHE502      0.0560
     85  CG       -25.3070  -38.2520  -17.0720 C.ar  502  PHE502     -0.0200
     86  CD1      -25.8240  -38.5040  -18.3780 C.ar  502  PHE502     -0.0042
     87  CD2      -24.0610  -38.6690  -16.7700 C.ar  502  PHE502     -0.0042
     88  CE1      -25.0210  -39.1500  -19.3180 C.ar  502  PHE502     -0.0003
     89  CE2      -23.2280  -39.2790  -17.7150 C.ar  502  PHE502     -0.0003
     90  CZ       -23.7230  -39.5260  -18.9890 C.ar  502  PHE502     -0.0000
     91  N        -18.7040  -32.0650  -10.6070 N.3   543  ARG543     -0.1245
     92  CA       -19.1080  -33.1720  -11.4490 C.3   543  ARG543      0.1563
     93  C        -19.0160  -34.5180  -10.7590 C.2   543  ARG543      0.2260
     94  O        -19.9230  -35.3010  -10.8300 O.2   543  ARG543     -0.2867
     95  CB       -18.2430  -33.1970  -12.7120 C.3   543  ARG543      0.0307
     96  CG       -18.5570  -34.2780  -13.7510 C.3   543  ARG543      0.0489
     97  CD       -20.0320  -34.3260  -14.2720 C.3   543  ARG543      0.2205
     98  NE       -20.5140  -32.9960  -14.4970 N.pl3 543  ARG543     -0.0865
     99  CZ       -20.1910  -32.2410  -15.5380 C.cat 543  ARG543      0.5346
    100  NH1      -20.5300  -30.9400  -15.5670 N.pl3 543  ARG543      0.1354
    101  NH2      -19.5600  -32.8170  -16.5750 N.pl3 543  ARG543      0.1354
@<TRIPOS>BOND
     1    39    38    2
     2    36    37    1
     3    38    37    1
     4    37    40    1
     5    40    41    1
     6    41    42    1
     7    42    44   ar
     8    42    43   ar
     9    57    56    1
    10    56    55    1
    11    33    32    2
    12    55    54    1
    13    32    31    1
    14    54    53    1
    15    26    25    2
    16    52    51    2
    17    31    30    1
    18    31    34    1
    19    25    30   am
    20    25    24    1
    21    53    50    1
    22    51    50    1
    23    34    35    1
    24    50    49    1
    25    24    23    1
    26    24    27    1
    27    15    14    2
    28    14    13    1
    29    28    27    1
    30    27    29    1
    31    13    16    1
    32    13    12    1
    33    19    21   ar
    34    19    17   ar
    35    21    22   ar
    36    16    17    1
    37    17    18   ar
    38    22    20   ar
    39    46    45    1
    40    46    47    1
    41    18    20   ar
    42    88    90   ar
    43    88    86   ar
    44    47    48    2
    45    90    89   ar
    46    78    79   ar
    47    78    76   ar
    48    86    85   ar
    49    79    77   ar
    50    76    73   ar
    51    89    87   ar
    52    77    75   ar
    53    85    87   ar
    54    85    84    1
    55    73    75   ar
    56    73    71   ar
    57   101    99    1
    58    75    74   ar
    59    11    10   ar
    60    11     9   ar
    61    10     8   ar
    62    84    81    1
    63    83    82    2
    64    81    80    1
    65    81    82    1
    66    69    68    2
    67    71    70    1
    68    71    72   ar
    69    65    63    1
    70    70    67    1
    71   100    99    1
    72    99    98    2
    73    74    72   ar
    74    68    80   am
    75    68    67    1
    76    64    62    1
    77     9     7   ar
    78     8     6   ar
    79    67    66    1
    80    62    63    1
    81    62    59    1
    82    98    97    1
    83    97    96    1
    84     7     6   ar
    85     6     5    1
    86    96    95    1
    87    61    60    2
    88    59    60    1
    89    59    58    1
    90     5     2    1
    91    95    92    1
    92     3     2    1
    93     3     4    2
    94     2     1    1
    95    92    93    1
    96    92    91    1
    97    94    93    2
