@<TRIPOS>MOLECULE
tmp/4hxfA05.pdb
 110 107 0 0 0
SMALL
GASTEIGER

@<TRIPOS>ATOM
      1  N        -12.4180  -41.1390  -19.4830 N.3   381  GLY381     -0.1225
      2  CA       -13.6730  -40.7500  -18.7960 C.3   381  GLY381      0.1811
      3  C        -14.9500  -40.8990  -19.6470 C.2   381  GLY381      0.2280
      4  O        -14.9210  -41.4180  -20.8170 O.2   381  GLY381     -0.2866
      5  N        -10.5910  -42.3400  -26.5080 N.3   387  TYR387     -0.1241
      6  CA        -9.1670  -42.2790  -26.7020 C.3   387  TYR387      0.1605
      7  C         -8.8540  -42.5320  -28.1920 C.2   387  TYR387      0.2264
      8  O         -9.6430  -43.0740  -28.9550 O.2   387  TYR387     -0.2867
      9  CB        -8.4340  -43.3960  -25.9430 C.3   387  TYR387      0.0534
     10  CG        -8.1500  -43.1060  -24.4600 C.ar  387  TYR387     -0.0201
     11  CD1       -8.1320  -44.1520  -23.5480 C.ar  387  TYR387     -0.0009
     12  CD2       -7.7790  -41.8550  -24.0240 C.ar  387  TYR387     -0.0009
     13  CE1       -7.8750  -43.9370  -22.2060 C.ar  387  TYR387      0.0417
     14  CE2       -7.4830  -41.6310  -22.6670 C.ar  387  TYR387      0.0417
     15  CZ        -7.5080  -42.7170  -21.7770 C.ar  387  TYR387      0.1957
     16  OH        -7.2300  -42.4470  -20.4670 O.3   387  TYR387     -0.2866
     17  N         -5.2880  -37.8840  -29.7870 N.3   390  TYR390     -0.1227
     18  CA        -4.9740  -36.5880  -29.2220 C.3   390  TYR390      0.1736
     19  C         -3.7320  -36.7170  -28.3020 C.2   390  TYR390      0.2595
     20  O         -3.2920  -37.8310  -28.0130 O.2   390  TYR390     -0.2718
     21  CB        -6.1790  -36.0280  -28.5000 C.3   390  TYR390      0.0548
     22  CG        -6.5800  -36.6220  -27.1560 C.ar  390  TYR390     -0.0200
     23  CD1       -7.6050  -37.5960  -27.0750 C.ar  390  TYR390     -0.0009
     24  CD2       -6.0380  -36.2030  -25.9750 C.ar  390  TYR390     -0.0009
     25  CE1       -8.0220  -38.0800  -25.8700 C.ar  390  TYR390      0.0417
     26  CE2       -6.3660  -36.7970  -24.7940 C.ar  390  TYR390      0.0417
     27  CZ        -7.3890  -37.6990  -24.7460 C.ar  390  TYR390      0.1957
     28  OH        -7.7620  -38.1880  -23.5130 O.3   390  TYR390     -0.2866
     29  N         -3.1870  -35.5570  -27.8780 N.am  391  PHE391     -0.1962
     30  CA        -1.9380  -35.5150  -27.2280 C.3   391  PHE391      0.1771
     31  C         -2.1850  -35.7200  -25.7530 C.2   391  PHE391      0.2619
     32  O         -2.8330  -34.8670  -25.1220 O.2   391  PHE391     -0.2715
     33  CB        -1.2480  -34.1750  -27.5020 C.3   391  PHE391      0.0574
     34  CG         0.1140  -34.0740  -26.8150 C.ar  391  PHE391     -0.0200
     35  CD1        1.2170  -34.6450  -27.3950 C.ar  391  PHE391     -0.0042
     36  CD2        0.2400  -33.3700  -25.6190 C.ar  391  PHE391     -0.0042
     37  CE1        2.5070  -34.5550  -26.7840 C.ar  391  PHE391     -0.0003
     38  CE2        1.4560  -33.3390  -24.9780 C.ar  391  PHE391     -0.0003
     39  CZ         2.5670  -33.8900  -25.5810 C.ar  391  PHE391     -0.0000
     40  N         -1.7180  -36.8450  -25.2110 N.am  392  LYS392     -0.1977
     41  CA        -1.9950  -37.1240  -23.7570 C.3   392  LYS392      0.1596
     42  C         -0.6880  -37.1340  -22.9730 C.2   392  LYS392      0.2287
     43  O          0.1730  -38.0350  -23.1000 O.2   392  LYS392     -0.2864
     44  CB        -2.7390  -38.4200  -23.5140 C.3   392  LYS392      0.0298
     45  CG        -2.9300  -38.7460  -21.9900 C.3   392  LYS392      0.0038
     46  CD        -4.0220  -38.0390  -21.2610 C.3   392  LYS392      0.0206
     47  CE        -4.2540  -38.6430  -19.8190 C.3   392  LYS392      0.1093
     48  NZ        -4.9520  -37.6700  -18.9040 N.3   392  LYS392     -0.1314
     49  N          0.4360  -37.4840  -19.9330 N.3   394  GLU394     -0.1245
     50  CA         0.8890  -38.4850  -19.0160 C.3   394  GLU394      0.1567
     51  C          1.3770  -39.7160  -19.7620 C.2   394  GLU394      0.2260
     52  O          2.2580  -40.4410  -19.2880 O.2   394  GLU394     -0.2867
     53  CB        -0.1500  -38.9340  -18.0420 C.3   394  GLU394      0.0388
     54  CG        -0.6110  -37.9180  -17.0600 C.3   394  GLU394      0.1160
     55  CD        -1.7240  -37.0370  -17.5780 C.2   394  GLU394      0.3649
     56  OE1       -1.8720  -36.8500  -18.8090 O.co2 394  GLU394     -0.2457
     57  OE2       -2.4250  -36.4710  -16.6890 O.co2 394  GLU394     -0.2457
     58  N         -9.2220  -40.8170  -14.8250 N.3   460  ILE460     -0.1231
     59  CA        -9.9260  -39.6840  -14.2580 C.3   460  ILE460      0.1692
     60  C        -11.4220  -39.7920  -14.5510 C.2   460  ILE460      0.2592
     61  O        -11.8460  -40.2270  -15.6530 O.2   460  ILE460     -0.2718
     62  CB        -9.4190  -38.3630  -14.8850 C.3   460  ILE460      0.0266
     63  CG1       -7.8980  -38.2150  -14.7530 C.3   460  ILE460      0.0019
     64  CG2      -10.1310  -37.1150  -14.3710 C.3   460  ILE460      0.0020
     65  CD1       -7.2560  -37.1640  -15.6850 C.3   460  ILE460      0.0001
     66  N        -12.2760  -39.3820  -13.6110 N.am  461  SER461     -0.1952
     67  CA       -13.7440  -39.3380  -13.7830 C.3   461  SER461      0.1924
     68  C        -14.2790  -40.7370  -13.9330 C.2   461  SER461      0.2314
     69  O        -14.0670  -41.5520  -13.0340 O.2   461  SER461     -0.2863
     70  CB       -14.0870  -38.3840  -14.9520 C.3   461  SER461      0.2116
     71  OG       -15.4770  -38.1490  -14.8300 O.3   461  SER461     -0.2180
     72  N        -13.3290  -30.3320  -12.2990 N.3   573  HIS573     -0.1226
     73  CA       -13.2040  -31.7070  -12.7830 C.3   573  HIS573      0.1752
     74  C        -12.0000  -31.8920  -13.6910 C.2   573  HIS573      0.2596
     75  O        -11.2910  -32.9040  -13.6060 O.2   573  HIS573     -0.2718
     76  CB       -14.5210  -32.0360  -13.4890 C.3   573  HIS573      0.0759
     77  CG       -14.7490  -33.5020  -13.8100 C.ar  573  HIS573      0.0818
     78  ND1      -14.7170  -34.5330  -12.8520 N.ar  573  HIS573     -0.2268
     79  CD2      -15.1630  -34.0710  -15.0270 C.ar  573  HIS573      0.1154
     80  CE1      -15.0060  -35.6980  -13.4530 C.ar  573  HIS573      0.1986
     81  NE2      -15.2900  -35.4150  -14.8100 N.ar  573  HIS573     -0.2212
     82  N        -11.7470  -30.8710  -14.4920 N.am  574  GLY574     -0.1957
     83  CA       -10.6540  -30.9050  -15.4690 C.3   574  GLY574      0.1869
     84  C         -9.3180  -30.3440  -14.9800 C.2   574  GLY574      0.2309
     85  O         -8.4850  -30.0010  -15.8140 O.2   574  GLY574     -0.2863
     86  N         -6.5760  -31.4020  -14.0320 N.3   576  SER576     -0.1202
     87  CA        -5.2980  -32.0510  -14.3860 C.3   576  SER576      0.2020
     88  C         -4.7220  -31.2630  -15.5940 C.2   576  SER576      0.2619
     89  O         -3.4980  -31.1750  -15.7700 O.2   576  SER576     -0.2717
     90  CB        -5.5150  -33.5250  -14.6930 C.3   576  SER576      0.2103
     91  OG        -6.4430  -33.6310  -15.7860 O.3   576  SER576     -0.2182
     92  N         -5.6500  -30.7280  -16.3930 N.am  577  ILE577     -0.1965
     93  CA        -5.2590  -29.9320  -17.5890 C.3   577  ILE577      0.1727
     94  C         -5.5480  -28.4470  -17.4480 C.2   577  ILE577      0.2616
     95  O         -4.8810  -27.6370  -18.0580 O.2   577  ILE577     -0.2715
     96  CB        -5.8190  -30.5440  -18.9350 C.3   577  ILE577      0.0290
     97  CG1       -7.2860  -30.7370  -18.8780 C.3   577  ILE577      0.0022
     98  CG2       -5.1490  -31.9180  -19.2750 C.3   577  ILE577      0.0023
     99  CD1       -7.8300  -31.0640  -20.2900 C.3   577  ILE577      0.0001
    100  N         -6.4300  -28.0380  -16.5300 N.am  578  ARG578     -0.1977
    101  CA        -6.8060  -26.6000  -16.4120 C.3   578  ARG578      0.1597
    102  C         -6.4550  -25.9050  -15.1290 C.2   578  ARG578      0.2287
    103  O         -6.6810  -24.7080  -15.0090 O.2   578  ARG578     -0.2864
    104  CB        -8.3380  -26.4520  -16.7280 C.3   578  ARG578      0.0334
    105  CG        -8.7080  -26.7860  -18.1890 C.3   578  ARG578      0.0492
    106  CD       -10.1180  -26.3240  -18.5290 C.3   578  ARG578      0.2205
    107  NE       -11.1210  -27.2280  -17.9710 N.pl3 578  ARG578     -0.0865
    108  CZ       -11.4510  -28.4350  -18.4790 C.cat 578  ARG578      0.5346
    109  NH1      -10.8540  -28.9140  -19.5810 N.pl3 578  ARG578      0.1354
    110  NH2      -12.3890  -29.1890  -17.8830 N.pl3 578  ARG578      0.1354
@<TRIPOS>BOND
     1    17    18    1
     2    18    21    1
     3    18    19    1
     4     8     7    2
     5    21    22    1
     6    19    20    2
     7    19    29   am
     8     7     6    1
     9    29    30    1
    10    33    30    1
    11    33    34    1
    12    35    34   ar
    13    35    37   ar
    14    30    31    1
    15    22    23   ar
    16    22    24   ar
    17    23    25   ar
    18    34    36   ar
    19    37    39   ar
    20     6     5    1
    21     6     9    1
    22    24    26   ar
    23     9    10    1
    24    25    27   ar
    25    31    40   am
    26    31    32    2
    27    36    38   ar
    28    39    38   ar
    29    40    41    1
    30    26    27   ar
    31    27    28    1
    32    10    12   ar
    33    10    11   ar
    34    12    14   ar
    35    41    44    1
    36    41    42    1
    37    11    13   ar
    38    44    45    1
    39    43    42    2
    40    14    15   ar
    41    13    15   ar
    42    45    46    1
    43    15    16    1
    44    46    47    1
    45     4     3    2
    46    99    97    1
    47    49    50    1
    48    47    48    1
    49    51    52    2
    50    51    50    1
    51     3     2    1
    52   109   108    1
    53     1     2    1
    54    98    96    1
    55    50    53    1
    56    96    97    1
    57    96    93    1
    58    56    55   ar
    59   106   105    1
    60   106   107    1
    61   108   107    2
    62   108   110    1
    63   105   104    1
    64    95    94    2
    65    53    54    1
    66    93    94    1
    67    93    92    1
    68    55    54    1
    69    55    57   ar
    70    94   100   am
    71   104   101    1
    72   100   101    1
    73   101   102    1
    74    92    88   am
    75    85    84    2
    76    91    90    1
    77    89    88    2
    78    65    63    1
    79    61    60    2
    80    88    87    1
    81    83    84    1
    82    83    82    1
    83   102   103    2
    84    79    81   ar
    85    79    77   ar
    86    70    71    1
    87    70    67    1
    88    62    63    1
    89    62    64    1
    90    62    59    1
    91    58    59    1
    92    81    80   ar
    93    90    87    1
    94    60    59    1
    95    60    66   am
    96    82    74   am
    97    87    86    1
    98    68    67    1
    99    68    69    2
   100    77    76    1
   101    77    78   ar
   102    67    66    1
   103    74    75    2
   104    74    73    1
   105    76    73    1
   106    80    78   ar
   107    73    72    1
