@<TRIPOS>MOLECULE
tmp/4hxfA01.pdb
 136 131 0 0 0
SMALL
GASTEIGER

@<TRIPOS>ATOM
      1  N        -12.4180  -41.1390  -19.4830 N.3   381  GLY381     -0.1210
      2  CA       -13.6730  -40.7500  -18.7960 C.3   381  GLY381      0.1956
      3  C        -14.9500  -40.8990  -19.6470 C.2   381  GLY381      0.2612
      4  O        -14.9210  -41.4180  -20.8170 O.2   381  GLY381     -0.2717
      5  N        -16.0380  -40.3870  -19.1110 N.am  382  GLY382     -0.1942
      6  CA       -17.2370  -40.3600  -19.8330 C.3   382  GLY382      0.1998
      7  C        -18.3890  -40.9370  -19.0420 C.2   382  GLY382      0.2480
      8  O        -18.8670  -40.2970  -18.1430 O.2   382  GLY382     -0.2729
      9  N        -18.9380  -42.0840  -19.4460 N.am  383  PRO383     -0.2726
     10  CA       -18.2970  -43.1500  -20.2260 C.3   383  PRO383      0.1402
     11  C        -18.1690  -42.8260  -21.6840 C.2   383  PRO383      0.2269
     12  O        -17.3600  -43.4480  -22.3280 O.2   383  PRO383     -0.2865
     13  CB       -19.1640  -44.4130  -20.0350 C.3   383  PRO383      0.0296
     14  CG       -20.3800  -43.9610  -19.3180 C.3   383  PRO383      0.0237
     15  CD       -20.1140  -42.6050  -18.6830 C.3   383  PRO383      0.0939
     16  N         -9.2220  -40.8170  -14.8250 N.3   460  ILE460     -0.1231
     17  CA        -9.9260  -39.6840  -14.2580 C.3   460  ILE460      0.1692
     18  C        -11.4220  -39.7920  -14.5510 C.2   460  ILE460      0.2593
     19  O        -11.8460  -40.2270  -15.6530 O.2   460  ILE460     -0.2718
     20  CB        -9.4190  -38.3630  -14.8850 C.3   460  ILE460      0.0266
     21  CG1       -7.8980  -38.2150  -14.7530 C.3   460  ILE460      0.0019
     22  CG2      -10.1310  -37.1150  -14.3710 C.3   460  ILE460      0.0020
     23  CD1       -7.2560  -37.1640  -15.6850 C.3   460  ILE460      0.0001
     24  N        -12.2760  -39.3820  -13.6110 N.am  461  SER461     -0.1938
     25  CA       -13.7440  -39.3380  -13.7830 C.3   461  SER461      0.2055
     26  C        -14.2790  -40.7370  -13.9330 C.2   461  SER461      0.2643
     27  O        -14.0670  -41.5520  -13.0340 O.2   461  SER461     -0.2714
     28  CB       -14.0870  -38.3840  -14.9520 C.3   461  SER461      0.2130
     29  OG       -15.4770  -38.1490  -14.8300 O.3   461  SER461     -0.2179
     30  N        -14.9270  -41.0740  -15.0580 N.am  462  TYR462     -0.1973
     31  CA       -15.3780  -42.4560  -15.2610 C.3   462  TYR462      0.1639
     32  C        -14.1460  -43.4180  -15.2170 C.2   462  TYR462      0.2290
     33  O        -14.2740  -44.6030  -14.8320 O.2   462  TYR462     -0.2864
     34  CB       -16.2220  -42.5770  -16.5420 C.3   462  TYR462      0.0560
     35  CG       -16.8750  -43.9430  -16.6420 C.ar  462  TYR462     -0.0198
     36  CD1      -17.9700  -44.2540  -15.8100 C.ar  462  TYR462     -0.0009
     37  CD2      -16.3620  -44.9530  -17.4260 C.ar  462  TYR462     -0.0009
     38  CE1      -18.5770  -45.4990  -15.8630 C.ar  462  TYR462      0.0417
     39  CE2      -16.9380  -46.1900  -17.4970 C.ar  462  TYR462      0.0417
     40  CZ       -18.0450  -46.5090  -16.7030 C.ar  462  TYR462      0.1957
     41  OH       -18.6510  -47.7690  -16.6930 O.3   462  TYR462     -0.2866
     42  N        -15.7190  -41.9330   -9.2770 N.3   486  ILE486     -0.1245
     43  CA       -16.8920  -42.3860   -8.5650 C.3   486  ILE486      0.1561
     44  C        -16.6040  -43.6580   -7.8160 C.2   486  ILE486      0.2260
     45  O        -16.0640  -44.5930   -8.3550 O.2   486  ILE486     -0.2867
     46  CB       -18.0750  -42.6230   -9.5690 C.3   486  ILE486      0.0252
     47  CG1      -18.4020  -41.3910  -10.3800 C.3   486  ILE486      0.0019
     48  CG2      -19.3180  -43.1280   -8.7830 C.3   486  ILE486      0.0019
     49  CD1      -17.8110  -41.4620  -11.8290 C.3   486  ILE486      0.0001
     50  N        -22.4980  -44.5810   -6.6590 N.3   489  TRP489     -0.1241
     51  CA       -23.4310  -43.9110   -7.5370 C.3   489  TRP489      0.1605
     52  C        -24.5490  -43.1500   -6.8500 C.2   489  TRP489      0.2264
     53  O        -25.0590  -42.1420   -7.4250 O.2   489  TRP489     -0.2867
     54  CB       -24.0120  -44.8820   -8.5820 C.3   489  TRP489      0.0550
     55  CG       -22.9450  -45.3840   -9.5040 C.ar  489  TRP489      0.0003
     56  CD1      -22.4340  -46.6630   -9.5900 C.ar  489  TRP489      0.0946
     57  CD2      -22.3030  -44.6100  -10.5400 C.ar  489  TRP489      0.0152
     58  NE1      -21.4890  -46.7080  -10.6130 N.ar  489  TRP489     -0.2442
     59  CE2      -21.3420  -45.4800  -11.1550 C.ar  489  TRP489      0.0810
     60  CE3      -22.3800  -43.3040  -10.9380 C.ar  489  TRP489      0.0012
     61  CZ2      -20.5510  -45.0880  -12.2320 C.ar  489  TRP489      0.0191
     62  CZ3      -21.5900  -42.9100  -12.0170 C.ar  489  TRP489      0.0001
     63  CH2      -20.6730  -43.7850  -12.6150 C.ar  489  TRP489      0.0015
     64  N        -23.4640  -39.6990   -6.2830 N.3   492  SER492     -0.1217
     65  CA       -23.3590  -39.0100   -7.5370 C.3   492  SER492      0.1889
     66  C        -24.7300  -38.4790   -7.9690 C.2   492  SER492      0.2288
     67  O        -24.9030  -37.3170   -8.3340 O.2   492  SER492     -0.2866
     68  CB       -22.7660  -39.9730   -8.5870 C.3   492  SER492      0.2089
     69  OG       -22.7890  -39.3630   -9.9200 O.3   492  SER492     -0.2183
     70  N        -24.0000  -34.5050   -7.1450 N.3   496  SER496     -0.1217
     71  CA       -23.2910  -33.8950   -8.2570 C.3   496  SER496      0.1889
     72  C        -24.1270  -32.9470   -9.0650 C.2   496  SER496      0.2288
     73  O        -25.3300  -32.9110   -8.9860 O.2   496  SER496     -0.2866
     74  CB       -22.6970  -34.9080   -9.1710 C.3   496  SER496      0.2089
     75  OG       -23.7010  -35.5420   -9.9490 O.3   496  SER496     -0.2183
     76  N        -24.7670  -32.8350  -12.3030 N.3   498  ILE498     -0.1245
     77  CA       -25.6170  -33.4300  -13.3300 C.3   498  ILE498      0.1561
     78  C        -26.3260  -34.6920  -12.8920 C.2   498  ILE498      0.2260
     79  O        -27.0660  -35.3220  -13.6600 O.2   498  ILE498     -0.2867
     80  CB       -24.7760  -33.6900  -14.5870 C.3   498  ILE498      0.0252
     81  CG1      -23.7660  -34.7850  -14.4140 C.3   498  ILE498      0.0019
     82  CG2      -24.2240  -32.3610  -15.1690 C.3   498  ILE498      0.0019
     83  CD1      -23.0240  -35.2640  -15.6980 C.3   498  ILE498      0.0001
     84  N        -28.4590  -37.3500  -15.1610 N.3   502  PHE502     -0.1227
     85  CA       -27.5300  -38.2110  -15.8250 C.3   502  PHE502      0.1736
     86  C        -27.3730  -39.5820  -15.1490 C.2   502  PHE502      0.2595
     87  O        -27.3100  -40.5740  -15.8660 O.2   502  PHE502     -0.2718
     88  CB       -26.1840  -37.5790  -16.0090 C.3   502  PHE502      0.0547
     89  CG       -25.3070  -38.2520  -17.0720 C.ar  502  PHE502     -0.0202
     90  CD1      -25.8240  -38.5040  -18.3780 C.ar  502  PHE502     -0.0042
     91  CD2      -24.0610  -38.6690  -16.7700 C.ar  502  PHE502     -0.0042
     92  CE1      -25.0210  -39.1500  -19.3180 C.ar  502  PHE502     -0.0003
     93  CE2      -23.2280  -39.2790  -17.7150 C.ar  502  PHE502     -0.0003
     94  CZ       -23.7230  -39.5260  -18.9890 C.ar  502  PHE502     -0.0000
     95  N        -27.3470  -39.6510  -13.8300 N.am  503  ASP503     -0.1974
     96  CA       -27.2510  -40.9410  -13.1810 C.3   503  ASP503      0.1709
     97  C        -28.4900  -41.7940  -13.4760 C.2   503  ASP503      0.2293
     98  O        -28.3970  -43.0190  -13.5670 O.2   503  ASP503     -0.2864
     99  CB       -27.0700  -40.8320  -11.6330 C.3   503  ASP503      0.1436
    100  CG       -25.6660  -40.5290  -11.1970 C.2   503  ASP503      0.3671
    101  OD1      -25.1330  -39.5270  -11.5410 O.co2 503  ASP503     -0.2456
    102  OD2      -25.2220  -41.3500  -10.4190 O.co2 503  ASP503     -0.2456
    103  N        -27.4860  -43.3020  -16.7890 N.3   506  VAL506     -0.1245
    104  CA       -26.3060  -44.1700  -16.8760 C.3   506  VAL506      0.1561
    105  C        -26.3260  -45.3630  -15.8770 C.2   506  VAL506      0.2260
    106  O        -25.8230  -46.4640  -16.1620 O.2   506  VAL506     -0.2867
    107  CB       -24.9700  -43.3670  -16.8040 C.3   506  VAL506      0.0252
    108  CG1      -23.7760  -44.3340  -16.8800 C.3   506  VAL506      0.0019
    109  CG2      -24.9800  -42.3740  -17.9410 C.3   506  VAL506      0.0019
    110  N        -18.7040  -32.0650  -10.6070 N.3   543  ARG543     -0.1231
    111  CA       -19.1080  -33.1720  -11.4490 C.3   543  ARG543      0.1694
    112  C        -19.0160  -34.5180  -10.7590 C.2   543  ARG543      0.2592
    113  O        -19.9230  -35.3010  -10.8300 O.2   543  ARG543     -0.2718
    114  CB       -18.2430  -33.1970  -12.7120 C.3   543  ARG543      0.0321
    115  CG       -18.5570  -34.2780  -13.7510 C.3   543  ARG543      0.0489
    116  CD       -20.0320  -34.3260  -14.2720 C.3   543  ARG543      0.2205
    117  NE       -20.5140  -32.9960  -14.4970 N.pl3 543  ARG543     -0.0865
    118  CZ       -20.1910  -32.2410  -15.5380 C.cat 543  ARG543      0.5346
    119  NH1      -20.5300  -30.9400  -15.5670 N.pl3 543  ARG543      0.1354
    120  NH2      -19.5600  -32.8170  -16.5750 N.pl3 543  ARG543      0.1354
    121  N        -17.8960  -34.6800  -10.0280 N.am  544  CYS544     -0.1970
    122  CA       -17.6550  -35.7850   -9.1250 C.3   544  CYS544      0.1712
    123  C        -17.1930  -35.1270   -7.8220 C.2   544  CYS544      0.2296
    124  O        -15.9790  -34.8760   -7.6170 O.2   544  CYS544     -0.2864
    125  CB       -16.6230  -36.7680   -9.6150 C.3   544  CYS544      0.0983
    126  SG       -17.1080  -37.5860  -11.1860 S.3   544  CYS544     -0.0798
    127  N        -13.3290  -30.3320  -12.2990 N.3   573  HIS573     -0.1241
    128  CA       -13.2040  -31.7070  -12.7830 C.3   573  HIS573      0.1621
    129  C        -12.0000  -31.8920  -13.6910 C.2   573  HIS573      0.2264
    130  O        -11.2910  -32.9040  -13.6060 O.2   573  HIS573     -0.2867
    131  CB       -14.5210  -32.0360  -13.4890 C.3   573  HIS573      0.0745
    132  CG       -14.7490  -33.5020  -13.8100 C.ar  573  HIS573      0.0817
    133  ND1      -14.7170  -34.5330  -12.8520 N.ar  573  HIS573     -0.2268
    134  CD2      -15.1630  -34.0710  -15.0270 C.ar  573  HIS573      0.1154
    135  CE1      -15.0060  -35.6980  -13.4530 C.ar  573  HIS573      0.1986
    136  NE2      -15.2900  -35.4150  -14.8100 N.ar  573  HIS573     -0.2212
@<TRIPOS>BOND
     1    12    11    2
     2    11    10    1
     3     4     3    2
     4    10    13    1
     5    10     9    1
     6    13    14    1
     7     6     5    1
     8     6     7    1
     9     3     5   am
    10     3     2    1
    11     1     2    1
    12     9     7   am
    13     9    15    1
    14    92    94   ar
    15    92    90   ar
    16    14    15    1
    17     7     8    2
    18    94    93   ar
    19    90    89   ar
    20   109   107    1
    21    93    91   ar
    22    39    37   ar
    23    39    40   ar
    24    37    35   ar
    25    89    91   ar
    26    89    88    1
    27   108   107    1
    28   104   107    1
    29   104   103    1
    30   104   105    1
    31    40    41    1
    32    40    38   ar
    33    35    34    1
    34    35    36   ar
    35   120   118    1
    36    34    31    1
    37   106   105    2
    38    88    85    1
    39    87    86    2
    40    38    36   ar
    41    85    84    1
    42    85    86    1
    43    83    81    1
    44    23    21    1
    45    19    18    2
    46   119   118    1
    47   118   117    2
    48    31    32    1
    49    31    30    1
    50    32    33    2
    51    82    80    1
    52    86    95   am
    53    30    26   am
    54   134   136   ar
    55   134   132   ar
    56    28    29    1
    57    28    25    1
    58    20    21    1
    59    20    22    1
    60    20    17    1
    61    16    17    1
    62   136   135   ar
    63    80    81    1
    64    80    77    1
    65    18    17    1
    66    18    24   am
    67   117   116    1
    68   116   115    1
    69    26    25    1
    70    26    27    2
    71    95    96    1
    72   132   131    1
    73   132   133   ar
    74    25    24    1
    75   115   114    1
    76   129   130    2
    77   129   128    1
    78    79    78    2
    79    98    97    2
    80   131   128    1
    81    97    96    1
    82   135   133   ar
    83    77    78    1
    84    77    76    1
    85    96    99    1
    86   128   127    1
    87   114   111    1
    88    63    61   ar
    89    63    62   ar
    90    61    59   ar
    91    62    60   ar
    92    49    47    1
    93    99   100    1
    94   101   100   ar
    95   111   112    1
    96   111   110    1
    97   100   102   ar
    98   126   125    1
    99    59    58   ar
   100    59    57   ar
   101    60    57   ar
   102   113   112    2
   103   112   121   am
   104    58    56   ar
   105    57    55   ar
   106    47    46    1
   107   121   122    1
   108    75    74    1
   109    69    68    1
   110   125   122    1
   111    56    55   ar
   112    46    48    1
   113    46    43    1
   114    55    54    1
   115    42    43    1
   116    74    71    1
   117   122   123    1
   118    72    73    2
   119    72    71    1
   120    68    65    1
   121    54    51    1
   122    43    44    1
   123    45    44    2
   124    67    66    2
   125    71    70    1
   126    66    65    1
   127   123   124    2
   128    51    52    1
   129    51    50    1
   130    65    64    1
   131    53    52    2
