@<TRIPOS>MOLECULE
tmp/4hxgD07.pdb
 116 111 0 0 0
SMALL
GASTEIGER

@<TRIPOS>ATOM
      1  N         60.5660   40.7140  -24.1190 N.3   191  PHE191     -0.1241
      2  CA        61.6040   41.4920  -23.4800 C.3   191  PHE191      0.1605
      3  C         62.0150   42.7100  -24.3000 C.2   191  PHE191      0.2264
      4  O         62.8530   43.4980  -23.8640 O.2   191  PHE191     -0.2867
      5  CB        62.8050   40.6060  -23.1660 C.3   191  PHE191      0.0534
      6  CG        62.4850   39.4760  -22.2300 C.ar  191  PHE191     -0.0203
      7  CD1       62.1910   38.2160  -22.7200 C.ar  191  PHE191     -0.0042
      8  CD2       62.4700   39.6800  -20.8570 C.ar  191  PHE191     -0.0042
      9  CE1       61.8920   37.1740  -21.8600 C.ar  191  PHE191     -0.0003
     10  CE2       62.1740   38.6460  -19.9920 C.ar  191  PHE191     -0.0003
     11  CZ        61.8820   37.3890  -20.4940 C.ar  191  PHE191     -0.0000
     12  N         67.9080   44.8650  -26.1770 N.3   234  VAL234     -0.1231
     13  CA        67.3030   44.4340  -24.9170 C.3   234  VAL234      0.1692
     14  C         68.3280   44.5020  -23.7900 C.2   234  VAL234      0.2592
     15  O         67.9710   44.6020  -22.6220 O.2   234  VAL234     -0.2718
     16  CB        66.6880   43.0210  -24.9940 C.3   234  VAL234      0.0266
     17  CG1       65.7670   42.9100  -26.2050 C.3   234  VAL234      0.0020
     18  CG2       67.7670   41.9570  -25.0240 C.3   234  VAL234      0.0020
     19  N         69.6020   44.4780  -24.1640 N.am  235  SER235     -0.1952
     20  CA        70.7060   44.5650  -23.2190 C.3   235  SER235      0.1924
     21  C         70.9220   45.9700  -22.6840 C.2   235  SER235      0.2314
     22  O         71.7420   46.1690  -21.7970 O.2   235  SER235     -0.2863
     23  CB        71.9950   44.0720  -23.8650 C.3   235  SER235      0.2116
     24  OG        71.8850   42.7100  -24.2110 O.3   235  SER235     -0.2180
     25  N         67.6300   48.6140  -18.0310 N.3   238  ASP238     -0.1239
     26  CA        66.2430   48.9250  -17.7250 C.3   238  ASP238      0.1674
     27  C         66.1540   49.9930  -16.6310 C.2   238  ASP238      0.2266
     28  O         66.8000   49.8870  -15.5900 O.2   238  ASP238     -0.2867
     29  CB        65.4960   47.6580  -17.3210 C.3   238  ASP238      0.1410
     30  CG        65.4310   46.6470  -18.4400 C.2   238  ASP238      0.3668
     31  OD1       65.0370   47.0160  -19.5670 O.co2 238  ASP238     -0.2456
     32  OD2       65.7860   45.4820  -18.1920 O.co2 238  ASP238     -0.2456
     33  N         75.4690   35.3630  -18.0290 N.3   381  GLY381     -0.1210
     34  CA        75.5440   36.5630  -18.8190 C.3   381  GLY381      0.1940
     35  C         74.9360   36.5900  -20.1950 C.2   381  GLY381      0.2454
     36  O         73.9440   35.9280  -20.4810 O.2   381  GLY381     -0.2732
     37  N         75.5390   37.4120  -21.0550 N.am  382  PRO382     -0.2717
     38  CA        76.7710   38.0540  -20.5670 C.3   382  PRO382      0.1535
     39  C         76.5640   39.0990  -19.4620 C.2   382  PRO382      0.2598
     40  O         77.5090   39.4420  -18.7540 O.2   382  PRO382     -0.2715
     41  CB        77.4020   38.6500  -21.8330 C.3   382  PRO382      0.0310
     42  CG        76.3920   38.4670  -22.9290 C.3   382  PRO382      0.0237
     43  CD        75.4780   37.3630  -22.5220 C.3   382  PRO382      0.0939
     44  N         75.3260   39.5370  -19.2770 N.am  383  LYS383     -0.1978
     45  CA        75.0180   40.6670  -18.3980 C.3   383  LYS383      0.1596
     46  C         74.8010   40.2800  -16.9230 C.2   383  LYS383      0.2287
     47  O         74.2400   41.0440  -16.1440 O.2   383  LYS383     -0.2864
     48  CB        73.8770   41.5340  -18.9310 C.3   383  LYS383      0.0298
     49  CG        73.8850   42.9470  -18.3750 C.3   383  LYS383      0.0038
     50  CD        72.7090   43.7470  -18.8840 C.3   383  LYS383      0.0206
     51  CE        72.6890   45.1490  -18.3070 C.3   383  LYS383      0.1093
     52  NZ        71.6530   45.9700  -18.9820 N.3   383  LYS383     -0.1314
     53  N         80.6150   43.7820  -20.8000 N.3   411  GLY411     -0.1225
     54  CA        79.3660   43.0790  -21.0340 C.3   411  GLY411      0.1811
     55  C         78.6750   42.6850  -19.7420 C.2   411  GLY411      0.2280
     56  O         77.5230   42.2720  -19.7540 O.2   411  GLY411     -0.2866
     57  N         78.0450   47.4980  -20.9760 N.3   420  ALA420     -0.1245
     58  CA        77.3010   46.2730  -21.2370 C.3   420  ALA420      0.1562
     59  C         77.2310   45.9960  -22.7350 C.2   420  ALA420      0.2260
     60  O         77.4120   44.8590  -23.1670 O.2   420  ALA420     -0.2867
     61  CB        75.8950   46.3410  -20.6350 C.3   420  ALA420      0.0290
     62  N         79.8380   43.8700  -25.5450 N.3   423  VAL423     -0.1231
     63  CA        80.0340   42.4570  -25.8180 C.3   423  VAL423      0.1692
     64  C         79.2700   41.9940  -27.0550 C.2   423  VAL423      0.2591
     65  O         79.5850   40.9490  -27.6120 O.2   423  VAL423     -0.2718
     66  CB        79.6810   41.5760  -24.5910 C.3   423  VAL423      0.0266
     67  CG1       78.1710   41.5740  -24.3560 C.3   423  VAL423      0.0020
     68  CG2       80.2140   40.1610  -24.7850 C.3   423  VAL423      0.0020
     69  N         78.2940   42.7800  -27.5060 N.am  424  LEU424     -0.1980
     70  CA        77.4360   42.3360  -28.6030 C.3   424  LEU424      0.1596
     71  C         78.2380   41.9460  -29.8590 C.2   424  LEU424      0.2287
     72  O         79.0680   42.7000  -30.3690 O.2   424  LEU424     -0.2864
     73  CB        76.3460   43.3720  -28.9220 C.3   424  LEU424      0.0297
     74  CG        75.3410   43.7580  -27.8160 C.3   424  LEU424      0.0022
     75  CD1       74.1460   44.5250  -28.3950 C.3   424  LEU424      0.0001
     76  CD2       74.8510   42.5510  -27.0140 C.3   424  LEU424      0.0001
     77  N         64.9550   31.2640  -25.3910 N.3   497  ILE497     -0.1245
     78  CA        65.0990   32.6790  -25.7500 C.3   497  ILE497      0.1561
     79  C         65.8750   32.9470  -27.0410 C.2   497  ILE497      0.2260
     80  O         66.0540   34.1030  -27.4240 O.2   497  ILE497     -0.2867
     81  CB        65.7100   33.5430  -24.6050 C.3   497  ILE497      0.0252
     82  CG1       67.1920   33.2210  -24.4000 C.3   497  ILE497      0.0019
     83  CG2       64.8940   33.4130  -23.3130 C.3   497  ILE497      0.0019
     84  CD1       67.8580   34.1090  -23.3680 C.3   497  ILE497      0.0001
     85  N         65.3870   35.7680  -30.3790 N.3   500  TRP500     -0.1227
     86  CA        65.6360   37.1960  -30.1830 C.3   500  TRP500      0.1737
     87  C         67.0290   37.4320  -29.6130 C.2   500  TRP500      0.2595
     88  O         67.8080   38.2120  -30.1530 O.2   500  TRP500     -0.2718
     89  CB        64.5310   37.8920  -29.3940 C.3   500  TRP500      0.0564
     90  CG        64.2550   37.2760  -28.0890 C.ar  500  TRP500      0.0003
     91  CD1       63.3690   36.2800  -27.8270 C.ar  500  TRP500      0.0946
     92  CD2       64.8620   37.6200  -26.8420 C.ar  500  TRP500      0.0152
     93  NE1       63.3890   35.9720  -26.4880 N.ar  500  TRP500     -0.2442
     94  CE2       64.3000   36.7820  -25.8620 C.ar  500  TRP500      0.0810
     95  CE3       65.8290   38.5560  -26.4610 C.ar  500  TRP500      0.0012
     96  CZ2       64.6720   36.8480  -24.5240 C.ar  500  TRP500      0.0191
     97  CZ3       66.2010   38.6210  -25.1340 C.ar  500  TRP500      0.0001
     98  CH2       65.6230   37.7730  -24.1790 C.ar  500  TRP500      0.0015
     99  N         67.2890   36.8360  -28.4610 N.am  501  PHE501     -0.1976
    100  CA        68.5830   36.9530  -27.8080 C.3   501  PHE501      0.1639
    101  C         69.7870   36.7100  -28.7440 C.2   501  PHE501      0.2290
    102  O         70.7070   37.5320  -28.7960 O.2   501  PHE501     -0.2864
    103  CB        68.6210   35.9930  -26.6150 C.3   501  PHE501      0.0560
    104  CG        69.8990   36.0330  -25.8460 C.ar  501  PHE501     -0.0200
    105  CD1       70.0090   36.8190  -24.7060 C.ar  501  PHE501     -0.0042
    106  CD2       70.9920   35.2760  -26.2490 C.ar  501  PHE501     -0.0042
    107  CE1       71.1940   36.8570  -23.9800 C.ar  501  PHE501     -0.0003
    108  CE2       72.1770   35.3090  -25.5380 C.ar  501  PHE501     -0.0003
    109  CZ        72.2800   36.0980  -24.4010 C.ar  501  PHE501     -0.0000
    110  N         72.9430   39.3230  -29.3620 N.3   505  VAL505     -0.1245
    111  CA        74.2760   39.0330  -28.8330 C.3   505  VAL505      0.1561
    112  C         75.2970   38.3990  -29.8040 C.2   505  VAL505      0.2260
    113  O         76.4670   38.7920  -29.8160 O.2   505  VAL505     -0.2867
    114  CB        74.1850   38.2580  -27.5000 C.3   505  VAL505      0.0252
    115  CG1       75.5720   37.9020  -26.9740 C.3   505  VAL505      0.0019
    116  CG2       73.4150   39.0830  -26.4780 C.3   505  VAL505      0.0019
@<TRIPOS>BOND
     1    85    86    1
     2    72    71    2
     3    86    87    1
     4    86    89    1
     5    88    87    2
     6    71    70    1
     7   113   112    2
     8   112   111    1
     9    87    99   am
    10    89    90    1
    11   110   111    1
    12    73    70    1
    13    73    74    1
    14   111   114    1
    15   102   101    2
    16   101   100    1
    17    70    69    1
    18    99   100    1
    19    75    74    1
    20    90    91   ar
    21    90    92   ar
    22    91    93   ar
    23    74    76    1
    24   100   103    1
    25    65    64    2
    26    69    64   am
    27   114   115    1
    28   114   116    1
    29    80    79    2
    30    64    63    1
    31    79    78    1
    32    92    95   ar
    33    92    94   ar
    34   103   104    1
    35    93    94   ar
    36    95    97   ar
    37   106   104   ar
    38   106   108   ar
    39    17    16    1
    40    12    13    1
    41    94    96   ar
    42   104   105   ar
    43    63    62    1
    44    63    66    1
    45    78    77    1
    46    78    81    1
    47   108   109   ar
    48    97    98   ar
    49    18    16    1
    50    16    13    1
    51    13    14    1
    52    68    66    1
    53   105   107   ar
    54    81    82    1
    55    81    83    1
    56    66    67    1
    57    96    98   ar
    58   109   107   ar
    59    82    84    1
    60     3     4    2
    61     3     2    1
    62    24    23    1
    63    19    14   am
    64    19    20    1
    65     1     2    1
    66    23    20    1
    67    14    15    2
    68     2     5    1
    69    20    21    1
    70    60    59    2
    71     5     6    1
    72    42    43    1
    73    42    41    1
    74    59    58    1
    75     7     6   ar
    76     7     9   ar
    77    21    22    2
    78    43    37    1
    79     6     8   ar
    80     9    11   ar
    81    41    38    1
    82    58    57    1
    83    58    61    1
    84    37    38    1
    85    37    35   am
    86    54    53    1
    87    54    55    1
    88     8    10   ar
    89    38    39    1
    90    11    10   ar
    91    36    35    2
    92    35    34    1
    93    56    55    2
    94    31    30   ar
    95    39    44   am
    96    39    40    2
    97    44    45    1
    98    52    51    1
    99    48    45    1
   100    48    49    1
   101    50    49    1
   102    50    51    1
   103    34    33    1
   104    30    32   ar
   105    30    29    1
   106    45    46    1
   107    25    26    1
   108    26    29    1
   109    26    27    1
   110    46    47    2
   111    27    28    2
