@<TRIPOS>MOLECULE
tmp/4hxgF00.pdb
 124 120 0 0 0
SMALL
GASTEIGER

@<TRIPOS>ATOM
      1  N         56.9190   -3.1010   45.7650 N.3   382  GLY382     -0.1209
      2  CA        58.2050   -3.4320   45.1800 C.3   382  GLY382      0.1959
      3  C         59.3060   -2.8010   46.0060 C.2   382  GLY382      0.2652
      4  O         59.0380   -2.1090   46.9890 O.2   382  GLY382     -0.2714
      5  N         60.5550   -3.0220   45.6330 N.am  383  GLY383     -0.1718
      6  CA        61.5860   -2.7090   46.5880 C.2   383  GLY383      0.1465
      7  C         62.9680   -3.2360   46.3170 C.2   383  GLY383      0.2662
      8  O         63.3640   -3.4420   45.1760 O.2   383  GLY383     -0.2684
      9  N         63.7150   -3.4570   47.4000 N.am  384  PRO384     -0.2695
     10  CA        63.0590   -3.3550   48.7110 C.3   384  PRO384      0.1404
     11  C         62.6970   -1.9190   49.0800 C.2   384  PRO384      0.2269
     12  O         61.8060   -1.6990   49.9000 O.2   384  PRO384     -0.2865
     13  CB        64.1120   -3.9100   49.6730 C.3   384  PRO384      0.0296
     14  CG        65.0070   -4.7500   48.8130 C.3   384  PRO384      0.0237
     15  CD        65.0620   -4.0370   47.4950 C.3   384  PRO384      0.0942
     16  N         56.9840   -7.2500   41.2480 N.3   462  ALA462     -0.1231
     17  CA        58.4230   -7.1120   41.4570 C.3   462  ALA462      0.1694
     18  C         58.8630   -7.7410   42.7890 C.2   462  ALA462      0.2592
     19  O         58.6320   -8.9320   43.0250 O.2   462  ALA462     -0.2718
     20  CB        58.8210   -5.6500   41.3900 C.3   462  ALA462      0.0304
     21  N         59.5080   -6.9580   43.6530 N.am  463  TYR463     -0.1976
     22  CA        59.8990   -7.4770   44.9630 C.3   463  TYR463      0.1639
     23  C         58.6680   -8.0150   45.6700 C.2   463  TYR463      0.2290
     24  O         58.7110   -9.0920   46.2680 O.2   463  TYR463     -0.2864
     25  CB        60.5900   -6.4160   45.8250 C.3   463  TYR463      0.0560
     26  CG        61.1970   -6.9710   47.0970 C.ar  463  TYR463     -0.0198
     27  CD1       62.2510   -7.8760   47.0470 C.ar  463  TYR463     -0.0009
     28  CD2       60.7210   -6.5910   48.3470 C.ar  463  TYR463     -0.0009
     29  CE1       62.8130   -8.3880   48.2020 C.ar  463  TYR463      0.0417
     30  CE2       61.2820   -7.1030   49.5200 C.ar  463  TYR463      0.0417
     31  CZ        62.3260   -7.9990   49.4340 C.ar  463  TYR463      0.1957
     32  OH        62.8850   -8.5140   50.5790 O.3   463  TYR463     -0.2866
     33  N         60.3700  -12.5780   41.6860 N.3   487  ILE487     -0.1245
     34  CA        61.6080  -13.3430   41.7140 C.3   487  ILE487      0.1561
     35  C         61.3820  -14.6580   42.4660 C.2   487  ILE487      0.2260
     36  O         61.0010  -14.6370   43.6390 O.2   487  ILE487     -0.2867
     37  CB        62.7170  -12.5060   42.3840 C.3   487  ILE487      0.0252
     38  CG1       62.9960  -11.2650   41.5310 C.3   487  ILE487      0.0019
     39  CG2       63.9810  -13.3300   42.5830 C.3   487  ILE487      0.0019
     40  CD1       63.7840  -10.1940   42.2210 C.3   487  ILE487      0.0001
     41  N         67.2110  -16.0420   43.0490 N.3   490  TRP490     -0.1241
     42  CA        68.0710  -14.8660   43.0220 C.3   490  TRP490      0.1605
     43  C         69.2450  -14.9810   42.0660 C.2   490  TRP490      0.2264
     44  O         69.6960  -13.9790   41.5170 O.2   490  TRP490     -0.2867
     45  CB        68.5660  -14.5120   44.4200 C.3   490  TRP490      0.0550
     46  CG        67.5020  -13.9520   45.2470 C.ar  490  TRP490      0.0003
     47  CD1       66.8880  -14.5540   46.2930 C.ar  490  TRP490      0.0946
     48  CD2       66.8790  -12.6730   45.0900 C.ar  490  TRP490      0.0152
     49  NE1       65.9260  -13.7250   46.8160 N.ar  490  TRP490     -0.2442
     50  CE2       65.9020  -12.5610   46.0940 C.ar  490  TRP490      0.0810
     51  CE3       67.0600  -11.6070   44.2030 C.ar  490  TRP490      0.0012
     52  CZ2       65.1040  -11.4260   46.2390 C.ar  490  TRP490      0.0191
     53  CZ3       66.2720  -10.4810   44.3510 C.ar  490  TRP490      0.0001
     54  CH2       65.3040  -10.4000   45.3580 C.ar  490  TRP490      0.0015
     55  N         68.4730  -13.8730   38.5480 N.3   493  SER493     -0.1217
     56  CA        68.2910  -12.4300   38.6470 C.3   493  SER493      0.1889
     57  C         69.6250  -11.7030   38.5350 C.2   493  SER493      0.2288
     58  O         69.7320  -10.6770   37.8610 O.2   493  SER493     -0.2866
     59  CB        67.6440  -12.0590   39.9730 C.3   493  SER493      0.2089
     60  OG        68.1170  -10.7970   40.4120 O.3   493  SER493     -0.2183
     61  N         68.9230  -10.4490   34.7570 N.3   497  SER497     -0.1217
     62  CA        68.2190   -9.1740   34.7960 C.3   497  SER497      0.1889
     63  C         69.1400   -8.0020   34.4870 C.2   497  SER497      0.2288
     64  O         70.3620   -8.1050   34.5710 O.2   497  SER497     -0.2866
     65  CB        67.6110   -8.9500   36.1780 C.3   497  SER497      0.2089
     66  OG        68.6020   -8.5030   37.0850 O.3   497  SER497     -0.2183
     67  N         69.6950   -5.0650   35.9670 N.3   499  ILE499     -0.1231
     68  CA        70.4880   -4.4820   37.0420 C.3   499  ILE499      0.1692
     69  C         71.1400   -5.5280   37.9450 C.2   499  ILE499      0.2592
     70  O         71.8680   -5.1870   38.8780 O.2   499  ILE499     -0.2718
     71  CB        69.6540   -3.4990   37.8750 C.3   499  ILE499      0.0266
     72  CG1       68.7380   -4.2490   38.8370 C.3   499  ILE499      0.0019
     73  CG2       68.8510   -2.5850   36.9540 C.3   499  ILE499      0.0020
     74  CD1       67.9380   -3.3290   39.7290 C.3   499  ILE499      0.0001
     75  N         70.8940   -6.7990   37.6440 N.am  500  GLY500     -0.1957
     76  CA        71.3450   -7.8960   38.4820 C.3   500  GLY500      0.1869
     77  C         72.8050   -7.8950   38.9230 C.2   500  GLY500      0.2309
     78  O         73.1010   -8.2800   40.0530 O.2   500  GLY500     -0.2863
     79  N         73.0970   -4.6620   41.7350 N.3   503  PHE503     -0.1227
     80  CA        72.0290   -4.7130   42.7270 C.3   503  PHE503      0.1736
     81  C         72.0100   -6.0020   43.5710 C.2   503  PHE503      0.2595
     82  O         71.9180   -5.9310   44.7970 O.2   503  PHE503     -0.2718
     83  CB        70.6810   -4.5170   42.0300 C.3   503  PHE503      0.0547
     84  CG        69.5110   -4.4670   42.9660 C.ar  503  PHE503     -0.0202
     85  CD1       69.0220   -3.2560   43.4230 C.ar  503  PHE503     -0.0042
     86  CD2       68.8920   -5.6320   43.3810 C.ar  503  PHE503     -0.0042
     87  CE1       67.9390   -3.2100   44.2840 C.ar  503  PHE503     -0.0003
     88  CE2       67.8120   -5.5930   44.2410 C.ar  503  PHE503     -0.0003
     89  CZ        67.3350   -4.3810   44.6950 C.ar  503  PHE503     -0.0000
     90  N         72.1140   -7.1660   42.9350 N.am  504  ASP504     -0.1974
     91  CA        72.0670   -8.4360   43.6730 C.3   504  ASP504      0.1709
     92  C         73.2340   -8.6640   44.6450 C.2   504  ASP504      0.2293
     93  O         73.0420   -9.1970   45.7410 O.2   504  ASP504     -0.2864
     94  CB        71.9440   -9.6310   42.7210 C.3   504  ASP504      0.1436
     95  CG        70.5190   -9.8780   42.2810 C.2   504  ASP504      0.3671
     96  OD1       69.7930   -8.8920   42.0550 O.co2 504  ASP504     -0.2456
     97  OD2       70.1220  -11.0550   42.1680 O.co2 504  ASP504     -0.2456
     98  N         63.7920   -6.1280   34.0270 N.3   544  ARG544     -0.1231
     99  CA        64.1050   -5.9050   35.4330 C.3   544  ARG544      0.1694
    100  C         63.9940   -7.2250   36.1740 C.2   544  ARG544      0.2592
    101  O         64.8960   -7.6140   36.8990 O.2   544  ARG544     -0.2718
    102  CB        63.1570   -4.8730   36.0440 C.3   544  ARG544      0.0321
    103  CG        63.4540   -4.5480   37.4980 C.3   544  ARG544      0.0489
    104  CD        64.8870   -4.0890   37.6550 C.3   544  ARG544      0.2205
    105  NE        65.2240   -3.0870   36.6530 N.pl3 544  ARG544     -0.0865
    106  CZ        64.9650   -1.7930   36.7840 C.cat 544  ARG544      0.5346
    107  NH1       65.3000   -0.9390   35.8280 N.pl3 544  ARG544      0.1354
    108  NH2       64.3680   -1.3540   37.8780 N.pl3 544  ARG544      0.1354
    109  N         62.8750   -7.9100   35.9650 N.am  545  CYS545     -0.1970
    110  CA        62.6560   -9.2560   36.4800 C.3   545  CYS545      0.1712
    111  C         62.2160  -10.1520   35.3260 C.2   545  CYS545      0.2296
    112  O         61.0240  -10.2440   35.0250 O.2   545  CYS545     -0.2864
    113  CB        61.6050   -9.2510   37.5930 C.3   545  CYS545      0.0983
    114  SG        62.1090   -8.3330   39.0620 S.3   545  CYS545     -0.0798
    115  N         58.4400   -4.1800   32.7390 N.3   574  HIS574     -0.1241
    116  CA        58.2540   -4.3610   34.1800 C.3   574  HIS574      0.1621
    117  C         57.0130   -3.6220   34.6910 C.2   574  HIS574      0.2264
    118  O         56.2660   -4.1580   35.5100 O.2   574  HIS574     -0.2867
    119  CB        59.5030   -3.8430   34.9060 C.3   574  HIS574      0.0745
    120  CG        59.6340   -4.2900   36.3330 C.ar  574  HIS574      0.0817
    121  ND1       59.6370   -5.6170   36.7080 N.ar  574  HIS574     -0.2268
    122  CD2       59.8150   -3.5790   37.4730 C.ar  574  HIS574      0.1154
    123  CE1       59.7940   -5.7030   38.0180 C.ar  574  HIS574      0.1986
    124  NE2       59.9050   -4.4810   38.5060 N.ar  574  HIS574     -0.2212
@<TRIPOS>BOND
     1   115   116    1
     2    98    99    1
     3   116   117    1
     4   116   119    1
     5    63    64    2
     6    63    62    1
     7   117   118    2
     8    61    62    1
     9    62    65    1
    10   119   120    1
    11   112   111    2
    12   111   110    1
    13    99   102    1
    14    99   100    1
    15   107   106    1
    16   109   100   am
    17   109   110    1
    18    67    68    1
    19   102   103    1
    20   100   101    2
    21    65    66    1
    22   120   121   ar
    23   120   122   ar
    24   110   113    1
    25   105   106    2
    26   105   104    1
    27   121   123   ar
    28   106   108    1
    29    73    71    1
    30    68    71    1
    31    68    69    1
    32   122   124   ar
    33   103   104    1
    34   113   114    1
    35    75    69   am
    36    75    76    1
    37    58    57    2
    38    71    72    1
    39    69    70    2
    40   123   124   ar
    41    76    77    1
    42    57    56    1
    43    55    56    1
    44    56    59    1
    45    72    74    1
    46    77    78    2
    47    59    60    1
    48    16    17    1
    49    20    17    1
    50    17    18    1
    51    44    43    2
    52    38    40    1
    53    38    37    1
    54    33    34    1
    55    34    37    1
    56    34    35    1
    57    79    80    1
    58    83    80    1
    59    83    84    1
    60    96    95   ar
    61    43    42    1
    62    97    95   ar
    63    95    94    1
    64    37    39    1
    65    35    36    2
    66    94    91    1
    67    80    81    1
    68    18    19    2
    69    18    21   am
    70    90    81   am
    71    90    91    1
    72    84    86   ar
    73    84    85   ar
    74    42    41    1
    75    42    45    1
    76    86    88   ar
    77    85    87   ar
    78    81    82    2
    79    21    22    1
    80    91    92    1
    81    51    53   ar
    82    51    48   ar
    83    88    89   ar
    84    87    89   ar
    85    53    54   ar
    86    45    46    1
    87    92    93    2
    88    22    23    1
    89    22    25    1
    90    48    46   ar
    91    48    50   ar
    92     8     7    2
    93     2     1    1
    94     2     3    1
    95    46    47   ar
    96    54    52   ar
    97     5     3    1
    98     5     6    2
    99    23    24    2
   100    25    26    1
   101     3     4    2
   102    50    52   ar
   103    50    49   ar
   104    47    49   ar
   105     7     6    1
   106     7     9   am
   107    27    26   ar
   108    27    29   ar
   109    26    28   ar
   110     9    15    1
   111     9    10    1
   112    15    14    1
   113    29    31   ar
   114    28    30   ar
   115    10    11    1
   116    10    13    1
   117    14    13    1
   118    11    12    2
   119    31    30   ar
   120    31    32    1
