@<TRIPOS>MOLECULE
tmp/4hxkA00.pdb
 133 129 0 0 0
SMALL
GASTEIGER

@<TRIPOS>ATOM
      1  N         -2.3680   -0.3780   -0.7320 N.3    39  TRP39      -0.1228
      2  CA        -2.0740   -1.6380   -1.3940 C.3    39  TRP39       0.1722
      3  C         -3.2520   -2.4950   -1.7800 C.2    39  TRP39       0.2437
      4  O         -3.1850   -3.2120   -2.8070 O.2    39  TRP39      -0.2733
      5  CB        -0.9970   -2.4240   -0.5360 C.3    39  TRP39       0.0563
      6  CG        -1.4690   -2.7790    0.8540 C.ar   39  TRP39       0.0003
      7  CD1       -1.2360   -2.0880    1.9990 C.ar   39  TRP39       0.0946
      8  CD2       -2.3480   -3.9110    1.2490 C.ar   39  TRP39       0.0152
      9  NE1       -1.9030   -2.6630    3.0800 N.ar   39  TRP39      -0.2442
     10  CE2       -2.5840   -3.7810    2.6680 C.ar   39  TRP39       0.0810
     11  CE3       -2.9820   -4.9750    0.5510 C.ar   39  TRP39       0.0012
     12  CZ2       -3.3840   -4.6880    3.3610 C.ar   39  TRP39       0.0191
     13  CZ3       -3.7030   -5.9320    1.2700 C.ar   39  TRP39       0.0001
     14  CH2       -3.9070   -5.7940    2.6320 C.ar   39  TRP39       0.0015
     15  N         -4.3680   -2.4930   -0.9900 N.am   40  PRO40      -0.2718
     16  CA        -5.4940   -3.2970   -1.4140 C.3    40  PRO40       0.1535
     17  C         -6.1370   -2.8230   -2.7110 C.2    40  PRO40       0.2598
     18  O         -6.8170   -3.6020   -3.3630 O.2    40  PRO40      -0.2715
     19  CB        -6.5160   -3.1890   -0.2680 C.3    40  PRO40       0.0310
     20  CG        -5.6710   -2.6950    0.8910 C.3    40  PRO40       0.0237
     21  CD        -4.5810   -1.7840    0.2870 C.3    40  PRO40       0.0939
     22  N         -5.8540   -1.5850   -3.1070 N.am   41  PHE41      -0.1974
     23  CA        -6.5540   -0.9160   -4.1870 C.3    41  PHE41       0.1639
     24  C         -5.6760   -0.7860   -5.4300 C.2    41  PHE41       0.2290
     25  O         -6.0690   -0.1430   -6.3850 O.2    41  PHE41      -0.2864
     26  CB        -6.9990    0.4560   -3.6970 C.3    41  PHE41       0.0560
     27  CG        -7.8320    0.3710   -2.4630 C.ar   41  PHE41      -0.0200
     28  CD1       -9.1700   -0.0180   -2.5260 C.ar   41  PHE41      -0.0042
     29  CD2       -7.2710    0.6070   -1.2140 C.ar   41  PHE41      -0.0042
     30  CE1       -9.9820   -0.1860   -1.3880 C.ar   41  PHE41      -0.0003
     31  CE2       -8.0680    0.4640   -0.0660 C.ar   41  PHE41      -0.0003
     32  CZ        -9.4180    0.0810   -0.1380 C.ar   41  PHE41      -0.0000
     33  N         -9.4200   -6.7610   -7.3600 N.3    45  VAL45      -0.1245
     34  CA        -9.5980   -7.7180   -6.2490 C.3    45  VAL45       0.1561
     35  C         -9.4750   -9.1230   -6.8100 C.2    45  VAL45       0.2260
     36  O        -10.1370   -9.4880   -7.7770 O.2    45  VAL45      -0.2867
     37  CB       -10.9140   -7.5510   -5.5950 C.3    45  VAL45       0.0252
     38  CG1      -11.1950   -8.7180   -4.6240 C.3    45  VAL45       0.0019
     39  CG2      -10.9710   -6.2160   -4.8640 C.3    45  VAL45       0.0019
     40  N         -7.5160  -14.2790   -2.6960 N.3    50  LEU50      -0.1245
     41  CA        -7.9830  -13.7760   -1.3980 C.3    50  LEU50       0.1561
     42  C         -9.0660  -14.6000   -0.7390 C.2    50  LEU50       0.2260
     43  O         -9.5830  -14.2200    0.2930 O.2    50  LEU50      -0.2867
     44  CB        -8.4890  -12.2920   -1.3960 C.3    50  LEU50       0.0270
     45  CG        -7.4970  -11.1670   -1.7280 C.3    50  LEU50       0.0019
     46  CD1       -8.2440   -9.8750   -2.0490 C.3    50  LEU50       0.0001
     47  CD2       -6.4450  -10.9100   -0.6560 C.3    50  LEU50       0.0001
     48  N        -12.2110  -15.0740   -1.6340 N.3    52  LEU52      -0.1245
     49  CA       -13.4360  -14.2810   -1.5710 C.3    52  LEU52       0.1561
     50  C        -14.3490  -14.6570   -2.7440 C.2    52  LEU52       0.2260
     51  O        -14.5360  -13.8760   -3.6780 O.2    52  LEU52      -0.2867
     52  CB       -13.0590  -12.8020   -1.6770 C.3    52  LEU52       0.0270
     53  CG       -12.0710  -12.2820   -0.6440 C.3    52  LEU52       0.0019
     54  CD1      -11.5040  -10.9040   -1.0640 C.3    52  LEU52       0.0001
     55  CD2      -12.7540  -12.1940    0.7640 C.3    52  LEU52       0.0001
     56  N        -17.1200  -12.2320   -3.7820 N.3    55  TYR55      -0.1241
     57  CA       -16.8720  -10.7490   -4.0900 C.3    55  TYR55       0.1605
     58  C        -17.5800  -10.3310   -5.3780 C.2    55  TYR55       0.2264
     59  O        -18.2820   -9.3610   -5.3640 O.2    55  TYR55      -0.2867
     60  CB       -15.3690  -10.4860   -4.2490 C.3    55  TYR55       0.0534
     61  CG       -15.1380   -9.0140   -4.3590 C.ar   55  TYR55      -0.0201
     62  CD1      -15.2140   -8.2010   -3.2480 C.ar   55  TYR55      -0.0009
     63  CD2      -14.8020   -8.5120   -5.5760 C.ar   55  TYR55      -0.0009
     64  CE1      -15.0190   -6.8010   -3.3690 C.ar   55  TYR55       0.0417
     65  CE2      -14.6210   -7.1410   -5.7230 C.ar   55  TYR55       0.0417
     66  CZ       -14.6900   -6.3280   -4.5810 C.ar   55  TYR55       0.1957
     67  OH       -14.5300   -4.9310   -4.7440 O.3    55  TYR55      -0.2866
     68  N        -13.6380   -1.8350   -9.8230 N.3    63  MET63      -0.1230
     69  CA       -12.6560   -0.8140  -10.1910 C.3    63  MET63       0.1702
     70  C        -11.4990   -0.8010   -9.1740 C.2    63  MET63       0.2592
     71  O        -11.6640   -1.0880   -8.0040 O.2    63  MET63      -0.2718
     72  CB       -13.3640    0.5620  -10.2740 C.3    63  MET63       0.0401
     73  CG       -12.4170    1.6150  -10.8980 C.3    63  MET63       0.0596
     74  SD       -11.6170    1.2630  -12.4790 S.3    63  MET63      -0.1393
     75  CE       -13.0430    0.7960  -13.4560 C.3    63  MET63       0.0692
     76  N        -10.3090   -0.4700   -9.6560 N.am   64  ASP64      -0.1974
     77  CA        -9.1020   -0.4020   -8.7940 C.3    64  ASP64       0.1709
     78  C         -8.1610    0.6630   -9.3550 C.2    64  ASP64       0.2293
     79  O         -8.2950    1.0730  -10.5070 O.2    64  ASP64      -0.2864
     80  CB        -8.4290   -1.7460   -8.7640 C.3    64  ASP64       0.1436
     81  CG        -7.9000   -2.1320  -10.1210 C.2    64  ASP64       0.3671
     82  OD1       -8.7410   -2.6090  -10.9680 O.co2  64  ASP64      -0.2456
     83  OD2       -6.7150   -1.8940  -10.3620 O.co2  64  ASP64      -0.2456
     84  N        -14.6140    2.6900   -7.1190 N.3    90  MET90      -0.1245
     85  CA       -13.6530    1.8880   -6.3280 C.3    90  MET90       0.1570
     86  C        -13.9350    2.0140   -4.8350 C.2    90  MET90       0.2261
     87  O        -14.0260    0.9880   -4.1400 O.2    90  MET90      -0.2867
     88  CB       -12.2470    2.3220   -6.6530 C.3    90  MET90       0.0387
     89  CG       -11.1890    1.6840   -5.7730 C.3    90  MET90       0.0595
     90  SD        -9.5510    2.2810   -6.0800 S.3    90  MET90      -0.1393
     91  CE        -9.5650    3.8500   -5.2830 C.3    90  MET90       0.0692
     92  N        -17.4440    0.4490   -3.9560 N.3    93  ASN93      -0.1225
     93  CA       -17.4290   -1.0520   -3.9580 C.3    93  ASN93       0.1785
     94  C        -16.9400   -1.5910   -2.6430 C.2    93  ASN93       0.2597
     95  O        -17.4640   -2.5730   -2.1120 O.2    93  ASN93      -0.2718
     96  CB       -16.5890   -1.6320   -5.0600 C.3    93  ASN93       0.1169
     97  CG       -17.1610   -1.3600   -6.3990 C.2    93  ASN93       0.2627
     98  OD1      -18.3840   -1.1570   -6.4820 O.2    93  ASN93      -0.2716
     99  ND2      -16.3740   -1.5530   -7.4300 N.am   93  ASN93      -0.0877
    100  N        -15.9010   -0.9810   -2.0850 N.am   94  CYS94      -0.1970
    101  CA       -15.3700   -1.4100   -0.8190 C.3    94  CYS94       0.1712
    102  C        -16.4140   -1.2450    0.2790 C.2    94  CYS94       0.2296
    103  O        -16.5610   -2.1480    1.0910 O.2    94  CYS94      -0.2864
    104  CB       -14.1410   -0.5570   -0.5400 C.3    94  CYS94       0.0983
    105  SG       -13.2140   -1.1610    0.9170 S.3    94  CYS94      -0.0798
    106  N        -19.2190   -4.1180   -0.1800 N.3    97  TYR97      -0.1227
    107  CA       -18.7980   -5.5280    0.1070 C.3    97  TYR97       0.1736
    108  C        -18.5430   -5.6760    1.6240 C.2    97  TYR97       0.2595
    109  O        -18.7790   -6.8000    2.1740 O.2    97  TYR97      -0.2718
    110  CB       -17.5710   -5.9150   -0.6650 C.3    97  TYR97       0.0548
    111  CG       -17.2170   -7.3830   -0.4090 C.ar   97  TYR97      -0.0200
    112  CD1      -18.0840   -8.3870   -0.8300 C.ar   97  TYR97      -0.0009
    113  CD2      -16.0510   -7.7100    0.2980 C.ar   97  TYR97      -0.0009
    114  CE1      -17.7760   -9.7120   -0.5560 C.ar   97  TYR97       0.0417
    115  CE2      -15.6890   -9.0400    0.6000 C.ar   97  TYR97       0.0417
    116  CZ       -16.5660  -10.0170    0.1570 C.ar   97  TYR97       0.1957
    117  OH       -16.2620  -11.2960    0.4590 O.3    97  TYR97      -0.2866
    118  N        -18.1710   -4.6000    2.3290 N.am   98  ASN98      -0.1974
    119  CA       -17.6560   -4.6750    3.7030 C.3    98  ASN98       0.1688
    120  C        -18.5210   -3.8290    4.6150 C.2    98  ASN98       0.2292
    121  O        -19.4070   -3.0920    4.1540 O.2    98  ASN98      -0.2864
    122  CB       -16.2020   -4.2430    3.7770 C.3    98  ASN98       0.1181
    123  CG       -15.3220   -5.0870    2.8570 C.2    98  ASN98       0.2629
    124  OD1      -15.0510   -6.2500    3.1280 O.2    98  ASN98      -0.2716
    125  ND2      -14.8790   -4.4920    1.7560 N.am   98  ASN98      -0.0877
    126  N        -10.4800   -3.0210    6.0820 N.3   104  ILE104     -0.1245
    127  CA       -10.4020   -2.5910    4.6910 C.3   104  ILE104      0.1561
    128  C        -11.1850   -1.2820    4.4730 C.2   104  ILE104      0.2260
    129  O        -10.7890   -0.4140    3.7300 O.2   104  ILE104     -0.2867
    130  CB       -10.8170   -3.7420    3.7340 C.3   104  ILE104      0.0252
    131  CG1      -10.6110   -3.3290    2.2880 C.3   104  ILE104      0.0019
    132  CG2      -12.3180   -4.0190    3.9060 C.3   104  ILE104      0.0019
    133  CD1       -9.1550   -3.2950    1.9670 C.3   104  ILE104      0.0001
@<TRIPOS>BOND
     1    75    74    1
     2    74    73    1
     3    82    81   ar
     4    73    72    1
     5    79    78    2
     6    83    81   ar
     7    72    69    1
     8    69    68    1
     9    69    70    1
    10    81    80    1
    11    76    70   am
    12    76    77    1
    13    78    77    1
    14    70    71    2
    15    77    80    1
    16    36    35    2
    17    99    97   am
    18    33    34    1
    19    84    85    1
    20    35    34    1
    21    88    85    1
    22    88    89    1
    23    98    97    2
    24    97    96    1
    25    25    24    2
    26    85    86    1
    27    34    37    1
    28    90    89    1
    29    90    91    1
    30    65    63   ar
    31    65    66   ar
    32    37    39    1
    33    37    38    1
    34    63    61   ar
    35    24    23    1
    36    58    59    2
    37    58    57    1
    38    96    93    1
    39    86    87    2
    40    67    66    1
    41    66    64   ar
    42    61    60    1
    43    61    62   ar
    44    60    57    1
    45    23    26    1
    46    23    22    1
    47    57    56    1
    48    93    92    1
    49    93    94    1
    50    26    27    1
    51    51    50    2
    52    64    62   ar
    53    18    17    2
    54    22    17   am
    55     4     3    2
    56    50    49    1
    57    17    16    1
    58    40    41    1
    59    94    95    2
    60    94   100   am
    61    28    27   ar
    62    28    30   ar
    63    27    29   ar
    64   100   101    1
    65    46    45    1
    66     3     2    1
    67     3    15   am
    68    45    44    1
    69    45    47    1
    70    52    49    1
    71    52    53    1
    72    48    49    1
    73    16    15    1
    74    16    19    1
    75    41    44    1
    76    41    42    1
    77     2     1    1
    78     2     5    1
    79    30    32   ar
    80    29    31   ar
    81    54    53    1
    82    15    21    1
    83   112   114   ar
    84   112   111   ar
    85   101   104    1
    86   101   102    1
    87    42    43    2
    88   110   111    1
    89   110   107    1
    90    53    55    1
    91   114   116   ar
    92   104   105    1
    93     5     6    1
    94   111   113   ar
    95    19    20    1
    96   106   107    1
    97    32    31   ar
    98   107   108    1
    99   116   117    1
   100   116   115   ar
   101   102   103    2
   102    21    20    1
   103   113   115   ar
   104    11     8   ar
   105    11    13   ar
   106     6     8   ar
   107     6     7   ar
   108     8    10   ar
   109    13    14   ar
   110   108   109    2
   111   108   118   am
   112   125   123   am
   113   133   131    1
   114     7     9   ar
   115   131   130    1
   116   118   119    1
   117    14    12   ar
   118    10     9   ar
   119    10    12   ar
   120   123   124    2
   121   123   122    1
   122   119   122    1
   123   119   120    1
   124   129   128    2
   125   130   132    1
   126   130   127    1
   127   121   120    2
   128   128   127    1
   129   127   126    1
