@<TRIPOS>MOLECULE
tmp/4hxlA00.pdb
 144 141 0 0 0
SMALL
GASTEIGER

@<TRIPOS>ATOM
      1  N         -1.9410   -0.3300   -0.8810 N.3    39  TRP39      -0.1228
      2  CA        -1.6520   -1.6390   -1.4660 C.3    39  TRP39       0.1722
      3  C         -2.8470   -2.5540   -1.8360 C.2    39  TRP39       0.2437
      4  O         -2.7860   -3.2320   -2.8570 O.2    39  TRP39      -0.2733
      5  CB        -0.5830   -2.4020   -0.6500 C.3    39  TRP39       0.0563
      6  CG        -0.9510   -2.6570    0.7770 C.ar   39  TRP39       0.0003
      7  CD1       -0.6210   -1.8920    1.8570 C.ar   39  TRP39       0.0946
      8  CD2       -1.7000   -3.7680    1.2860 C.ar   39  TRP39       0.0152
      9  NE1       -1.1200   -2.4550    3.0060 N.ar   39  TRP39      -0.2442
     10  CE2       -1.8010   -3.6010    2.6810 C.ar   39  TRP39       0.0810
     11  CE3       -2.3180   -4.8800    0.6940 C.ar   39  TRP39       0.0012
     12  CZ2       -2.4800   -4.5090    3.4970 C.ar   39  TRP39       0.0191
     13  CZ3       -2.9930   -5.7810    1.5070 C.ar   39  TRP39       0.0001
     14  CH2       -3.0680   -5.5910    2.8930 C.ar   39  TRP39       0.0015
     15  N         -3.9370   -2.5680   -1.0410 N.am   40  PRO40      -0.2718
     16  CA        -5.0370   -3.4480   -1.4650 C.3    40  PRO40       0.1535
     17  C         -5.7070   -2.9850   -2.7600 C.2    40  PRO40       0.2599
     18  O         -6.4450   -3.7520   -3.3910 O.2    40  PRO40      -0.2715
     19  CB        -6.0400   -3.3390   -0.3090 C.3    40  PRO40       0.0310
     20  CG        -5.2340   -2.8850    0.8570 C.3    40  PRO40       0.0237
     21  CD        -4.2250   -1.9450    0.2630 C.3    40  PRO40       0.0939
     22  N         -5.4390   -1.7420   -3.1500 N.am   41  PHE41      -0.1960
     23  CA        -6.1680   -1.0960   -4.2270 C.3    41  PHE41       0.1771
     24  C         -5.3040   -0.8550   -5.4580 C.2    41  PHE41       0.2619
     25  O         -5.7320   -0.1730   -6.3870 O.2    41  PHE41      -0.2715
     26  CB        -6.7440    0.2270   -3.7130 C.3    41  PHE41       0.0574
     27  CG        -7.5620    0.0640   -2.4770 C.ar   41  PHE41      -0.0200
     28  CD1       -8.8450   -0.4550   -2.5520 C.ar   41  PHE41      -0.0042
     29  CD2       -7.0370    0.3820   -1.2300 C.ar   41  PHE41      -0.0042
     30  CE1       -9.6030   -0.6430   -1.4090 C.ar   41  PHE41      -0.0003
     31  CE2       -7.7950    0.2010   -0.0790 C.ar   41  PHE41      -0.0003
     32  CZ        -9.0800   -0.3130   -0.1720 C.ar   41  PHE41      -0.0000
     33  N         -4.0990   -1.4220   -5.4760 N.am   42  GLN42      -0.1963
     34  CA        -3.1540   -1.1750   -6.5730 C.3    42  GLN42       0.1733
     35  C         -3.3000   -2.1200   -7.7680 C.2    42  GLN42       0.2616
     36  O         -2.6000   -1.9770   -8.7720 O.2    42  GLN42      -0.2715
     37  CB        -1.7120   -1.1900   -6.0570 C.3    42  GLN42       0.0408
     38  CG        -1.3780   -0.0090   -5.1650 C.3    42  GLN42       0.0908
     39  CD        -0.0130   -0.1180   -4.5330 C.2    42  GLN42       0.2608
     40  OE1        0.5240   -1.2150   -4.3660 O.2    42  GLN42      -0.2717
     41  NE2        0.5630    1.0260   -4.1730 N.am   42  GLN42      -0.0878
     42  N         -4.2220   -3.0700   -7.6690 N.am   43  GLN43      -0.1977
     43  CA        -4.4420   -4.0450   -8.7370 C.3    43  GLN43       0.1601
     44  C         -5.8500   -4.5950   -8.5950 C.2    43  GLN43       0.2287
     45  O         -6.4470   -4.4840   -7.5250 O.2    43  GLN43      -0.2864
     46  CB        -3.4420   -5.2010   -8.6180 C.3    43  GLN43       0.0394
     47  CG        -3.5320   -5.9500   -7.2980 C.3    43  GLN43       0.0908
     48  CD        -2.8480   -5.2030   -6.1710 C.2    43  GLN43       0.2608
     49  OE1       -1.7300   -4.7130   -6.3340 O.2    43  GLN43      -0.2717
     50  NE2       -3.5320   -5.0760   -5.0410 N.am   43  GLN43      -0.0878
     51  N         -8.8270   -7.0040   -7.7630 N.3    45  VAL45      -0.1245
     52  CA        -9.0010   -8.0730   -6.7970 C.3    45  VAL45       0.1561
     53  C         -8.8630   -9.4250   -7.4920 C.2    45  VAL45       0.2260
     54  O         -9.5580   -9.7140   -8.4740 O.2    45  VAL45      -0.2867
     55  CB       -10.3720   -7.9790   -6.1130 C.3    45  VAL45       0.0252
     56  CG1      -10.6780   -9.2620   -5.3420 C.3    45  VAL45       0.0019
     57  CG2      -10.4250   -6.7510   -5.2020 C.3    45  VAL45       0.0019
     58  N         -6.4230  -15.7630   -5.5290 N.3    49  LYS49      -0.1231
     59  CA        -5.2930  -15.4730   -4.6500 C.3    49  LYS49       0.1693
     60  C         -5.7670  -15.1160   -3.2470 C.2    49  LYS49       0.2591
     61  O         -5.2730  -15.6620   -2.2530 O.2    49  LYS49      -0.2718
     62  CB        -4.4730  -14.3120   -5.2200 C.3    49  LYS49       0.0285
     63  CG        -3.3400  -13.8100   -4.3190 C.3    49  LYS49       0.0035
     64  CD        -2.1280  -14.7210   -4.3520 C.3    49  LYS49       0.0206
     65  CE        -0.8640  -13.9980   -3.8690 C.3    49  LYS49       0.1093
     66  NZ        -0.9280  -13.5450   -2.4500 N.3    49  LYS49      -0.1314
     67  N         -6.7400  -14.2110   -3.1830 N.am   50  LEU50      -0.1980
     68  CA        -7.2110  -13.6360   -1.9210 C.3    50  LEU50       0.1596
     69  C         -8.2700  -14.4850   -1.2280 C.2    50  LEU50       0.2287
     70  O         -8.6820  -14.1680   -0.1110 O.2    50  LEU50      -0.2864
     71  CB        -7.7730  -12.2290   -2.1600 C.3    50  LEU50       0.0297
     72  CG        -6.7770  -11.2460   -2.7620 C.3    50  LEU50       0.0022
     73  CD1       -7.3990   -9.8600   -2.9170 C.3    50  LEU50       0.0001
     74  CD2       -5.5110  -11.2070   -1.9210 C.3    50  LEU50       0.0001
     75  N        -11.4820  -14.9480   -2.0530 N.3    52  LEU52      -0.1245
     76  CA       -12.7260  -14.1850   -1.9810 C.3    52  LEU52       0.1561
     77  C        -13.6170  -14.6850   -3.1030 C.2    52  LEU52       0.2260
     78  O        -13.8680  -13.9610   -4.0680 O.2    52  LEU52      -0.2867
     79  CB       -12.4420  -12.6940   -2.1670 C.3    52  LEU52       0.0270
     80  CG       -11.4470  -12.0760   -1.1810 C.3    52  LEU52       0.0019
     81  CD1      -11.1530  -10.6210   -1.5240 C.3    52  LEU52       0.0001
     82  CD2      -12.0020  -12.1860    0.2170 C.3    52  LEU52       0.0001
     83  N        -16.3070  -12.4660   -4.5520 N.3    55  TYR55      -0.1241
     84  CA       -16.0090  -11.0610   -4.8240 C.3    55  TYR55       0.1605
     85  C        -16.7710  -10.5390   -6.0280 C.2    55  TYR55       0.2264
     86  O        -17.4450   -9.5080   -5.9460 O.2    55  TYR55      -0.2867
     87  CB       -14.5120  -10.7720   -4.9900 C.3    55  TYR55       0.0534
     88  CG       -14.3010   -9.2710   -5.0820 C.ar   55  TYR55      -0.0201
     89  CD1      -14.3080   -8.4860   -3.9350 C.ar   55  TYR55      -0.0009
     90  CD2      -14.1770   -8.6360   -6.3140 C.ar   55  TYR55      -0.0009
     91  CE1      -14.1610   -7.1140   -4.0040 C.ar   55  TYR55       0.0417
     92  CE2      -14.0340   -7.2540   -6.3980 C.ar   55  TYR55       0.0417
     93  CZ       -14.0270   -6.5020   -5.2330 C.ar   55  TYR55       0.1957
     94  OH       -13.8900   -5.1340   -5.3070 O.3    55  TYR55      -0.2866
     95  N        -15.5190   -1.1070   -2.1610 N.3    94  CYS94      -0.1235
     96  CA       -14.9460   -1.5840   -0.9200 C.3    94  CYS94       0.1677
     97  C        -15.9910   -1.5530    0.1990 C.2    94  CYS94       0.2270
     98  O        -16.1080   -2.5080    0.9810 O.2    94  CYS94      -0.2867
     99  CB       -13.7090   -0.7610   -0.5570 C.3    94  CYS94       0.0956
    100  SG       -12.8170   -1.3990    0.8630 S.3    94  CYS94      -0.0801
    101  N        -18.5530   -4.4380   -0.5710 N.3    97  TYR97      -0.1227
    102  CA       -18.1320   -5.8310   -0.4220 C.3    97  TYR97       0.1736
    103  C        -17.8760   -6.2150    1.0320 C.2    97  TYR97       0.2595
    104  O        -17.9550   -7.3950    1.3980 O.2    97  TYR97      -0.2718
    105  CB       -16.8990   -6.1560   -1.2860 C.3    97  TYR97       0.0548
    106  CG       -16.4870   -7.6020   -1.1220 C.ar   97  TYR97      -0.0200
    107  CD1      -17.2880   -8.6230   -1.6110 C.ar   97  TYR97      -0.0009
    108  CD2      -15.3310   -7.9500   -0.4380 C.ar   97  TYR97      -0.0009
    109  CE1      -16.9490   -9.9570   -1.4310 C.ar   97  TYR97       0.0417
    110  CE2      -14.9830   -9.2730   -0.2580 C.ar   97  TYR97       0.0417
    111  CZ       -15.7950  -10.2720   -0.7560 C.ar   97  TYR97       0.1957
    112  OH       -15.4510  -11.5920   -0.5690 O.3    97  TYR97      -0.2866
    113  N        -17.5790   -5.2150    1.8550 N.am   98  ASN98      -0.1974
    114  CA       -17.1910   -5.4540    3.2310 C.3    98  ASN98       0.1688
    115  C        -18.2540   -4.9330    4.1870 C.2    98  ASN98       0.2292
    116  O        -19.4400   -4.9810    3.8620 O.2    98  ASN98      -0.2864
    117  CB       -15.8030   -4.8700    3.4680 C.3    98  ASN98       0.1181
    118  CG       -14.7750   -5.4570    2.5060 C.2    98  ASN98       0.2629
    119  OD1      -14.3600   -6.6080    2.6610 O.2    98  ASN98      -0.2716
    120  ND2      -14.3880   -4.6860    1.4900 N.am   98  ASN98      -0.0877
    121  N        -10.9780   -3.4690    8.7940 N.3   103  ASP103     -0.1225
    122  CA        -9.6770   -2.8910    8.4740 C.3   103  ASP103      0.1805
    123  C         -9.6140   -2.4300    7.0130 C.2   103  ASP103      0.2597
    124  O         -9.1550   -1.3290    6.7220 O.2   103  ASP103     -0.2718
    125  CB        -8.5280   -3.8710    8.7790 C.3   103  ASP103      0.1424
    126  CG        -8.1380   -3.8830   10.2530 C.2   103  ASP103      0.3668
    127  OD1       -8.7070   -3.0900   11.0310 O.co2 103  ASP103     -0.2456
    128  OD2       -7.2430   -4.6690   10.6210 O.co2 103  ASP103     -0.2456
    129  N        -10.1020   -3.2570    6.0940 N.am  104  ILE104     -0.1980
    130  CA       -10.0550   -2.8910    4.6780 C.3   104  ILE104      0.1595
    131  C        -10.8670   -1.6240    4.4080 C.2   104  ILE104      0.2287
    132  O        -10.4740   -0.7870    3.5950 O.2   104  ILE104     -0.2864
    133  CB       -10.5050   -4.0590    3.7660 C.3   104  ILE104      0.0276
    134  CG1      -10.3020   -3.7060    2.2920 C.3   104  ILE104      0.0022
    135  CG2      -11.9480   -4.4370    4.0380 C.3   104  ILE104      0.0022
    136  CD1       -8.8550   -3.6400    1.8750 C.3   104  ILE104      0.0001
    137  N         -9.0780    1.4520    5.5780 N.3   107  MET107     -0.1245
    138  CA        -8.0750    1.8130    4.5860 C.3   107  MET107      0.1570
    139  C         -8.6930    2.6260    3.4550 C.2   107  MET107      0.2261
    140  O         -8.2030    3.6980    3.1080 O.2   107  MET107     -0.2867
    141  CB        -7.3860    0.5580    4.0580 C.3   107  MET107      0.0387
    142  CG        -6.6200   -0.1590    5.1570 C.3   107  MET107      0.0595
    143  SD        -5.9400   -1.7480    4.6900 S.3   107  MET107     -0.1393
    144  CE        -4.4710   -1.2340    3.8500 C.3   107  MET107      0.0692
@<TRIPOS>BOND
     1    36    35    2
     2    43    46    1
     3    43    44    1
     4    43    42    1
     5    46    47    1
     6    44    45    2
     7    54    53    2
     8    35    42   am
     9    35    34    1
    10    51    52    1
    11    53    52    1
    12    47    48    1
    13    52    55    1
    14    34    37    1
    15    34    33    1
    16    92    90   ar
    17    92    93   ar
    18    25    24    2
    19    49    48    2
    20    90    88   ar
    21    48    50   am
    22    55    56    1
    23    55    57    1
    24    37    38    1
    25    85    86    2
    26    85    84    1
    27    58    59    1
    28    33    24   am
    29    24    23    1
    30    94    93    1
    31    93    91   ar
    32    62    59    1
    33    62    63    1
    34    38    39    1
    35    88    87    1
    36    88    89   ar
    37    87    84    1
    38    84    83    1
    39    59    60    1
    40    39    40    2
    41    39    41   am
    42    64    63    1
    43    64    65    1
    44    23    26    1
    45    23    22    1
    46    78    77    2
    47    91    89   ar
    48    65    66    1
    49    26    27    1
    50    18    17    2
    51    60    67   am
    52    60    61    2
    53    67    68    1
    54    22    17   am
    55    77    76    1
    56    73    72    1
    57     4     3    2
    58    72    71    1
    59    72    74    1
    60    17    16    1
    61    28    27   ar
    62    28    30   ar
    63    27    29   ar
    64    79    76    1
    65    79    80    1
    66    95    96    1
    67    71    68    1
    68    75    76    1
    69    68    69    1
    70     3     2    1
    71     3    15   am
    72   107   109   ar
    73   107   106   ar
    74    81    80    1
    75     2     1    1
    76     2     5    1
    77    16    15    1
    78    16    19    1
    79   109   111   ar
    80    30    32   ar
    81   105   106    1
    82   105   102    1
    83    29    31   ar
    84    69    70    2
    85    80    82    1
    86   106   108   ar
    87    15    21    1
    88    96    99    1
    89    96    97    1
    90   111   112    1
    91   111   110   ar
    92     5     6    1
    93   101   102    1
    94    99   100    1
    95   108   110   ar
    96   102   103    1
    97    19    20    1
    98    32    31   ar
    99    97    98    2
   100    21    20    1
   101    11     8   ar
   102    11    13   ar
   103     6     8   ar
   104     6     7   ar
   105   103   104    2
   106   103   113   am
   107     8    10   ar
   108   120   118   am
   109    13    14   ar
   110   113   114    1
   111     7     9   ar
   112   136   134    1
   113   134   133    1
   114   118   119    2
   115   118   117    1
   116    10     9   ar
   117    10    12   ar
   118    14    12   ar
   119   140   139    2
   120   114   117    1
   121   114   115    1
   122   139   138    1
   123   132   131    2
   124   133   135    1
   125   133   130    1
   126   144   143    1
   127   116   115    2
   128   141   138    1
   129   141   142    1
   130   131   130    1
   131   138   137    1
   132   130   129    1
   133   143   142    1
   134   129   123   am
   135   124   123    2
   136   123   122    1
   137   122   125    1
   138   122   121    1
   139   125   126    1
   140   126   128   ar
   141   126   127   ar
