@<TRIPOS>MOLECULE
tmp/4hxmA00.pdb
 143 139 0 0 0
SMALL
GASTEIGER

@<TRIPOS>ATOM
      1  N          1.9170   -0.3370    0.8270 N.3    39  TRP39      -0.1228
      2  CA         1.6360   -1.6590    1.3860 C.3    39  TRP39       0.1722
      3  C          2.8240   -2.5680    1.7630 C.2    39  TRP39       0.2437
      4  O          2.7290   -3.2800    2.7570 O.2    39  TRP39      -0.2733
      5  CB         0.5880   -2.4120    0.5410 C.3    39  TRP39       0.0563
      6  CG         0.9920   -2.6640   -0.8700 C.ar   39  TRP39       0.0003
      7  CD1        0.7150   -1.8810   -1.9580 C.ar   39  TRP39       0.0946
      8  CD2        1.7300   -3.7890   -1.3620 C.ar   39  TRP39       0.0152
      9  NE1        1.2440   -2.4490   -3.0940 N.ar   39  TRP39      -0.2442
     10  CE2        1.8820   -3.6150   -2.7520 C.ar   39  TRP39       0.0810
     11  CE3        2.2990   -4.9160   -0.7580 C.ar   39  TRP39       0.0012
     12  CZ2        2.5630   -4.5310   -3.5490 C.ar   39  TRP39       0.0191
     13  CZ3        2.9810   -5.8260   -1.5530 C.ar   39  TRP39       0.0001
     14  CH2        3.0980   -5.6350   -2.9350 C.ar   39  TRP39       0.0015
     15  N          3.9430   -2.5520    1.0010 N.am   40  PRO40      -0.2718
     16  CA         5.0270   -3.4490    1.4300 C.3    40  PRO40       0.1535
     17  C          5.6880   -3.0070    2.7360 C.2    40  PRO40       0.2598
     18  O          6.4170   -3.7890    3.3530 O.2    40  PRO40      -0.2715
     19  CB         6.0610   -3.3270    0.3020 C.3    40  PRO40       0.0310
     20  CG         5.2870   -2.8200   -0.8760 C.3    40  PRO40       0.0237
     21  CD         4.2620   -1.8960   -0.2780 C.3    40  PRO40       0.0939
     22  N          5.4190   -1.7710    3.1430 N.am   41  PHE41      -0.1974
     23  CA         6.1460   -1.1360    4.2260 C.3    41  PHE41       0.1639
     24  C          5.2750   -0.8870    5.4510 C.2    41  PHE41       0.2290
     25  O          5.7070   -0.2130    6.3850 O.2    41  PHE41      -0.2864
     26  CB         6.7420    0.1910    3.7320 C.3    41  PHE41       0.0560
     27  CG         7.5300    0.0470    2.4670 C.ar   41  PHE41      -0.0200
     28  CD1        8.8230   -0.4550    2.5030 C.ar   41  PHE41      -0.0042
     29  CD2        6.9730    0.3740    1.2400 C.ar   41  PHE41      -0.0042
     30  CE1        9.5520   -0.6240    1.3300 C.ar   41  PHE41      -0.0003
     31  CE2        7.6980    0.2130    0.0680 C.ar   41  PHE41      -0.0003
     32  CZ         8.9870   -0.2740    0.1120 C.ar   41  PHE41      -0.0000
     33  N          4.2220   -3.1010    7.6580 N.3    43  GLN43      -0.1245
     34  CA         4.4520   -4.1000    8.7100 C.3    43  GLN43       0.1566
     35  C          5.8770   -4.6280    8.5900 C.2    43  GLN43       0.2260
     36  O          6.5000   -4.4890    7.5270 O.2    43  GLN43      -0.2867
     37  CB         3.4700   -5.2670    8.5520 C.3    43  GLN43       0.0367
     38  CG         3.5690   -5.9890    7.2100 C.3    43  GLN43       0.0905
     39  CD         2.9290   -5.1990    6.0760 C.2    43  GLN43       0.2608
     40  OE1        1.7700   -4.7910    6.1720 O.2    43  GLN43      -0.2717
     41  NE2        3.6860   -4.9660    5.0130 N.am   43  GLN43      -0.0878
     42  N          8.8400   -7.0850    7.8050 N.3    45  VAL45      -0.1231
     43  CA         9.0040   -8.1750    6.8560 C.3    45  VAL45       0.1692
     44  C          8.8470   -9.5260    7.5630 C.2    45  VAL45       0.2592
     45  O          9.5130   -9.7970    8.5660 O.2    45  VAL45      -0.2718
     46  CB        10.3840   -8.0970    6.1850 C.3    45  VAL45       0.0266
     47  CG1       10.7030   -9.4060    5.4440 C.3    45  VAL45       0.0020
     48  CG2       10.4590   -6.8860    5.2410 C.3    45  VAL45       0.0020
     49  N          7.9390  -10.3590    7.0560 N.am   46  ASP46      -0.1974
     50  CA         7.7980  -11.7270    7.5440 C.3    46  ASP46       0.1709
     51  C          8.5090  -12.6480    6.5650 C.2    46  ASP46       0.2293
     52  O          8.0020  -12.9290    5.4690 O.2    46  ASP46      -0.2864
     53  CB         6.3190  -12.0890    7.6710 C.3    46  ASP46       0.1436
     54  CG         6.0890  -13.4610    8.2920 C.2    46  ASP46       0.3671
     55  OD1        6.9410  -14.3660    8.1460 O.co2  46  ASP46      -0.2456
     56  OD2        5.0280  -13.6340    8.9230 O.co2  46  ASP46      -0.2456
     57  N          6.4710  -15.8500    5.5800 N.3    49  LYS49      -0.1231
     58  CA         5.3530  -15.5280    4.7030 C.3    49  LYS49       0.1693
     59  C          5.8240  -15.1690    3.3030 C.2    49  LYS49       0.2591
     60  O          5.3150  -15.6990    2.3050 O.2    49  LYS49      -0.2718
     61  CB         4.5620  -14.3500    5.2720 C.3    49  LYS49       0.0285
     62  CG         3.4640  -13.8210    4.3480 C.3    49  LYS49       0.0035
     63  CD         2.2400  -14.7110    4.3680 C.3    49  LYS49       0.0206
     64  CE         0.9980  -13.9780    3.8550 C.3    49  LYS49       0.1093
     65  NZ         0.9280  -13.9270    2.3730 N.3    49  LYS49      -0.1314
     66  N          6.8130  -14.2840    3.2380 N.am   50  LEU50      -0.1980
     67  CA         7.2390  -13.7020    1.9650 C.3    50  LEU50       0.1596
     68  C          8.3040  -14.5240    1.2550 C.2    50  LEU50       0.2287
     69  O          8.6900  -14.1910    0.1360 O.2    50  LEU50      -0.2864
     70  CB         7.7590  -12.2800    2.1820 C.3    50  LEU50       0.0297
     71  CG         6.7490  -11.3130    2.7960 C.3    50  LEU50       0.0022
     72  CD1        7.3580   -9.9240    2.9460 C.3    50  LEU50       0.0001
     73  CD2        5.4770  -11.2590    1.9640 C.3    50  LEU50       0.0001
     74  N         11.5040  -14.9760    2.0310 N.3    52  LEU52      -0.1245
     75  CA        12.7390  -14.2010    1.9860 C.3    52  LEU52       0.1561
     76  C         13.6270  -14.6800    3.1240 C.2    52  LEU52       0.2260
     77  O         13.8450  -13.9480    4.0950 O.2    52  LEU52      -0.2867
     78  CB        12.4240  -12.7200    2.1850 C.3    52  LEU52       0.0270
     79  CG        11.4630  -12.0920    1.1840 C.3    52  LEU52       0.0019
     80  CD1       11.1570  -10.6340    1.5360 C.3    52  LEU52       0.0001
     81  CD2       12.0650  -12.1910   -0.2020 C.3    52  LEU52       0.0001
     82  N         16.3350  -12.4470    4.6130 N.3    55  TYR55      -0.1241
     83  CA        16.0680  -11.0310    4.8580 C.3    55  TYR55       0.1605
     84  C         16.8280  -10.5110    6.0690 C.2    55  TYR55       0.2264
     85  O         17.5270   -9.4970    5.9820 O.2    55  TYR55      -0.2867
     86  CB        14.5830  -10.7260    5.0350 C.3    55  TYR55       0.0534
     87  CG        14.3620   -9.2270    5.1280 C.ar   55  TYR55      -0.0201
     88  CD1       14.3170   -8.4470    3.9820 C.ar   55  TYR55      -0.0009
     89  CD2       14.2500   -8.5950    6.3550 C.ar   55  TYR55      -0.0009
     90  CE1       14.1530   -7.0730    4.0590 C.ar   55  TYR55       0.0417
     91  CE2       14.0870   -7.2180    6.4400 C.ar   55  TYR55       0.0417
     92  CZ        14.0270   -6.4710    5.2830 C.ar   55  TYR55       0.1957
     93  OH        13.8640   -5.0990    5.3480 O.3    55  TYR55      -0.2866
     94  N         15.5250   -1.0730    2.1830 N.3    94  CYS94      -0.1235
     95  CA        14.9430   -1.5560    0.9470 C.3    94  CYS94       0.1677
     96  C         15.9790   -1.5220   -0.1730 C.2    94  CYS94       0.2270
     97  O         16.0950   -2.4650   -0.9660 O.2    94  CYS94      -0.2867
     98  CB        13.7120   -0.7320    0.5850 C.3    94  CYS94       0.0956
     99  SG        12.8290   -1.3760   -0.8430 S.3    94  CYS94      -0.0801
    100  N         18.5950   -4.4000    0.6240 N.3    97  TYR97      -0.1227
    101  CA        18.1720   -5.7820    0.4520 C.3    97  TYR97       0.1736
    102  C         17.8990   -6.1520   -1.0010 C.2    97  TYR97       0.2595
    103  O         17.9890   -7.3250   -1.3680 O.2    97  TYR97      -0.2718
    104  CB        16.9540   -6.1130    1.3210 C.3    97  TYR97       0.0548
    105  CG        16.5370   -7.5560    1.1740 C.ar   97  TYR97      -0.0200
    106  CD1       17.3190   -8.5750    1.7020 C.ar   97  TYR97      -0.0009
    107  CD2       15.3930   -7.9010    0.4770 C.ar   97  TYR97      -0.0009
    108  CE1       16.9540   -9.9180    1.5510 C.ar   97  TYR97       0.0417
    109  CE2       15.0200   -9.2310    0.3270 C.ar   97  TYR97       0.0417
    110  CZ        15.8090  -10.2270    0.8610 C.ar   97  TYR97       0.1957
    111  OH        15.4290  -11.5400    0.6930 O.3    97  TYR97      -0.2866
    112  N         17.5710   -5.1520   -1.8130 N.am   98  ASN98      -0.1974
    113  CA        17.1890   -5.3900   -3.1990 C.3    98  ASN98       0.1688
    114  C         18.2610   -4.8870   -4.1690 C.2    98  ASN98       0.2292
    115  O         19.4440   -4.9400   -3.8290 O.2    98  ASN98      -0.2864
    116  CB        15.7980   -4.8160   -3.4420 C.3    98  ASN98       0.1181
    117  CG        14.7690   -5.4330   -2.5050 C.2    98  ASN98       0.2629
    118  OD1       14.3550   -6.5760   -2.7030 O.2    98  ASN98      -0.2716
    119  ND2       14.3920   -4.7030   -1.4490 N.am   98  ASN98      -0.0877
    120  N         11.0290   -3.5450   -8.7440 N.3   103  ASP103     -0.1225
    121  CA         9.7230   -2.9350   -8.4810 C.3   103  ASP103      0.1805
    122  C          9.6200   -2.4330   -7.0360 C.2   103  ASP103      0.2597
    123  O          9.1190   -1.3440   -6.7860 O.2   103  ASP103     -0.2718
    124  CB         8.5750   -3.9130   -8.7830 C.3   103  ASP103      0.1424
    125  CG         8.1820   -3.9260  -10.2600 C.2   103  ASP103      0.3668
    126  OD1        8.7170   -3.1080  -11.0380 O.co2 103  ASP103     -0.2456
    127  OD2        7.3150   -4.7420  -10.6310 O.co2 103  ASP103     -0.2456
    128  N         10.0990   -3.2240   -6.0830 N.am  104  ILE104     -0.1980
    129  CA        10.0190   -2.8290   -4.6770 C.3   104  ILE104      0.1595
    130  C         10.8430   -1.5610   -4.4160 C.2   104  ILE104      0.2287
    131  O         10.4590   -0.7150   -3.6100 O.2   104  ILE104     -0.2864
    132  CB        10.4260   -4.0050   -3.7340 C.3   104  ILE104      0.0276
    133  CG1       10.2360   -3.6300   -2.2590 C.3   104  ILE104      0.0022
    134  CG2       11.8560   -4.4390   -3.9830 C.3   104  ILE104      0.0022
    135  CD1        8.7930   -3.5930   -1.8350 C.3   104  ILE104      0.0001
    136  N          9.0820    1.5090   -5.6420 N.3   107  MET107     -0.1245
    137  CA         8.0660    1.8850   -4.6710 C.3   107  MET107      0.1570
    138  C          8.6770    2.6880   -3.5330 C.2   107  MET107      0.2261
    139  O          8.1550    3.7340   -3.1480 O.2   107  MET107     -0.2867
    140  CB         7.3750    0.6360   -4.1320 C.3   107  MET107      0.0387
    141  CG         6.6630   -0.1060   -5.2320 C.3   107  MET107      0.0595
    142  SD         5.9900   -1.6890   -4.7230 S.3   107  MET107     -0.1393
    143  CE         4.5600   -1.1210   -3.9000 C.3   107  MET107      0.0692
@<TRIPOS>BOND
     1   126   125   ar
     2   127   125   ar
     3   125   124    1
     4   124   121    1
     5   120   121    1
     6   121   122    1
     7   122   123    2
     8   122   128   am
     9   128   129    1
    10   136   137    1
    11   141   142    1
    12   141   140    1
    13   142   143    1
    14   129   130    1
    15   129   132    1
    16   137   140    1
    17   137   138    1
    18   130   131    2
    19   114   115    2
    20   114   113    1
    21   134   132    1
    22   132   133    1
    23    12    14   ar
    24    12    10   ar
    25   138   139    2
    26   116   113    1
    27   116   117    1
    28   113   112    1
    29     9    10   ar
    30     9     7   ar
    31    14    13   ar
    32    10     8   ar
    33   118   117    2
    34   117   119   am
    35   133   135    1
    36     7     6   ar
    37   112   102   am
    38    13    11   ar
    39   103   102    2
    40     8     6   ar
    41     8    11   ar
    42   102   101    1
    43    97    96    2
    44    20    21    1
    45    20    19    1
    46     6     5    1
    47    99    98    1
    48    21    15    1
    49    81    79    1
    50    96    95    1
    51    31    32   ar
    52    31    29   ar
    53    32    30   ar
    54    69    68    2
    55    19    16    1
    56   109   107   ar
    57   109   110   ar
    58   101   100    1
    59   101   104    1
    60   107   105   ar
    61     5     2    1
    62    98    95    1
    63   111   110    1
    64     1     2    1
    65   110   108   ar
    66    95    94    1
    67    15    16    1
    68    15     3   am
    69   105   104    1
    70   105   106   ar
    71    79    80    1
    72    79    78    1
    73    29    27   ar
    74    68    67    1
    75    30    28   ar
    76     2     3    1
    77    16    17    1
    78   108   106   ar
    79     3     4    2
    80    73    71    1
    81    67    70    1
    82    67    66    1
    83    75    74    1
    84    75    78    1
    85    75    76    1
    86    70    71    1
    87    60    59    2
    88    65    64    1
    89    27    28   ar
    90    27    26    1
    91    17    22   am
    92    17    18    2
    93    71    72    1
    94    76    77    2
    95    22    23    1
    96    66    59   am
    97    59    58    1
    98    26    23    1
    99    64    63    1
   100    88    90   ar
   101    88    87   ar
   102    90    92   ar
   103    23    24    1
   104    62    63    1
   105    62    61    1
   106    82    83    1
   107    58    61    1
   108    58    57    1
   109    83    86    1
   110    83    84    1
   111    41    39   am
   112    86    87    1
   113    87    89   ar
   114    48    46    1
   115    92    93    1
   116    92    91   ar
   117    47    46    1
   118    24    25    2
   119    52    51    2
   120    85    84    2
   121    39    40    2
   122    39    38    1
   123    46    43    1
   124    89    91   ar
   125    51    50    1
   126    43    44    1
   127    43    42    1
   128    49    50    1
   129    49    44   am
   130    38    37    1
   131    36    35    2
   132    50    53    1
   133    44    45    2
   134    33    34    1
   135    53    54    1
   136    55    54   ar
   137    54    56   ar
   138    37    34    1
   139    35    34    1
