@<TRIPOS>MOLECULE
tmp/4hxnA00.pdb
 110 107 0 0 0
SMALL
GASTEIGER

@<TRIPOS>ATOM
      1  N         -2.0040    0.3910    0.8820 N.3    39  TRP39      -0.1228
      2  CA        -1.7210    1.7150    1.4480 C.3    39  TRP39       0.1722
      3  C         -2.9290    2.6080    1.8240 C.2    39  TRP39       0.2437
      4  O         -2.8650    3.3090    2.8360 O.2    39  TRP39      -0.2733
      5  CB        -0.6870    2.4810    0.5960 C.3    39  TRP39       0.0563
      6  CG        -1.1600    2.7990   -0.7850 C.ar   39  TRP39       0.0003
      7  CD1       -0.9290    2.0790   -1.9190 C.ar   39  TRP39       0.0946
      8  CD2       -1.9580    3.9200   -1.1770 C.ar   39  TRP39       0.0152
      9  NE1       -1.5390    2.6790   -3.0000 N.ar   39  TRP39      -0.2442
     10  CE2       -2.1760    3.8150   -2.5670 C.ar   39  TRP39       0.0810
     11  CE3       -2.5140    5.0030   -0.4850 C.ar   39  TRP39       0.0012
     12  CZ2       -2.9250    4.7500   -3.2760 C.ar   39  TRP39       0.0191
     13  CZ3       -3.2520    5.9340   -1.1920 C.ar   39  TRP39       0.0001
     14  CH2       -3.4530    5.8020   -2.5710 C.ar   39  TRP39       0.0015
     15  N         -4.0370    2.5850    1.0470 N.am   40  PRO40      -0.2718
     16  CA        -5.1270    3.4670    1.4850 C.3    40  PRO40       0.1535
     17  C         -5.7740    3.0140    2.7940 C.2    40  PRO40       0.2598
     18  O         -6.5120    3.7810    3.4150 O.2    40  PRO40      -0.2715
     19  CB        -6.1570    3.3450    0.3530 C.3    40  PRO40       0.0310
     20  CG        -5.3870    2.8120   -0.8320 C.3    40  PRO40       0.0237
     21  CD        -4.3620    1.9080   -0.2250 C.3    40  PRO40       0.0939
     22  N         -5.4870    1.7820    3.2000 N.am   41  PHE41      -0.1974
     23  CA        -6.2120    1.1360    4.2850 C.3    41  PHE41       0.1639
     24  C         -5.3320    0.9120    5.5060 C.2    41  PHE41       0.2290
     25  O         -5.7340    0.2160    6.4380 O.2    41  PHE41      -0.2864
     26  CB        -6.7990   -0.1970    3.7950 C.3    41  PHE41       0.0560
     27  CG        -7.5980   -0.0590    2.5270 C.ar   41  PHE41      -0.0200
     28  CD1       -8.8890    0.4460    2.5670 C.ar   41  PHE41      -0.0042
     29  CD2       -7.0450   -0.3870    1.2920 C.ar   41  PHE41      -0.0042
     30  CE1       -9.6300    0.6140    1.4030 C.ar   41  PHE41      -0.0003
     31  CE2       -7.7810   -0.2290    0.1190 C.ar   41  PHE41      -0.0003
     32  CZ        -9.0740    0.2660    0.1730 C.ar   41  PHE41      -0.0000
     33  N         -4.2690    3.1520    7.6830 N.3    43  GLN43      -0.1245
     34  CA        -4.5240    4.1270    8.7420 C.3    43  GLN43       0.1566
     35  C         -5.9530    4.6370    8.6040 C.2    43  GLN43       0.2260
     36  O         -6.5680    4.4810    7.5490 O.2    43  GLN43      -0.2867
     37  CB        -3.5390    5.3040    8.6490 C.3    43  GLN43       0.0367
     38  CG        -3.5570    6.0290    7.3180 C.3    43  GLN43       0.0905
     39  CD        -2.8200    5.2700    6.2330 C.2    43  GLN43       0.2608
     40  OE1       -1.7150    4.7760    6.4550 O.2    43  GLN43      -0.2717
     41  NE2       -3.4340    5.1640    5.0660 N.am   43  GLN43      -0.0878
     42  N         -9.0350    6.8820    7.7000 N.3    45  VAL45      -0.1245
     43  CA        -9.2480    7.9160    6.6920 C.3    45  VAL45       0.1561
     44  C         -9.1200    9.3030    7.3220 C.2    45  VAL45       0.2260
     45  O         -9.8160    9.6260    8.2830 O.2    45  VAL45      -0.2867
     46  CB       -10.6220    7.7640    6.0110 C.3    45  VAL45       0.0252
     47  CG1      -10.9170    8.9850    5.1350 C.3    45  VAL45       0.0019
     48  CG2      -10.6660    6.4760    5.1870 C.3    45  VAL45       0.0019
     49  N         -6.9990   14.1410    3.0100 N.3    50  LEU50      -0.1245
     50  CA        -7.4030   13.5830    1.7210 C.3    50  LEU50       0.1561
     51  C         -8.4960   14.3950    1.0330 C.2    50  LEU50       0.2260
     52  O         -8.9310   14.0420   -0.0650 O.2    50  LEU50      -0.2867
     53  CB        -7.8700   12.1340    1.8820 C.3    50  LEU50       0.0270
     54  CG        -6.8490   11.1580    2.4670 C.3    50  LEU50       0.0019
     55  CD1       -7.4910    9.8060    2.6970 C.3    50  LEU50       0.0001
     56  CD2       -5.6430   11.0390    1.5470 C.3    50  LEU50       0.0001
     57  N        -11.7140   14.8400    1.8440 N.3    52  LEU52      -0.1245
     58  CA       -12.9420   14.0580    1.7750 C.3    52  LEU52       0.1561
     59  C        -13.8750   14.5330    2.8880 C.2    52  LEU52       0.2260
     60  O        -14.1460   13.7900    3.8360 O.2    52  LEU52      -0.2867
     61  CB       -12.6210   12.5680    1.9610 C.3    52  LEU52       0.0270
     62  CG       -11.6130   11.9380    0.9960 C.3    52  LEU52       0.0019
     63  CD1      -11.2830   10.4880    1.3890 C.3    52  LEU52       0.0001
     64  CD2      -12.1270   12.0030   -0.4340 C.3    52  LEU52       0.0001
     65  N        -16.6880   12.2940    4.1210 N.3    55  TYR55      -0.1241
     66  CA       -16.4240   10.8830    4.4350 C.3    55  TYR55       0.1605
     67  C        -17.1800   10.4230    5.6730 C.2    55  TYR55       0.2264
     68  O        -17.8860    9.4120    5.6350 O.2    55  TYR55      -0.2867
     69  CB       -14.9280   10.5870    4.6090 C.3    55  TYR55       0.0534
     70  CG       -14.6830    9.1020    4.7630 C.ar   55  TYR55      -0.0201
     71  CD1      -14.6020    8.2820    3.6460 C.ar   55  TYR55      -0.0009
     72  CD2      -14.5950    8.5170    6.0240 C.ar   55  TYR55      -0.0009
     73  CE1      -14.4080    6.9160    3.7730 C.ar   55  TYR55       0.0417
     74  CE2      -14.4050    7.1410    6.1620 C.ar   55  TYR55       0.0417
     75  CZ       -14.3110    6.3570    5.0260 C.ar   55  TYR55       0.1957
     76  OH       -14.1290    4.9960    5.1380 O.3    55  TYR55      -0.2866
     77  N        -15.6230    1.0220    2.1610 N.3    94  CYS94      -0.1235
     78  CA       -15.0680    1.4810    0.9010 C.3    94  CYS94       0.1677
     79  C        -16.1120    1.4270   -0.2160 C.2    94  CYS94       0.2270
     80  O        -16.2330    2.3650   -1.0080 O.2    94  CYS94      -0.2867
     81  CB       -13.8280    0.6670    0.5390 C.3    94  CYS94       0.0956
     82  SG       -12.9530    1.3080   -0.9100 S.3    94  CYS94      -0.0801
     83  N        -18.8120    4.2890    0.5240 N.3    97  TYR97      -0.1227
     84  CA       -18.4200    5.6810    0.3050 C.3    97  TYR97       0.1736
     85  C        -18.1500    5.9820   -1.1620 C.2    97  TYR97       0.2595
     86  O        -18.2200    7.1390   -1.5960 O.2    97  TYR97      -0.2718
     87  CB       -17.1940    6.0650    1.1470 C.3    97  TYR97       0.0548
     88  CG       -16.7530    7.4890    0.8900 C.ar   97  TYR97      -0.0200
     89  CD1      -17.5500    8.5560    1.2820 C.ar   97  TYR97      -0.0009
     90  CD2      -15.5640    7.7640    0.2260 C.ar   97  TYR97      -0.0009
     91  CE1      -17.1710    9.8620    1.0240 C.ar   97  TYR97       0.0417
     92  CE2      -15.1750    9.0650   -0.0330 C.ar   97  TYR97       0.0417
     93  CZ       -15.9790   10.1070    0.3730 C.ar   97  TYR97       0.1957
     94  OH       -15.5950   11.4030    0.1140 O.3    97  TYR97      -0.2866
     95  N        -17.8390    4.9500   -1.9320 N.am   98  ASN98      -0.1974
     96  CA       -17.4630    5.1710   -3.3140 C.3    98  ASN98       0.1688
     97  C        -18.5050    4.6290   -4.2780 C.2    98  ASN98       0.2292
     98  O        -19.7000    4.6820   -3.9750 O.2    98  ASN98      -0.2864
     99  CB       -16.0550    4.6290   -3.5610 C.3    98  ASN98       0.1181
    100  CG       -15.0220    5.3070   -2.6710 C.2    98  ASN98       0.2629
    101  OD1      -14.6280    6.4440   -2.9240 O.2    98  ASN98      -0.2716
    102  ND2      -14.6020    4.6240   -1.6070 N.am   98  ASN98      -0.0877
    103  N        -10.2040    3.1110   -6.0490 N.3   104  ILE104     -0.1245
    104  CA       -10.1200    2.6850   -4.6540 C.3   104  ILE104      0.1561
    105  C        -10.9550    1.4270   -4.4110 C.2   104  ILE104      0.2260
    106  O        -10.5790    0.5510   -3.6180 O.2   104  ILE104     -0.2867
    107  CB       -10.5350    3.8310   -3.6900 C.3   104  ILE104      0.0252
    108  CG1      -10.1760    3.4740   -2.2480 C.3   104  ILE104      0.0019
    109  CG2      -12.0150    4.1740   -3.8380 C.3   104  ILE104      0.0019
    110  CD1       -8.7040    3.3640   -2.0380 C.3   104  ILE104      0.0001
@<TRIPOS>BOND
     1   103   104    1
     2   104   105    1
     3   104   107    1
     4   105   106    2
     5    97    98    2
     6    97    96    1
     7   109   107    1
     8   107   108    1
     9    99    96    1
    10    99   100    1
    11    96    95    1
    12    12    14   ar
    13    12    10   ar
    14     9    10   ar
    15     9     7   ar
    16   101   100    2
    17   100   102   am
    18    14    13   ar
    19    10     8   ar
    20   108   110    1
    21    95    85   am
    22     7     6   ar
    23    86    85    2
    24    13    11   ar
    25     8     6   ar
    26     8    11   ar
    27    85    84    1
    28    80    79    2
    29    82    81    1
    30    20    21    1
    31    20    19    1
    32     6     5    1
    33    64    62    1
    34    21    15    1
    35    79    78    1
    36    52    51    2
    37    92    90   ar
    38    92    93   ar
    39    94    93    1
    40    31    32   ar
    41    31    29   ar
    42    32    30   ar
    43    90    88   ar
    44    84    83    1
    45    84    87    1
    46    19    16    1
    47    93    91   ar
    48    81    78    1
    49     5     2    1
    50     1     2    1
    51    88    87    1
    52    88    89   ar
    53    78    77    1
    54    62    63    1
    55    62    61    1
    56    91    89   ar
    57    51    50    1
    58    15    16    1
    59    15     3   am
    60    29    27   ar
    61    30    28   ar
    62     2     3    1
    63    16    17    1
    64    56    54    1
    65    50    53    1
    66    50    49    1
    67    58    57    1
    68    58    61    1
    69    58    59    1
    70     3     4    2
    71    53    54    1
    72    54    55    1
    73    27    28   ar
    74    27    26    1
    75    17    22   am
    76    17    18    2
    77    59    60    2
    78    22    23    1
    79    71    73   ar
    80    71    70   ar
    81    73    75   ar
    82    26    23    1
    83    65    66    1
    84    23    24    1
    85    66    69    1
    86    66    67    1
    87    69    70    1
    88    70    72   ar
    89    75    76    1
    90    75    74   ar
    91    41    39   am
    92    47    46    1
    93    48    46    1
    94    24    25    2
    95    68    67    2
    96    46    43    1
    97    72    74   ar
    98    39    40    2
    99    39    38    1
   100    43    44    1
   101    43    42    1
   102    38    37    1
   103    44    45    2
   104    36    35    2
   105    33    34    1
   106    35    34    1
   107    37    34    1
