@<TRIPOS>MOLECULE
tmp/4hxoA00.pdb
 117 114 0 0 0
SMALL
GASTEIGER

@<TRIPOS>ATOM
      1  N         -2.3740   -0.2370   -0.7270 N.3    39  TRP39      -0.1228
      2  CA        -2.0230   -1.5220   -1.3380 C.3    39  TRP39       0.1722
      3  C         -3.1970   -2.4040   -1.7300 C.2    39  TRP39       0.2437
      4  O         -3.1460   -3.0220   -2.8110 O.2    39  TRP39      -0.2733
      5  CB        -0.9410   -2.2790   -0.4830 C.3    39  TRP39       0.0563
      6  CG        -1.4170   -2.6040    0.9070 C.ar   39  TRP39       0.0003
      7  CD1       -1.2460   -1.8560    2.0650 C.ar   39  TRP39       0.0946
      8  CD2       -2.2340   -3.7500    1.3060 C.ar   39  TRP39       0.0152
      9  NE1       -1.8900   -2.4540    3.1410 N.ar   39  TRP39      -0.2442
     10  CE2       -2.5000   -3.5880    2.7580 C.ar   39  TRP39       0.0810
     11  CE3       -2.7540   -4.8600    0.6370 C.ar   39  TRP39       0.0012
     12  CZ2       -3.2420   -4.5040    3.4740 C.ar   39  TRP39       0.0191
     13  CZ3       -3.5460   -5.7750    1.3880 C.ar   39  TRP39       0.0001
     14  CH2       -3.7410   -5.5990    2.7650 C.ar   39  TRP39       0.0015
     15  N         -4.2900   -2.4600   -0.9320 N.am   40  PRO40      -0.2718
     16  CA        -5.3460   -3.3320   -1.4060 C.3    40  PRO40       0.1535
     17  C         -6.0530   -2.8710   -2.6900 C.2    40  PRO40       0.2598
     18  O         -6.7480   -3.6660   -3.3390 O.2    40  PRO40      -0.2715
     19  CB        -6.3900   -3.3180   -0.2440 C.3    40  PRO40       0.0310
     20  CG        -5.6240   -2.7670    0.9580 C.3    40  PRO40       0.0237
     21  CD        -4.6290   -1.7820    0.3430 C.3    40  PRO40       0.0939
     22  N         -5.8920   -1.5870   -3.0140 N.am   41  PHE41      -0.1974
     23  CA        -6.6440   -0.9630   -4.0820 C.3    41  PHE41       0.1639
     24  C         -5.7610   -0.8190   -5.3300 C.2    41  PHE41       0.2290
     25  O         -6.1930   -0.1360   -6.2670 O.2    41  PHE41      -0.2864
     26  CB        -7.1090    0.3990   -3.5780 C.3    41  PHE41       0.0560
     27  CG        -8.0020    0.2680   -2.3450 C.ar   41  PHE41      -0.0200
     28  CD1       -9.3440   -0.0920   -2.4800 C.ar   41  PHE41      -0.0042
     29  CD2       -7.4970    0.4520   -1.0610 C.ar   41  PHE41      -0.0042
     30  CE1      -10.1640   -0.2740   -1.3630 C.ar   41  PHE41      -0.0003
     31  CE2       -8.2930    0.3120    0.0740 C.ar   41  PHE41      -0.0003
     32  CZ        -9.6410   -0.0840   -0.0670 C.ar   41  PHE41      -0.0000
     33  N         -9.6680   -6.7000   -7.1960 N.3    45  VAL45      -0.1245
     34  CA        -9.8840   -7.6350   -6.1050 C.3    45  VAL45       0.1561
     35  C         -9.6690   -9.0500   -6.6260 C.2    45  VAL45       0.2260
     36  O        -10.2830   -9.4850   -7.6320 O.2    45  VAL45      -0.2867
     37  CB       -11.2500   -7.4640   -5.4640 C.3    45  VAL45       0.0252
     38  CG1      -11.5750   -8.6280   -4.4570 C.3    45  VAL45       0.0019
     39  CG2      -11.3550   -6.1070   -4.8030 C.3    45  VAL45       0.0019
     40  N         -8.0680  -14.1900   -2.0150 N.3    50  LEU50      -0.1245
     41  CA        -8.6650  -13.7700   -0.7210 C.3    50  LEU50       0.1561
     42  C         -9.6180  -14.8100   -0.2290 C.2    50  LEU50       0.2260
     43  O        -10.1880  -14.7170    0.8610 O.2    50  LEU50      -0.2867
     44  CB        -9.4150  -12.4430   -0.8420 C.3    50  LEU50       0.0270
     45  CG        -8.5760  -11.2630   -1.3090 C.3    50  LEU50       0.0019
     46  CD1       -9.5490  -10.0870   -1.4190 C.3    50  LEU50       0.0001
     47  CD2       -7.3930  -10.9160   -0.4040 C.3    50  LEU50       0.0001
     48  N        -12.5650  -15.2360   -1.3130 N.3    52  LEU52      -0.1245
     49  CA       -13.8960  -14.5890   -1.1900 C.3    52  LEU52       0.1561
     50  C        -14.6200  -14.8070   -2.5080 C.2    52  LEU52       0.2260
     51  O        -14.7510  -13.9040   -3.3410 O.2    52  LEU52      -0.2867
     52  CB       -13.7080  -13.0980   -0.8690 C.3    52  LEU52       0.0270
     53  CG       -13.2110  -12.7680    0.5960 C.3    52  LEU52       0.0019
     54  CD1      -12.7250  -11.3170    0.7050 C.3    52  LEU52       0.0001
     55  CD2      -14.2390  -13.0500    1.6990 C.3    52  LEU52       0.0001
     56  N        -17.3360  -12.2690   -3.7420 N.3    55  TYR55      -0.1241
     57  CA       -17.0410  -10.8180   -3.9610 C.3    55  TYR55       0.1605
     58  C        -17.7680  -10.3980   -5.2650 C.2    55  TYR55       0.2264
     59  O        -18.5700   -9.4540   -5.2700 O.2    55  TYR55      -0.2867
     60  CB       -15.5110  -10.5500   -4.0780 C.3    55  TYR55       0.0534
     61  CG       -15.2740   -9.0610   -4.2720 C.ar   55  TYR55      -0.0201
     62  CD1      -15.4000   -8.1510   -3.2090 C.ar   55  TYR55      -0.0009
     63  CD2      -15.0360   -8.5670   -5.5380 C.ar   55  TYR55      -0.0009
     64  CE1      -15.2250   -6.7660   -3.4240 C.ar   55  TYR55       0.0417
     65  CE2      -14.8920   -7.1930   -5.7740 C.ar   55  TYR55       0.0417
     66  CZ       -14.9890   -6.3120   -4.7030 C.ar   55  TYR55       0.1957
     67  OH       -14.8420   -4.9630   -4.9190 O.3    55  TYR55      -0.2866
     68  N        -16.2440   -0.8830   -2.0340 N.3    94  CYS94      -0.1235
     69  CA       -15.7110   -1.2840   -0.7270 C.3    94  CYS94       0.1677
     70  C        -16.7790   -1.1740    0.3990 C.2    94  CYS94       0.2270
     71  O        -16.9440   -2.0740    1.2070 O.2    94  CYS94      -0.2867
     72  CB       -14.4270   -0.4800   -0.4370 C.3    94  CYS94       0.0956
     73  SG       -13.5980   -1.1300    1.0190 S.3    94  CYS94      -0.0801
     74  N        -19.5320   -4.0110   -0.0680 N.3    97  TYR97      -0.1227
     75  CA       -19.1970   -5.3980    0.2520 C.3    97  TYR97       0.1736
     76  C        -18.9600   -5.5670    1.7480 C.2    97  TYR97       0.2595
     77  O        -19.2000   -6.6490    2.2980 O.2    97  TYR97      -0.2718
     78  CB       -17.9710   -5.8350   -0.5700 C.3    97  TYR97       0.0548
     79  CG       -17.6700   -7.3080   -0.3450 C.ar   97  TYR97      -0.0200
     80  CD1      -18.5100   -8.3320   -0.8540 C.ar   97  TYR97      -0.0009
     81  CD2      -16.5490   -7.6610    0.3540 C.ar   97  TYR97      -0.0009
     82  CE1      -18.2390   -9.6810   -0.5830 C.ar   97  TYR97       0.0417
     83  CE2      -16.2630   -8.9860    0.6420 C.ar   97  TYR97       0.0417
     84  CZ       -17.1000   -9.9900    0.1570 C.ar   97  TYR97       0.1957
     85  OH       -16.7610  -11.2850    0.5210 O.3    97  TYR97      -0.2866
     86  N        -18.4350   -4.5270    2.3960 N.am   98  ASN98      -0.1974
     87  CA       -17.9700   -4.6010    3.7630 C.3    98  ASN98       0.1688
     88  C        -18.8530   -3.7740    4.6930 C.2    98  ASN98       0.2292
     89  O        -19.8990   -3.2350    4.2390 O.2    98  ASN98      -0.2864
     90  CB       -16.5300   -4.1200    3.8120 C.3    98  ASN98       0.1181
     91  CG       -15.6200   -4.9900    2.9390 C.2    98  ASN98       0.2629
     92  OD1      -15.3230   -6.1750    3.2800 O.2    98  ASN98      -0.2716
     93  ND2      -15.2220   -4.4590    1.7810 N.am   98  ASN98      -0.0877
     94  N        -11.4840   -3.3220    8.7480 N.3   103  ASP103     -0.1225
     95  CA       -10.1710   -2.7790    8.4070 C.3   103  ASP103      0.1805
     96  C        -10.1480   -2.2050    6.9790 C.2   103  ASP103      0.2597
     97  O         -9.6340   -1.1350    6.7480 O.2   103  ASP103     -0.2718
     98  CB        -9.0820   -3.8560    8.5810 C.3   103  ASP103      0.1424
     99  CG        -8.6180   -3.9780   10.0500 C.2   103  ASP103      0.3668
    100  OD1       -8.9920   -3.1280   10.9150 O.co2 103  ASP103     -0.2456
    101  OD2       -7.7850   -4.8780   10.3170 O.co2 103  ASP103     -0.2456
    102  N        -10.6510   -2.9690    6.0250 N.am  104  ILE104     -0.1980
    103  CA       -10.6070   -2.5060    4.6140 C.3   104  ILE104      0.1595
    104  C        -11.4170   -1.1890    4.4530 C.2   104  ILE104      0.2287
    105  O        -11.0870   -0.3350    3.6380 O.2   104  ILE104     -0.2864
    106  CB       -11.0360   -3.6480    3.6510 C.3   104  ILE104      0.0276
    107  CG1      -10.7500   -3.2270    2.2000 C.3   104  ILE104      0.0022
    108  CG2      -12.5330   -3.9990    3.8460 C.3   104  ILE104      0.0022
    109  CD1       -9.2640   -3.1010    1.9900 C.3   104  ILE104      0.0001
    110  N         -9.5720    1.7370    5.6390 N.3   107  MET107     -0.1245
    111  CA        -8.5350    2.0960    4.6370 C.3   107  MET107      0.1570
    112  C         -9.1670    2.9280    3.5200 C.2   107  MET107      0.2261
    113  O         -8.6240    4.0110    3.1380 O.2   107  MET107     -0.2867
    114  CB        -7.8550    0.8320    4.0430 C.3   107  MET107      0.0387
    115  CG        -7.0030    0.1030    5.1180 C.3   107  MET107      0.0595
    116  SD        -6.4900   -1.5190    4.5180 S.3   107  MET107     -0.1393
    117  CE        -4.8940   -1.1400    3.9990 C.3   107  MET107      0.0692
@<TRIPOS>BOND
     1    36    35    2
     2    33    34    1
     3    35    34    1
     4    25    24    2
     5    34    37    1
     6    65    63   ar
     7    65    66   ar
     8    63    61   ar
     9    37    39    1
    10    37    38    1
    11    24    23    1
    12    59    58    2
    13    58    57    1
    14    67    66    1
    15    66    64   ar
    16    61    60    1
    17    61    62   ar
    18    23    26    1
    19    23    22    1
    20    60    57    1
    21    57    56    1
    22    26    27    1
    23    64    62   ar
    24    51    50    2
    25    18    17    2
    26    22    17   am
    27     4     3    2
    28    17    16    1
    29    50    49    1
    30    28    27   ar
    31    28    30   ar
    32    27    29   ar
    33    68    69    1
    34    40    41    1
    35     3     2    1
    36     3    15   am
    37    46    45    1
    38    16    15    1
    39    16    19    1
    40    30    32   ar
    41     2     1    1
    42     2     5    1
    43    48    49    1
    44    45    44    1
    45    45    47    1
    46    49    52    1
    47    29    31   ar
    48    15    21    1
    49    52    53    1
    50    80    82   ar
    51    80    79   ar
    52    44    41    1
    53    69    72    1
    54    69    70    1
    55    41    42    1
    56    82    84   ar
    57    78    79    1
    58    78    75    1
    59     5     6    1
    60    72    73    1
    61    79    81   ar
    62    19    20    1
    63    42    43    2
    64    74    75    1
    65    32    31   ar
    66    84    85    1
    67    84    83   ar
    68    75    76    1
    69    21    20    1
    70    81    83   ar
    71    70    71    2
    72    53    54    1
    73    53    55    1
    74    11     8   ar
    75    11    13   ar
    76     6     8   ar
    77     6     7   ar
    78     8    10   ar
    79    13    14   ar
    80    76    77    2
    81    76    86   am
    82    93    91   am
    83   109   107    1
    84     7     9   ar
    85   107   106    1
    86    86    87    1
    87    10     9   ar
    88    10    12   ar
    89    14    12   ar
    90    91    92    2
    91    91    90    1
    92   113   112    2
    93   112   111    1
    94   105   104    2
    95   106   108    1
    96   106   103    1
    97    87    90    1
    98    87    88    1
    99   117   116    1
   100   114   111    1
   101   114   115    1
   102    89    88    2
   103   104   103    1
   104   116   115    1
   105   103   102    1
   106   111   110    1
   107   102    96   am
   108    97    96    2
   109    96    95    1
   110    95    98    1
   111    95    94    1
   112    98    99    1
   113    99   101   ar
   114    99   100   ar
