@<TRIPOS>MOLECULE
tmp/4hxpA00.pdb
 117 114 0 0 0
SMALL
GASTEIGER

@<TRIPOS>ATOM
      1  N         -2.3770   -0.3580   -0.6680 N.3    39  TRP39      -0.1228
      2  CA        -2.0850   -1.6780   -1.2240 C.3    39  TRP39       0.1722
      3  C         -3.2760   -2.5720   -1.6300 C.2    39  TRP39       0.2437
      4  O         -3.1830   -3.2720   -2.6470 O.2    39  TRP39      -0.2733
      5  CB        -1.0590   -2.4500   -0.3610 C.3    39  TRP39       0.0563
      6  CG        -1.5220   -2.7390    1.0290 C.ar   39  TRP39       0.0003
      7  CD1       -1.3020   -1.9810    2.1450 C.ar   39  TRP39       0.0946
      8  CD2       -2.3000   -3.8670    1.4530 C.ar   39  TRP39       0.0152
      9  NE1       -1.9020   -2.5720    3.2390 N.ar   39  TRP39      -0.2442
     10  CE2       -2.5150   -3.7290    2.8390 C.ar   39  TRP39       0.0810
     11  CE3       -2.8440   -4.9700    0.7920 C.ar   39  TRP39       0.0012
     12  CZ2       -3.2500   -4.6580    3.5710 C.ar   39  TRP39       0.0191
     13  CZ3       -3.5630   -5.8980    1.5230 C.ar   39  TRP39       0.0001
     14  CH2       -3.7610   -5.7340    2.8980 C.ar   39  TRP39       0.0015
     15  N         -4.3920   -2.5520   -0.8690 N.am   40  PRO40      -0.2718
     16  CA        -5.4950   -3.4100   -1.3140 C.3    40  PRO40       0.1535
     17  C         -6.1450   -2.9390   -2.6090 C.2    40  PRO40       0.2598
     18  O         -6.9000   -3.6910   -3.2100 O.2    40  PRO40      -0.2715
     19  CB        -6.5140   -3.2950   -0.1830 C.3    40  PRO40       0.0310
     20  CG        -5.7210   -2.8120    1.0170 C.3    40  PRO40       0.0237
     21  CD        -4.7050   -1.8960    0.4190 C.3    40  PRO40       0.0939
     22  N         -5.8480   -1.7120   -3.0140 N.am   41  PHE41      -0.1974
     23  CA        -6.5520   -1.0740   -4.1100 C.3    41  PHE41       0.1639
     24  C         -5.6730   -0.8910   -5.3440 C.2    41  PHE41       0.2290
     25  O         -6.0890   -0.2440   -6.3010 O.2    41  PHE41      -0.2864
     26  CB        -7.1150    0.2700   -3.6330 C.3    41  PHE41       0.0560
     27  CG        -7.9560    0.1530   -2.3830 C.ar   41  PHE41      -0.0200
     28  CD1       -9.2610   -0.3090   -2.4580 C.ar   41  PHE41      -0.0042
     29  CD2       -7.4350    0.4760   -1.1410 C.ar   41  PHE41      -0.0042
     30  CE1      -10.0350   -0.4450   -1.3280 C.ar   41  PHE41      -0.0003
     31  CE2       -8.2080    0.3530   -0.0030 C.ar   41  PHE41      -0.0003
     32  CZ        -9.5110   -0.1020   -0.0920 C.ar   41  PHE41      -0.0000
     33  N         -9.2300   -7.0620   -7.5800 N.3    45  VAL45      -0.1245
     34  CA        -9.3870   -8.1030   -6.5850 C.3    45  VAL45       0.1561
     35  C         -9.2590   -9.4570   -7.2720 C.2    45  VAL45       0.2260
     36  O         -9.9830   -9.7560   -8.2260 O.2    45  VAL45      -0.2867
     37  CB       -10.7460   -7.9880   -5.8910 C.3    45  VAL45       0.0252
     38  CG1      -11.0010   -9.2030   -5.0030 C.3    45  VAL45       0.0019
     39  CG2      -10.8190   -6.6980   -5.0890 C.3    45  VAL45       0.0019
     40  N         -7.3120  -14.5330   -3.0710 N.3    50  LEU50      -0.1245
     41  CA        -7.7350  -14.0020   -1.7810 C.3    50  LEU50       0.1561
     42  C         -8.8520  -14.8060   -1.1420 C.2    50  LEU50       0.2260
     43  O         -9.3430  -14.4420   -0.0670 O.2    50  LEU50      -0.2867
     44  CB        -8.1940  -12.5550   -1.9320 C.3    50  LEU50       0.0270
     45  CG        -7.1390  -11.5200   -2.3070 C.3    50  LEU50       0.0019
     46  CD1       -7.8280  -10.2180   -2.6900 C.3    50  LEU50       0.0001
     47  CD2       -6.1740  -11.3030   -1.1470 C.3    50  LEU50       0.0001
     48  N        -12.0440  -15.2310   -2.0720 N.3    52  LEU52      -0.1245
     49  CA       -13.2560  -14.4240   -1.9900 C.3    52  LEU52       0.1561
     50  C        -14.1870  -14.8280   -3.1210 C.2    52  LEU52       0.2260
     51  O        -14.4080  -14.0610   -4.0580 O.2    52  LEU52      -0.2867
     52  CB       -12.9190  -12.9340   -2.1080 C.3    52  LEU52       0.0270
     53  CG       -11.9690  -12.3450   -1.0620 C.3    52  LEU52       0.0019
     54  CD1      -11.6660  -10.8780   -1.3560 C.3    52  LEU52       0.0001
     55  CD2      -12.5450  -12.4980    0.3360 C.3    52  LEU52       0.0001
     56  N        -16.9500  -12.4210   -4.1440 N.3    55  TYR55      -0.1241
     57  CA       -16.6550  -11.0080   -4.4210 C.3    55  TYR55       0.1605
     58  C        -17.3760  -10.5200   -5.6660 C.2    55  TYR55       0.2264
     59  O        -18.0980   -9.5350   -5.6140 O.2    55  TYR55      -0.2867
     60  CB       -15.1570  -10.7250   -4.5620 C.3    55  TYR55       0.0534
     61  CG       -14.9050   -9.2350   -4.6900 C.ar   55  TYR55      -0.0201
     62  CD1      -14.8900   -8.4220   -3.5690 C.ar   55  TYR55      -0.0009
     63  CD2      -14.7270   -8.6430   -5.9330 C.ar   55  TYR55      -0.0009
     64  CE1      -14.6800   -7.0570   -3.6760 C.ar   55  TYR55       0.0417
     65  CE2      -14.5170   -7.2650   -6.0540 C.ar   55  TYR55       0.0417
     66  CZ       -14.4920   -6.4850   -4.9140 C.ar   55  TYR55       0.1957
     67  OH       -14.2910   -5.1180   -5.0210 O.3    55  TYR55      -0.2866
     68  N        -15.9610   -1.0740   -2.1670 N.3    94  CYS94      -0.1235
     69  CA       -15.3990   -1.5080   -0.9010 C.3    94  CYS94       0.1677
     70  C        -16.4550   -1.4080    0.2050 C.2    94  CYS94       0.2270
     71  O        -16.5900   -2.3140    1.0190 O.2    94  CYS94      -0.2867
     72  CB       -14.1700   -0.6750   -0.5490 C.3    94  CYS94       0.0956
     73  SG       -13.3540   -1.2240    0.9690 S.3    94  CYS94      -0.0801
     74  N        -19.0670   -4.3060   -0.4980 N.3    97  TYR97      -0.1227
     75  CA       -18.6890   -5.6990   -0.2830 C.3    97  TYR97       0.1736
     76  C        -18.4180   -6.0010    1.1780 C.2    97  TYR97       0.2595
     77  O        -18.4780   -7.1570    1.6110 O.2    97  TYR97      -0.2718
     78  CB       -17.4790   -6.1070   -1.1350 C.3    97  TYR97       0.0548
     79  CG       -17.0440   -7.5360   -0.8750 C.ar   97  TYR97      -0.0200
     80  CD1      -17.7790   -8.6150   -1.3690 C.ar   97  TYR97      -0.0009
     81  CD2      -15.9260   -7.8100   -0.1050 C.ar   97  TYR97      -0.0009
     82  CE1      -17.3980   -9.9280   -1.0940 C.ar   97  TYR97       0.0417
     83  CE2      -15.5380   -9.1110    0.1700 C.ar   97  TYR97       0.0417
     84  CZ       -16.2700  -10.1650   -0.3300 C.ar   97  TYR97       0.1957
     85  OH       -15.8730  -11.4550   -0.0500 O.3    97  TYR97      -0.2866
     86  N        -18.1140   -4.9600    1.9400 N.am   98  ASN98      -0.1974
     87  CA       -17.7050   -5.1600    3.3190 C.3    98  ASN98       0.1688
     88  C        -18.7180   -4.5640    4.2880 C.2    98  ASN98       0.2292
     89  O        -19.8910   -4.4290    3.9460 O.2    98  ASN98      -0.2864
     90  CB       -16.2910   -4.6210    3.5310 C.3    98  ASN98       0.1181
     91  CG       -15.2750   -5.2910    2.6160 C.2    98  ASN98       0.2629
     92  OD1      -14.8290   -6.4110    2.8750 O.2    98  ASN98      -0.2716
     93  ND2      -14.9090   -4.6080    1.5360 N.am   98  ASN98      -0.0877
     94  N        -11.4800   -3.5480    8.7280 N.3   103  ASP103     -0.1225
     95  CA       -10.1700   -2.9380    8.4710 C.3   103  ASP103      0.1805
     96  C        -10.0600   -2.3470    7.0620 C.2   103  ASP103      0.2597
     97  O         -9.5320   -1.2540    6.8860 O.2   103  ASP103     -0.2718
     98  CB        -9.0300   -3.9320    8.7100 C.3   103  ASP103      0.1424
     99  CG        -8.6260   -4.0190   10.1760 C.2   103  ASP103      0.3668
    100  OD1       -9.0790   -3.1720   10.9790 O.co2 103  ASP103     -0.2456
    101  OD2       -7.8380   -4.9260   10.5190 O.co2 103  ASP103     -0.2456
    102  N        -10.5600   -3.0630    6.0620 N.am  104  ILE104     -0.1980
    103  CA       -10.4600   -2.5570    4.6890 C.3   104  ILE104      0.1595
    104  C        -11.3280   -1.3230    4.4740 C.2   104  ILE104      0.2287
    105  O        -10.9950   -0.4510    3.6720 O.2   104  ILE104     -0.2864
    106  CB       -10.7680   -3.6390    3.6340 C.3   104  ILE104      0.0276
    107  CG1      -10.3810   -3.1180    2.2490 C.3   104  ILE104      0.0022
    108  CG2      -12.2350   -4.0510    3.7000 C.3   104  ILE104      0.0022
    109  CD1       -9.6480   -4.0930    1.4180 C.3   104  ILE104      0.0001
    110  N         -9.5790    1.6400    5.7380 N.3   107  MET107     -0.1245
    111  CA        -8.5650    2.0020    4.7580 C.3   107  MET107      0.1570
    112  C         -9.1890    2.8350    3.6480 C.2   107  MET107      0.2261
    113  O         -8.6760    3.8990    3.2900 O.2   107  MET107     -0.2867
    114  CB        -7.9040    0.7440    4.1830 C.3   107  MET107      0.0387
    115  CG        -7.0730    0.0290    5.2220 C.3   107  MET107      0.0595
    116  SD        -6.4790   -1.5570    4.6330 S.3   107  MET107     -0.1393
    117  CE        -4.8750   -1.1180    4.0440 C.3   107  MET107      0.0692
@<TRIPOS>BOND
     1    36    35    2
     2    33    34    1
     3    35    34    1
     4    34    37    1
     5    25    24    2
     6    65    63   ar
     7    65    66   ar
     8    63    61   ar
     9    37    39    1
    10    37    38    1
    11    58    59    2
    12    58    57    1
    13    24    23    1
    14    67    66    1
    15    66    64   ar
    16    61    60    1
    17    61    62   ar
    18    60    57    1
    19    57    56    1
    20    23    26    1
    21    23    22    1
    22    51    50    2
    23    64    62   ar
    24    26    27    1
    25    18    17    2
    26    50    49    1
    27    40    41    1
    28    22    17   am
    29    46    45    1
    30     4     3    2
    31    17    16    1
    32    28    27   ar
    33    28    30   ar
    34    27    29   ar
    35    45    44    1
    36    45    47    1
    37    68    69    1
    38    52    49    1
    39    52    53    1
    40    48    49    1
    41    44    41    1
    42    41    42    1
    43     3     2    1
    44     3    15   am
    45    80    82   ar
    46    80    79   ar
    47    54    53    1
    48    30    32   ar
    49    16    15    1
    50    16    19    1
    51     2     1    1
    52     2     5    1
    53    42    43    2
    54    29    31   ar
    55    78    79    1
    56    78    75    1
    57    82    84   ar
    58    53    55    1
    59    69    72    1
    60    69    70    1
    61    79    81   ar
    62    15    21    1
    63    72    73    1
    64    74    75    1
    65     5     6    1
    66    84    85    1
    67    84    83   ar
    68    75    76    1
    69    19    20    1
    70    81    83   ar
    71    32    31   ar
    72    70    71    2
    73    21    20    1
    74    11     8   ar
    75    11    13   ar
    76     6     8   ar
    77     6     7   ar
    78    76    77    2
    79    76    86   am
    80   109   107    1
    81     8    10   ar
    82    13    14   ar
    83    93    91   am
    84    86    87    1
    85     7     9   ar
    86   107   106    1
    87    91    92    2
    88    91    90    1
    89    10     9   ar
    90    10    12   ar
    91    14    12   ar
    92   113   112    2
    93    87    90    1
    94    87    88    1
    95   106   108    1
    96   106   103    1
    97   112   111    1
    98   105   104    2
    99    89    88    2
   100   117   116    1
   101   114   111    1
   102   114   115    1
   103   104   103    1
   104   116   115    1
   105   103   102    1
   106   111   110    1
   107   102    96   am
   108    97    96    2
   109    96    95    1
   110    95    98    1
   111    95    94    1
   112    98    99    1
   113    99   101   ar
   114    99   100   ar
