@<TRIPOS>MOLECULE
tmp/4hxqA00.pdb
 142 132 0 0 0
SMALL
GASTEIGER

@<TRIPOS>ATOM
      1  N        -26.7440    7.3620  -11.0660 N.3    97  HIS97      -0.1241
      2  CA       -26.7220    7.2580  -12.5230 C.3    97  HIS97       0.1621
      3  C        -25.4770    6.5970  -13.1220 C.2    97  HIS97       0.2264
      4  O        -25.4250    6.3880  -14.3370 O.2    97  HIS97      -0.2867
      5  CB       -26.9800    8.6250  -13.1870 C.3    97  HIS97       0.0745
      6  CG       -27.8000    8.5490  -14.4350 C.ar   97  HIS97       0.0817
      7  ND1      -28.3480    9.6650  -15.0430 N.ar   97  HIS97      -0.2268
      8  CD2      -28.1890    7.4960  -15.1880 C.ar   97  HIS97       0.1154
      9  CE1      -29.0240    9.3000  -16.1080 C.ar   97  HIS97       0.1986
     10  NE2      -28.9470    7.9820  -16.2200 N.ar   97  HIS97      -0.2212
     11  N        -28.1780   16.9930  -16.7310 N.3   122  HIS122     -0.1241
     12  CA       -26.7490   16.8340  -16.9210 C.3   122  HIS122      0.1621
     13  C        -26.4520   15.9020  -18.0950 C.2   122  HIS122      0.2264
     14  O        -27.2430   15.0340  -18.4220 O.2   122  HIS122     -0.2867
     15  CB       -26.1030   16.2920  -15.6410 C.3   122  HIS122      0.0745
     16  CG       -26.4750   17.0540  -14.4030 C.ar  122  HIS122      0.0817
     17  ND1      -27.4590   16.6390  -13.5410 N.ar  122  HIS122     -0.2268
     18  CD2      -25.9830   18.2070  -13.8940 C.ar  122  HIS122      0.1154
     19  CE1      -27.5650   17.5100  -12.5490 C.ar  122  HIS122      0.1986
     20  NE2      -26.6790   18.4640  -12.7420 N.ar  122  HIS122     -0.2212
     21  N        -23.6970   13.9880  -18.0980 N.3   124  ASP124     -0.1239
     22  CA       -22.9920   12.8670  -17.4850 C.3   124  ASP124      0.1674
     23  C        -21.8890   12.2950  -18.3770 C.2   124  ASP124      0.2266
     24  O        -21.7460   11.0840  -18.4820 O.2   124  ASP124     -0.2867
     25  CB       -23.9770   11.7580  -17.1120 C.3   124  ASP124      0.1410
     26  CG       -24.9860   12.1900  -16.0700 C.2   124  ASP124      0.3668
     27  OD1      -25.9540   11.4330  -15.8740 O.co2 124  ASP124     -0.2456
     28  OD2      -24.8190   13.2680  -15.4600 O.co2 124  ASP124     -0.2456
     29  N        -18.5200   13.6480  -18.4970 N.3   126  ASN126     -0.1240
     30  CA       -17.1560   13.8810  -18.0470 C.3   126  ASN126      0.1653
     31  C        -16.3550   12.5830  -18.1550 C.2   126  ASN126      0.2266
     32  O        -16.9110   11.4960  -18.0050 O.2   126  ASN126     -0.2867
     33  CB       -17.1300   14.3750  -16.5990 C.3   126  ASN126      0.1155
     34  CG       -17.2600   15.8790  -16.4850 C.2   126  ASN126      0.2627
     35  OD1      -16.5090   16.6270  -17.0880 O.2   126  ASN126     -0.2716
     36  ND2      -18.2130   16.3210  -15.6990 N.am  126  ASN126     -0.0877
     37  N        -13.3870   15.3650  -15.1420 N.3   131  THR131     -0.1203
     38  CA       -14.1820   15.5640  -13.9320 C.3   131  THR131      0.1994
     39  C        -13.4410   16.4160  -12.9060 C.2   131  THR131      0.2619
     40  O        -12.2310   16.2940  -12.7480 O.2   131  THR131     -0.2717
     41  CB       -14.6180   14.2160  -13.2920 C.3   131  THR131      0.1784
     42  OG1      -15.4740   14.4580  -12.1730 O.3   131  THR131     -0.2211
     43  CG2      -13.4210   13.4110  -12.8170 C.3   131  THR131      0.0376
     44  N        -14.1700   17.2920  -12.2250 N.am  132  THR132     -0.1938
     45  CA       -13.5850   18.0650  -11.1400 C.3   132  THR132      0.2028
     46  C        -14.1120   17.5880   -9.7900 C.2   132  THR132      0.2642
     47  O        -13.5990   17.9790   -8.7440 O.2   132  THR132     -0.2714
     48  CB       -13.8180   19.5870  -11.3020 C.3   132  THR132      0.1808
     49  OG1      -15.2200   19.8760  -11.3280 O.3   132  THR132     -0.2208
     50  CG2      -13.1440   20.1110  -12.5700 C.3   132  THR132      0.0379
     51  N        -15.1300   16.7340   -9.8180 N.am  133  SER133     -0.1949
     52  CA       -15.7350   16.2400   -8.5860 C.3   133  SER133      0.1924
     53  C        -15.2640   14.8350   -8.2650 C.2   133  SER133      0.2314
     54  O        -15.1570   14.4730   -7.1060 O.2   133  SER133     -0.2863
     55  CB       -17.2620   16.2730   -8.6560 C.3   133  SER133      0.2116
     56  OG       -17.7410   15.3240   -9.5810 O.3   133  SER133     -0.2180
     57  N        -17.0060   12.2370   -8.9240 N.3   135  ASN135     -0.1240
     58  CA       -18.2010   11.4300   -8.7400 C.3   135  ASN135      0.1653
     59  C        -18.6030   10.7330  -10.0380 C.2   135  ASN135      0.2266
     60  O        -18.9180   11.3980  -11.0160 O.2   135  ASN135     -0.2867
     61  CB       -19.3550   12.3020   -8.2140 C.3   135  ASN135      0.1155
     62  CG       -19.0260   12.9860   -6.8890 C.2   135  ASN135      0.2627
     63  OD1      -18.1870   12.5180   -6.1360 O.2   135  ASN135     -0.2716
     64  ND2      -19.6920   14.0900   -6.6090 N.am  135  ASN135     -0.0877
     65  N        -21.1330    9.1710  -11.1960 N.3   137  HIS137     -0.1226
     66  CA       -22.4690    9.3360  -11.7550 C.3   137  HIS137      0.1752
     67  C        -22.5160   10.4910  -12.7460 C.2   137  HIS137      0.2596
     68  O        -23.4820   10.6410  -13.4630 O.2   137  HIS137     -0.2718
     69  CB       -23.5510    9.4780  -10.6650 C.3   137  HIS137      0.0759
     70  CG       -23.5740   10.8080   -9.9670 C.ar  137  HIS137      0.0818
     71  ND1      -24.7120   11.3240   -9.3960 N.ar  137  HIS137     -0.2268
     72  CD2      -22.5890   11.7060   -9.7250 C.ar  137  HIS137      0.1154
     73  CE1      -24.4360   12.4930   -8.8420 C.ar  137  HIS137      0.1986
     74  NE2      -23.1560   12.7430   -9.0260 N.ar  137  HIS137     -0.2212
     75  N        -21.4690   11.3080  -12.7700 N.am  138  GLY138     -0.1957
     76  CA       -21.3480   12.3760  -13.7460 C.3   138  GLY138      0.1869
     77  C        -20.4900   11.9840  -14.9300 C.2   138  GLY138      0.2309
     78  O        -20.1780   12.8100  -15.7750 O.2   138  GLY138     -0.2863
     79  N        -27.1360   21.9990  -16.6460 N.3   177  ASP177     -0.1239
     80  CA       -25.9450   22.1210  -15.8060 C.3   177  ASP177      0.1674
     81  C        -24.8250   21.2800  -16.4010 C.2   177  ASP177      0.2266
     82  O        -24.5750   20.1590  -15.9710 O.2   177  ASP177     -0.2867
     83  CB       -26.2300   21.7330  -14.3540 C.3   177  ASP177      0.1410
     84  CG       -25.0480   21.9770  -13.4370 C.2   177  ASP177      0.3668
     85  OD1      -24.2150   22.8540  -13.7390 O.co2 177  ASP177     -0.2456
     86  OD2      -24.9650   21.2810  -12.4070 O.co2 177  ASP177     -0.2456
     87  N        -20.8580   20.9370  -17.5290 N.3   179  ASP179     -0.1225
     88  CA       -19.5080   21.3960  -17.2040 C.3   179  ASP179      0.1790
     89  C        -18.7710   21.7600  -18.4820 C.2   179  ASP179      0.2439
     90  O        -19.0950   21.2290  -19.5330 O.2   179  ASP179     -0.2733
     91  CB       -18.7150   20.2970  -16.4910 C.3   179  ASP179      0.1423
     92  CG       -19.2630   19.9520  -15.1190 C.2   179  ASP179      0.3668
     93  OD1      -19.9250   20.7950  -14.4960 O.co2 179  ASP179     -0.2456
     94  OD2      -18.9930   18.8250  -14.6580 O.co2 179  ASP179     -0.2456
     95  N        -17.7580   22.6410  -18.3910 N.am  180  PRO180     -0.2729
     96  CA       -17.0210   23.0590  -19.5850 C.3   180  PRO180      0.1401
     97  C        -16.4360   21.8940  -20.4010 C.2   180  PRO180      0.2269
     98  O        -16.5890   21.8830  -21.6180 O.2   180  PRO180     -0.2865
     99  CB       -15.9140   23.9500  -19.0150 C.3   180  PRO180      0.0296
    100  CG       -16.4480   24.4520  -17.7530 C.3   180  PRO180      0.0237
    101  CD       -17.2990   23.3670  -17.1940 C.3   180  PRO180      0.0939
    102  N        -17.4960   18.8270  -20.5370 N.3   182  GLU182     -0.1245
    103  CA       -18.6420   18.1600  -21.1410 C.3   182  GLU182      0.1567
    104  C        -19.1530   18.8930  -22.3790 C.2   182  GLU182      0.2260
    105  O        -19.4840   18.2680  -23.3760 O.2   182  GLU182     -0.2867
    106  CB       -19.7820   18.0480  -20.1330 C.3   182  GLU182      0.0388
    107  CG       -19.5030   17.1540  -18.9590 C.3   182  GLU182      0.1160
    108  CD       -20.7110   16.9760  -18.0720 C.2   182  GLU182      0.3649
    109  OE1      -21.0900   17.9350  -17.3930 O.co2 182  GLU182     -0.2457
    110  OE2      -21.2910   15.8820  -18.0660 O.co2 182  GLU182     -0.2457
    111  N        -33.1340   10.2730  -15.5330 N.3   228  ASP228     -0.1239
    112  CA       -32.6580   10.8010  -14.2640 C.3   228  ASP228      0.1674
    113  C        -33.7530   11.7140  -13.7680 C.2   228  ASP228      0.2266
    114  O        -34.1660   12.6200  -14.4810 O.2   228  ASP228     -0.2867
    115  CB       -31.3880   11.5950  -14.5140 C.3   228  ASP228      0.1410
    116  CG       -30.7430   12.0980  -13.2530 C.2   228  ASP228      0.3668
    117  OD1      -31.4370   12.3540  -12.2510 O.co2 228  ASP228     -0.2456
    118  OD2      -29.5100   12.2690  -13.2740 O.co2 228  ASP228     -0.2456
    119  N        -33.7390   14.0810  -11.8830 N.3   230  ASP230     -0.1239
    120  CA       -33.3510   15.4880  -11.8470 C.3   230  ASP230      0.1674
    121  C        -33.5280   16.1850  -13.2020 C.2   230  ASP230      0.2266
    122  O        -33.2850   17.3670  -13.3180 O.2   230  ASP230     -0.2867
    123  CB       -31.9540   15.7080  -11.2470 C.3   230  ASP230      0.1410
    124  CG       -30.8260   15.3390  -12.1830 C.2   230  ASP230      0.3668
    125  OD1      -30.9930   15.3340  -13.4130 O.co2 230  ASP230     -0.2456
    126  OD2      -29.7250   15.0700  -11.6690 O.co2 230  ASP230     -0.2456
    127  N        -28.5960   16.1570   -7.0080 N.3   242  THR242     -0.1218
    128  CA       -28.0790   17.2950   -7.7460 C.3   242  THR242      0.1862
    129  C        -29.1940   18.0260   -8.4830 C.2   242  THR242      0.2287
    130  O        -29.2120   18.0630   -9.7070 O.2   242  THR242     -0.2866
    131  CB       -26.9930   16.8620   -8.7310 C.3   242  THR242      0.1770
    132  OG1      -27.5360   15.8750   -9.5980 O.3   242  THR242     -0.2211
    133  CG2      -25.8310   16.2580   -7.9960 C.3   242  THR242      0.0375
    134  N        -31.7170    8.1160   -9.6280 N.3   273  GLU273     -0.1245
    135  CA       -31.3890    9.2520   -8.7640 C.3   273  GLU273      0.1567
    136  C        -32.5000    9.7140   -7.7980 C.2   273  GLU273      0.2260
    137  O        -32.4460   10.8080   -7.2550 O.2   273  GLU273     -0.2867
    138  CB       -30.7840   10.4080   -9.5730 C.3   273  GLU273      0.0388
    139  CG       -29.4750   10.0530  -10.2910 C.3   273  GLU273      0.1160
    140  CD       -28.2500   10.1750   -9.4130 C.2   273  GLU273      0.3649
    141  OE1      -28.3900   10.5630   -8.2460 O.co2 273  GLU273     -0.2457
    142  OE2      -27.1390    9.8830   -9.8920 O.co2 273  GLU273     -0.2457
@<TRIPOS>BOND
     1   105   104    2
     2   104   103    1
     3    98    97    2
     4   103   102    1
     5   103   106    1
     6    97    96    1
     7   106   107    1
     8    96    99    1
     9    96    95    1
    10    90    89    2
    11    99   100    1
    12   107   108    1
    13    29    30    1
    14    24    23    2
    15    89    95   am
    16    89    88    1
    17    14    13    2
    18    95   101    1
    19    23    22    1
    20    31    30    1
    21    31    32    2
    22    21    22    1
    23    13    12    1
    24   108   110   ar
    25   108   109   ar
    26    30    33    1
    27   100   101    1
    28    87    88    1
    29    22    25    1
    30    88    91    1
    31    25    26    1
    32    35    34    2
    33    12    11    1
    34    12    15    1
    35    79    80    1
    36    33    34    1
    37    91    92    1
    38    34    36   am
    39    81    82    2
    40    81    80    1
    41    10     9   ar
    42    10     8   ar
    43     9     7   ar
    44    26    27   ar
    45    26    28   ar
    46    80    83    1
    47    78    77    2
    48    15    16    1
    49   111   112    1
    50     8     6   ar
    51    37    38    1
    52    92    94   ar
    53    92    93   ar
    54     7     6   ar
    55    77    76    1
    56   115   112    1
    57   115   116    1
    58   114   113    2
    59     6     5    1
    60    16    18   ar
    61    16    17   ar
    62    83    84    1
    63     4     3    2
    64   112   113    1
    65    38    41    1
    66    38    39    1
    67    18    20   ar
    68    76    75    1
    69    85    84   ar
    70    17    19   ar
    71    68    67    2
    72    84    86   ar
    73   125   124   ar
    74   122   121    2
    75    41    43    1
    76    41    42    1
    77   118   116   ar
    78   116   117   ar
    79   121   120    1
    80     5     2    1
    81     3     2    1
    82    39    40    2
    83    39    44   am
    84    75    67   am
    85    67    66    1
    86    20    19   ar
    87    50    48    1
    88     2     1    1
    89    44    45    1
    90   124   126   ar
    91   124   123    1
    92   119   120    1
    93   120   123    1
    94    66    65    1
    95    66    69    1
    96    49    48    1
    97    48    45    1
    98    45    46    1
    99    60    59    2
   100    69    70    1
   101   139   138    1
   102   139   140    1
   103    59    58    1
   104    70    72   ar
   105    70    71   ar
   106   142   140   ar
   107    51    46   am
   108    51    52    1
   109    46    47    2
   110    72    74   ar
   111   130   129    2
   112   134   135    1
   113   132   131    1
   114    56    55    1
   115   138   135    1
   116   140   141   ar
   117    71    73   ar
   118    74    73   ar
   119    57    58    1
   120   135   136    1
   121    58    61    1
   122   131   133    1
   123   131   128    1
   124    55    52    1
   125    52    53    1
   126   129   128    1
   127    53    54    2
   128    61    62    1
   129   136   137    2
   130   128   127    1
   131    62    64   am
   132    62    63    2
