@<TRIPOS>MOLECULE
tmp/4hxrA00.pdb
 142 137 0 0 0
SMALL
GASTEIGER

@<TRIPOS>ATOM
      1  N         -1.8900    0.2910    0.9890 N.3    39  TRP39      -0.1228
      2  CA        -1.6080    1.6000    1.5780 C.3    39  TRP39       0.1722
      3  C         -2.8060    2.5040    1.9360 C.2    39  TRP39       0.2437
      4  O         -2.7470    3.1800    2.9590 O.2    39  TRP39      -0.2733
      5  CB        -0.5360    2.3740    0.7820 C.3    39  TRP39       0.0563
      6  CG        -0.9410    2.7330   -0.5980 C.ar   39  TRP39       0.0003
      7  CD1       -0.6930    2.0160   -1.7350 C.ar   39  TRP39       0.0946
      8  CD2       -1.6490    3.9110   -1.0100 C.ar   39  TRP39       0.0152
      9  NE1       -1.2150    2.6680   -2.8270 N.ar   39  TRP39      -0.2442
     10  CE2       -1.8180    3.8260   -2.4110 C.ar   39  TRP39       0.0810
     11  CE3       -2.1880    5.0120   -0.3280 C.ar   39  TRP39       0.0012
     12  CZ2       -2.4820    4.8050   -3.1470 C.ar   39  TRP39       0.0191
     13  CZ3       -2.8490    5.9950   -1.0700 C.ar   39  TRP39       0.0001
     14  CH2       -2.9870    5.8810   -2.4630 C.ar   39  TRP39       0.0015
     15  N         -3.8980    2.5160    1.1330 N.am   40  PRO40      -0.2718
     16  CA        -4.9850    3.4200    1.5480 C.3    40  PRO40       0.1535
     17  C         -5.6730    2.9690    2.8320 C.2    40  PRO40       0.2598
     18  O         -6.3960    3.7630    3.4610 O.2    40  PRO40      -0.2715
     19  CB        -5.9840    3.3190    0.3860 C.3    40  PRO40       0.0310
     20  CG        -5.1670    2.8580   -0.7820 C.3    40  PRO40       0.0237
     21  CD        -4.1710    1.9090   -0.1850 C.3    40  PRO40       0.0939
     22  N         -5.4350    1.7150    3.2170 N.am   41  PHE41      -0.1974
     23  CA        -6.1750    1.0810    4.2930 C.3    41  PHE41       0.1639
     24  C         -5.3230    0.8640    5.5350 C.2    41  PHE41       0.2290
     25  O         -5.7470    0.1810    6.4660 O.2    41  PHE41      -0.2864
     26  CB        -6.7320   -0.2520    3.7810 C.3    41  PHE41       0.0560
     27  CG        -7.5130   -0.1100    2.5140 C.ar   41  PHE41      -0.0200
     28  CD1       -8.8250    0.3520    2.5480 C.ar   41  PHE41      -0.0042
     29  CD2       -6.9350   -0.4010    1.2920 C.ar   41  PHE41      -0.0042
     30  CE1       -9.5490    0.5150    1.3750 C.ar   41  PHE41      -0.0003
     31  CE2       -7.6540   -0.2510    0.1120 C.ar   41  PHE41      -0.0003
     32  CZ        -8.9590    0.2140    0.1540 C.ar   41  PHE41      -0.0000
     33  N         -4.2690    3.0250    7.7560 N.3    43  GLN43      -0.1245
     34  CA        -4.5150    3.9670    8.8460 C.3    43  GLN43       0.1566
     35  C         -5.9010    4.5550    8.6540 C.2    43  GLN43       0.2260
     36  O         -6.4510    4.4800    7.5460 O.2    43  GLN43      -0.2867
     37  CB        -3.4710    5.0870    8.8380 C.3    43  GLN43       0.0367
     38  CG        -3.4150    5.8780    7.5380 C.3    43  GLN43       0.0905
     39  CD        -2.6680    5.1370    6.4500 C.2    43  GLN43       0.2608
     40  OE1       -1.5720    4.6180    6.6810 O.2    43  GLN43      -0.2717
     41  NE2       -3.2660    5.0530    5.2710 N.am   43  GLN43      -0.0878
     42  N         -8.8820    6.9560    7.7690 N.3    45  VAL45      -0.1245
     43  CA        -9.0280    8.0250    6.7870 C.3    45  VAL45       0.1561
     44  C         -8.8690    9.3850    7.4690 C.2    45  VAL45       0.2260
     45  O         -9.5930    9.7170    8.4150 O.2    45  VAL45      -0.2867
     46  CB       -10.3830    7.9510    6.0590 C.3    45  VAL45       0.0252
     47  CG1      -10.6030    9.2200    5.2280 C.3    45  VAL45       0.0019
     48  CG2      -10.4710    6.6720    5.1970 C.3    45  VAL45       0.0019
     49  N         -6.7030   14.2750    3.2850 N.3    50  LEU50      -0.1245
     50  CA        -7.1710   13.7780    1.9900 C.3    50  LEU50       0.1561
     51  C         -8.2310   14.6640    1.3390 C.2    50  LEU50       0.2260
     52  O         -8.6420   14.3980    0.2080 O.2    50  LEU50      -0.2867
     53  CB        -7.7100   12.3500    2.1340 C.3    50  LEU50       0.0270
     54  CG        -6.6920   11.2940    2.5670 C.3    50  LEU50       0.0019
     55  CD1       -7.3500    9.9320    2.8370 C.3    50  LEU50       0.0001
     56  CD2       -5.6030   11.1850    1.5170 C.3    50  LEU50       0.0001
     57  N        -11.4370   15.0970    2.1910 N.3    52  LEU52      -0.1245
     58  CA       -12.6750   14.3260    2.0760 C.3    52  LEU52       0.1561
     59  C        -13.6030   14.7560    3.2050 C.2    52  LEU52       0.2260
     60  O        -13.8660   13.9820    4.1310 O.2    52  LEU52      -0.2867
     61  CB       -12.3900   12.8210    2.1640 C.3    52  LEU52       0.0270
     62  CG       -11.3790   12.2250    1.1740 C.3    52  LEU52       0.0019
     63  CD1      -11.0720   10.7590    1.4790 C.3    52  LEU52       0.0001
     64  CD2      -11.8850   12.3750   -0.2510 C.3    52  LEU52       0.0001
     65  N        -16.3150   12.4140    4.3970 N.3    55  TYR55      -0.1241
     66  CA       -16.0410   11.0040    4.6720 C.3    55  TYR55       0.1605
     67  C        -16.8030   10.5000    5.8850 C.2    55  TYR55       0.2264
     68  O        -17.5030    9.4900    5.8070 O.2    55  TYR55      -0.2867
     69  CB       -14.5540   10.6960    4.8520 C.3    55  TYR55       0.0534
     70  CG       -14.3630    9.2000    4.9890 C.ar   55  TYR55      -0.0201
     71  CD1      -14.3590    8.3820    3.8650 C.ar   55  TYR55      -0.0009
     72  CD2      -14.2320    8.6070    6.2340 C.ar   55  TYR55      -0.0009
     73  CE1      -14.2210    7.0140    3.9790 C.ar   55  TYR55       0.0417
     74  CE2      -14.0990    7.2430    6.3630 C.ar   55  TYR55       0.0417
     75  CZ       -14.0890    6.4520    5.2300 C.ar   55  TYR55       0.1957
     76  OH       -13.9540    5.0900    5.3550 O.3    55  TYR55      -0.2866
     77  N        -14.3380   -2.6810    7.0210 N.3    90  MET90      -0.1245
     78  CA       -13.4010   -1.8720    6.2400 C.3    90  MET90       0.1570
     79  C        -13.6800   -1.9520    4.7380 C.2    90  MET90       0.2261
     80  O        -13.6990   -0.9260    4.0450 O.2    90  MET90      -0.2867
     81  CB       -11.9670   -2.3040    6.5290 C.3    90  MET90       0.0387
     82  CG       -10.9010   -1.5170    5.7710 C.3    90  MET90       0.0595
     83  SD        -9.2530   -2.1850    6.0800 S.3    90  MET90      -0.1393
     84  CE        -9.2960   -3.6610    5.0800 C.3    90  MET90       0.0692
     85  N        -17.1710   -0.3780    3.9290 N.3    93  ASN93      -0.1225
     86  CA       -17.0790    1.0870    4.0070 C.3    93  ASN93       0.1785
     87  C        -16.5590    1.6740    2.7020 C.2    93  ASN93       0.2597
     88  O        -17.0240    2.7150    2.2290 O.2    93  ASN93      -0.2718
     89  CB       -16.1500    1.5350    5.1370 C.3    93  ASN93       0.1169
     90  CG       -16.7830    1.4030    6.5020 C.2    93  ASN93       0.2627
     91  OD1      -17.9950    1.2150    6.6300 O.2    93  ASN93      -0.2716
     92  ND2      -15.9620    1.5290    7.5360 N.am   93  ASN93      -0.0877
     93  N        -15.5680    1.0040    2.1270 N.am   94  CYS94      -0.1970
     94  CA       -14.9720    1.4810    0.8940 C.3    94  CYS94       0.1712
     95  C        -15.9970    1.4510   -0.2390 C.2    94  CYS94       0.2296
     96  O        -16.1120    2.4100   -1.0170 O.2    94  CYS94      -0.2864
     97  CB       -13.7440    0.6440    0.5530 C.3    94  CYS94       0.0983
     98  SG       -12.7960    1.2720   -0.8470 S.3    94  CYS94      -0.0798
     99  N        -18.5800    4.3170    0.4870 N.3    97  TYR97      -0.1227
    100  CA       -18.1480    5.7010    0.3460 C.3    97  TYR97       0.1736
    101  C        -17.8480    6.0850   -1.1050 C.2    97  TYR97       0.2595
    102  O        -17.9320    7.2620   -1.4700 O.2    97  TYR97      -0.2718
    103  CB       -16.9430    6.0130    1.2500 C.3    97  TYR97       0.0548
    104  CG       -16.4570    7.4360    1.0480 C.ar   97  TYR97      -0.0200
    105  CD1      -17.2370    8.5150    1.4380 C.ar   97  TYR97      -0.0009
    106  CD2      -15.2510    7.6980    0.4240 C.ar   97  TYR97      -0.0009
    107  CE1      -16.8160    9.8240    1.2160 C.ar   97  TYR97       0.0417
    108  CE2      -14.8180    8.9940    0.2090 C.ar   97  TYR97       0.0417
    109  CZ       -15.6050   10.0510    0.6080 C.ar   97  TYR97       0.1957
    110  OH       -15.1920   11.3510    0.3910 O.3    97  TYR97      -0.2866
    111  N        -17.5190    5.0950   -1.9270 N.am   98  ASN98      -0.1974
    112  CA       -17.1130    5.3560   -3.2960 C.3    98  ASN98       0.1688
    113  C        -18.1550    4.9030   -4.3160 C.2    98  ASN98       0.2292
    114  O        -19.3540    4.9770   -4.0300 O.2    98  ASN98      -0.2864
    115  CB       -15.7290    4.7610   -3.5260 C.3    98  ASN98       0.1181
    116  CG       -14.7060    5.3350   -2.5550 C.2    98  ASN98       0.2629
    117  OD1      -14.2820    6.4840   -2.7050 O.2    98  ASN98      -0.2716
    118  ND2      -14.3500    4.5620   -1.5190 N.am   98  ASN98      -0.0877
    119  N        -10.8580    3.4240   -8.7470 N.3   103  ASP103     -0.1225
    120  CA        -9.5560    2.8520   -8.4310 C.3   103  ASP103      0.1805
    121  C         -9.4880    2.3550   -6.9790 C.2   103  ASP103      0.2597
    122  O         -8.9860    1.2590   -6.7160 O.2   103  ASP103     -0.2718
    123  CB        -8.4210    3.8470   -8.7180 C.3   103  ASP103      0.1424
    124  CG        -8.0350    3.8930  -10.1930 C.2   103  ASP103      0.3668
    125  OD1       -8.5800    3.0940  -10.9910 O.co2 103  ASP103     -0.2456
    126  OD2       -7.1680    4.7180  -10.5390 O.co2 103  ASP103     -0.2456
    127  N        -10.0010    3.1500   -6.0400 N.am  104  ILE104     -0.1980
    128  CA        -9.9360    2.7640   -4.6260 C.3   104  ILE104      0.1595
    129  C        -10.7700    1.5050   -4.3770 C.2   104  ILE104      0.2287
    130  O        -10.4080    0.6620   -3.5580 O.2   104  ILE104     -0.2864
    131  CB       -10.3690    3.9330   -3.7000 C.3   104  ILE104      0.0276
    132  CG1      -10.2160    3.5670   -2.2240 C.3   104  ILE104      0.0022
    133  CG2      -11.8010    4.3540   -3.9910 C.3   104  ILE104      0.0022
    134  CD1       -8.7910    3.4950   -1.7780 C.3   104  ILE104      0.0001
    135  N         -8.9520   -1.5620   -5.5450 N.3   107  MET107     -0.1245
    136  CA        -7.9430   -1.9230   -4.5630 C.3   107  MET107      0.1570
    137  C         -8.5730   -2.7410   -3.4400 C.2   107  MET107      0.2261
    138  O         -8.0710   -3.8010   -3.0780 O.2   107  MET107     -0.2867
    139  CB        -7.2680   -0.6560   -4.0280 C.3   107  MET107      0.0387
    140  CG        -6.5220    0.0860   -5.1210 C.3   107  MET107      0.0595
    141  SD        -5.8950    1.6700   -4.5740 S.3   107  MET107     -0.1393
    142  CE        -4.4200    1.1350   -3.8060 C.3   107  MET107      0.0692
@<TRIPOS>BOND
     1   125   124   ar
     2   126   124   ar
     3   124   123    1
     4   119   120    1
     5   123   120    1
     6   120   121    1
     7   121   122    2
     8   121   127   am
     9   127   128    1
    10   135   136    1
    11   140   141    1
    12   140   139    1
    13   128   129    1
    14   128   131    1
    15   141   142    1
    16   136   139    1
    17   136   137    1
    18   129   130    2
    19   113   114    2
    20   113   112    1
    21   133   131    1
    22   131   132    1
    23   115   112    1
    24   115   116    1
    25   137   138    2
    26   112   111    1
    27    12    14   ar
    28    12    10   ar
    29     9    10   ar
    30     9     7   ar
    31   117   116    2
    32   116   118   am
    33    14    13   ar
    34    10     8   ar
    35   132   134    1
    36   111   101   am
    37     7     6   ar
    38   102   101    2
    39   101   100    1
    40    13    11   ar
    41    96    95    2
    42     8     6   ar
    43     8    11   ar
    44    98    97    1
    45    20    21    1
    46    20    19    1
    47     6     5    1
    48    64    62    1
    49    95    94    1
    50    21    15    1
    51    31    32   ar
    52    31    29   ar
    53    32    30   ar
    54    52    51    2
    55   108   106   ar
    56   108   109   ar
    57   100    99    1
    58   100   103    1
    59    19    16    1
    60   110   109    1
    61   106   104   ar
    62    97    94    1
    63   109   107   ar
    64     5     2    1
    65    94    93    1
    66     1     2    1
    67   104   103    1
    68   104   105   ar
    69    15    16    1
    70    15     3   am
    71    62    63    1
    72    62    61    1
    73   107   105   ar
    74    29    27   ar
    75    51    50    1
    76    30    28   ar
    77    56    54    1
    78    16    17    1
    79     2     3    1
    80     3     4    2
    81    50    53    1
    82    50    49    1
    83    58    61    1
    84    58    57    1
    85    58    59    1
    86    93    87   am
    87    53    54    1
    88    88    87    2
    89    27    28   ar
    90    27    26    1
    91    54    55    1
    92    87    86    1
    93    17    22   am
    94    17    18    2
    95    59    60    2
    96    22    23    1
    97    26    23    1
    98    71    73   ar
    99    71    70   ar
   100    85    86    1
   101    73    75   ar
   102    86    89    1
   103    80    79    2
   104    23    24    1
   105    65    66    1
   106    66    69    1
   107    66    67    1
   108    79    78    1
   109    69    70    1
   110    70    72   ar
   111    84    83    1
   112    89    90    1
   113    48    46    1
   114    47    46    1
   115    75    76    1
   116    75    74   ar
   117    41    39   am
   118    24    25    2
   119    82    83    1
   120    82    81    1
   121    68    67    2
   122    46    43    1
   123    72    74   ar
   124    78    81    1
   125    78    77    1
   126    39    40    2
   127    39    38    1
   128    90    91    2
   129    90    92   am
   130    43    44    1
   131    43    42    1
   132    44    45    2
   133    38    37    1
   134    36    35    2
   135    33    34    1
   136    35    34    1
   137    37    34    1
