@<TRIPOS>MOLECULE
tmp/4hxsA00.pdb
 143 143 0 0 0
SMALL
GASTEIGER

@<TRIPOS>ATOM
      1  N         -1.8690    0.3760    0.9700 N.3    39  TRP39      -0.1228
      2  CA        -1.6000    1.6870    1.5610 C.3    39  TRP39       0.1722
      3  C         -2.8150    2.5680    1.9190 C.2    39  TRP39       0.2437
      4  O         -2.7700    3.2550    2.9330 O.2    39  TRP39      -0.2733
      5  CB        -0.5590    2.4650    0.7320 C.3    39  TRP39       0.0563
      6  CG        -1.0040    2.7800   -0.6610 C.ar   39  TRP39       0.0003
      7  CD1       -0.7470    2.0620   -1.7900 C.ar   39  TRP39       0.0946
      8  CD2       -1.7910    3.9010   -1.0720 C.ar   39  TRP39       0.0152
      9  NE1       -1.3280    2.6620   -2.8820 N.ar   39  TRP39      -0.2442
     10  CE2       -1.9750    3.7970   -2.4650 C.ar   39  TRP39       0.0810
     11  CE3       -2.3650    4.9840   -0.3910 C.ar   39  TRP39       0.0012
     12  CZ2       -2.7090    4.7310   -3.1920 C.ar   39  TRP39       0.0191
     13  CZ3       -3.0880    5.9140   -1.1180 C.ar   39  TRP39       0.0001
     14  CH2       -3.2550    5.7820   -2.5020 C.ar   39  TRP39       0.0015
     15  N         -3.9080    2.5560    1.1200 N.am   40  PRO40      -0.2718
     16  CA        -5.0080    3.4410    1.5350 C.3    40  PRO40       0.1535
     17  C         -5.6920    2.9730    2.8170 C.2    40  PRO40       0.2599
     18  O         -6.4460    3.7290    3.4290 O.2    40  PRO40      -0.2715
     19  CB        -6.0020    3.3490    0.3670 C.3    40  PRO40       0.0310
     20  CG        -5.1960    2.8330   -0.7940 C.3    40  PRO40       0.0237
     21  CD        -4.2040    1.9020   -0.1690 C.3    40  PRO40       0.0939
     22  N         -5.4290    1.7290    3.2060 N.am   41  PHE41      -0.1960
     23  CA        -6.1620    1.0860    4.2810 C.3    41  PHE41       0.1771
     24  C         -5.3060    0.8780    5.5260 C.2    41  PHE41       0.2619
     25  O         -5.7240    0.1980    6.4560 O.2    41  PHE41      -0.2715
     26  CB        -6.7340   -0.2480    3.7800 C.3    41  PHE41       0.0574
     27  CG        -7.5210   -0.1060    2.5170 C.ar   41  PHE41      -0.0200
     28  CD1       -8.8250    0.3710    2.5520 C.ar   41  PHE41      -0.0042
     29  CD2       -6.9530   -0.4080    1.2840 C.ar   41  PHE41      -0.0042
     30  CE1       -9.5560    0.5500    1.3740 C.ar   41  PHE41      -0.0003
     31  CE2       -7.6770   -0.2400    0.1140 C.ar   41  PHE41      -0.0003
     32  CZ        -8.9790    0.2290    0.1580 C.ar   41  PHE41      -0.0000
     33  N         -4.1140    1.4660    5.5550 N.am   42  GLN42      -0.1963
     34  CA        -3.1770    1.2350    6.6630 C.3    42  GLN42       0.1733
     35  C         -3.3550    2.1740    7.8580 C.2    42  GLN42       0.2616
     36  O         -2.6690    2.0330    8.8710 O.2    42  GLN42      -0.2715
     37  CB        -1.7320    1.2930    6.1630 C.3    42  GLN42       0.0408
     38  CG        -1.3500    0.0850    5.3350 C.3    42  GLN42       0.0908
     39  CD         0.0000    0.2210    4.6690 C.2    42  GLN42       0.2608
     40  OE1        0.5270    1.3190    4.5170 O.2    42  GLN42      -0.2717
     41  NE2        0.5680   -0.9100    4.2580 N.am   42  GLN42      -0.0878
     42  N         -4.2800    3.1190    7.7360 N.am   43  GLN43      -0.1964
     43  CA        -4.5390    4.0770    8.8060 C.3    43  GLN43       0.1718
     44  C         -5.9590    4.5870    8.6460 C.2    43  GLN43       0.2458
     45  O         -6.5460    4.4430    7.5730 O.2    43  GLN43      -0.2730
     46  CB        -3.5500    5.2480    8.7380 C.3    43  GLN43       0.0407
     47  CG        -3.5540    5.9930    7.4180 C.3    43  GLN43       0.0908
     48  CD        -2.7910    5.2500    6.3380 C.2    43  GLN43       0.2608
     49  OE1       -1.6940    4.7390    6.5820 O.2    43  GLN43      -0.2717
     50  NE2       -3.3820    5.1540    5.1520 N.am   43  GLN43      -0.0878
     51  N         -6.5240    5.1880    9.7070 N.am   44  PRO44      -0.2716
     52  CA        -7.8640    5.7570    9.5520 C.3    44  PRO44       0.1536
     53  C         -7.9100    6.7850    8.4280 C.2    44  PRO44       0.2598
     54  O         -6.9340    7.5120    8.2120 O.2    44  PRO44      -0.2715
     55  CB        -8.0930    6.4560   10.8970 C.3    44  PRO44       0.0310
     56  CG        -7.2890    5.6570   11.8690 C.3    44  PRO44       0.0237
     57  CD        -6.0610    5.2200   11.1080 C.3    44  PRO44       0.0939
     58  N         -9.0260    6.8460    7.7140 N.am   45  VAL45      -0.1964
     59  CA        -9.2110    7.8810    6.7060 C.3    45  VAL45       0.1727
     60  C         -9.0810    9.2670    7.3400 C.2    45  VAL45       0.2616
     61  O         -9.7870    9.5990    8.2980 O.2    45  VAL45      -0.2715
     62  CB       -10.5700    7.7330    5.9920 C.3    45  VAL45       0.0290
     63  CG1      -10.8310    8.9430    5.0920 C.3    45  VAL45       0.0023
     64  CG2      -10.6170    6.4180    5.2090 C.3    45  VAL45       0.0023
     65  N         -8.1420   10.0570    6.8280 N.am   46  ASP46      -0.1971
     66  CA        -7.9410   11.4260    7.2890 C.3    46  ASP46       0.1709
     67  C         -8.6650   12.3590    6.3300 C.2    46  ASP46       0.2293
     68  O         -8.1630   12.6780    5.2480 O.2    46  ASP46      -0.2864
     69  CB        -6.4490   11.7580    7.3440 C.3    46  ASP46       0.1436
     70  CG        -6.1640   13.0910    8.0120 C.2    46  ASP46       0.3671
     71  OD1       -7.0120   14.0040    7.9440 O.co2  46  ASP46      -0.2456
     72  OD2       -5.0730   13.2270    8.6010 O.co2  46  ASP46      -0.2456
     73  N         -6.6540   15.6520    5.5180 N.3    49  LYS49      -0.1231
     74  CA        -5.5240   15.3650    4.6410 C.3    49  LYS49       0.1693
     75  C         -5.9870   15.0320    3.2210 C.2    49  LYS49       0.2591
     76  O         -5.5090   15.6180    2.2460 O.2    49  LYS49      -0.2718
     77  CB        -4.7090   14.2050    5.2220 C.3    49  LYS49       0.0285
     78  CG        -3.6060   13.6680    4.3310 C.3    49  LYS49       0.0035
     79  CD        -2.3800   14.5530    4.3410 C.3    49  LYS49       0.0206
     80  CE        -1.2680   13.9330    3.5030 C.3    49  LYS49       0.1093
     81  NZ        -0.0490   14.7720    3.5030 N.3    49  LYS49      -0.1314
     82  N         -6.9360   14.1050    3.1110 N.am   50  LEU50      -0.1980
     83  CA        -7.3520   13.5730    1.8140 C.3    50  LEU50       0.1596
     84  C         -8.4100   14.4140    1.1150 C.2    50  LEU50       0.2287
     85  O         -8.8330   14.0870   -0.0000 O.2    50  LEU50      -0.2864
     86  CB        -7.8710   12.1440    1.9780 C.3    50  LEU50       0.0297
     87  CG        -6.8350   11.1610    2.5110 C.3    50  LEU50       0.0022
     88  CD1       -7.4880    9.8160    2.7470 C.3    50  LEU50       0.0001
     89  CD2       -5.6700   11.0400    1.5330 C.3    50  LEU50       0.0001
     90  N        -11.6080   14.8460    1.8770 N.3    52  LEU52      -0.1245
     91  CA       -12.8570   14.0850    1.7840 C.3    52  LEU52       0.1561
     92  C        -13.7910   14.5500    2.8990 C.2    52  LEU52       0.2260
     93  O        -14.0660   13.8000    3.8370 O.2    52  LEU52      -0.2867
     94  CB       -12.5840   12.5830    1.9260 C.3    52  LEU52       0.0270
     95  CG       -11.5410   11.9800    0.9820 C.3    52  LEU52       0.0019
     96  CD1      -11.2400   10.5290    1.3490 C.3    52  LEU52       0.0001
     97  CD2      -12.0030   12.0820   -0.4530 C.3    52  LEU52       0.0001
     98  N        -16.6060   12.2730    4.1080 N.3    55  TYR55      -0.1241
     99  CA       -16.3460   10.8640    4.4060 C.3    55  TYR55       0.1605
    100  C        -17.1130   10.4000    5.6360 C.2    55  TYR55       0.2264
    101  O        -17.8410    9.4070    5.5760 O.2    55  TYR55      -0.2867
    102  CB       -14.8530   10.5680    4.5820 C.3    55  TYR55       0.0534
    103  CG       -14.6230    9.0870    4.7540 C.ar   55  TYR55      -0.0201
    104  CD1      -14.5630    8.2470    3.6480 C.ar   55  TYR55      -0.0009
    105  CD2      -14.5130    8.5250    6.0180 C.ar   55  TYR55      -0.0009
    106  CE1      -14.3900    6.8870    3.7950 C.ar   55  TYR55       0.0417
    107  CE2      -14.3360    7.1580    6.1760 C.ar   55  TYR55       0.0417
    108  CZ       -14.2730    6.3520    5.0530 C.ar   55  TYR55       0.1957
    109  OH       -14.1060    4.9990    5.1810 O.3    55  TYR55      -0.2866
    110  N        -15.5490    0.9690    2.1010 N.3    94  CYS94      -0.1235
    111  CA       -14.9960    1.4250    0.8480 C.3    94  CYS94       0.1677
    112  C        -16.0360    1.3470   -0.2730 C.2    94  CYS94       0.2270
    113  O        -16.1690    2.2760   -1.0710 O.2    94  CYS94      -0.2867
    114  CB       -13.7470    0.6230    0.5130 C.3    94  CYS94       0.0956
    115  SG       -12.8490    1.2350   -0.9230 S.3    94  CYS94      -0.0801
    116  N        -18.7320    4.1980    0.4060 N.3    97  TYR97      -0.1227
    117  CA       -18.3320    5.5870    0.2110 C.3    97  TYR97       0.1736
    118  C        -18.0550    5.9160   -1.2540 C.2    97  TYR97       0.2595
    119  O        -18.2010    7.0730   -1.6820 O.2    97  TYR97      -0.2718
    120  CB       -17.1140    5.9490    1.0690 C.3    97  TYR97       0.0548
    121  CG       -16.6650    7.3700    0.8310 C.ar   97  TYR97      -0.0200
    122  CD1      -17.4590    8.4340    1.2260 C.ar   97  TYR97      -0.0009
    123  CD2      -15.4610    7.6490    0.1960 C.ar   97  TYR97      -0.0009
    124  CE1      -17.0730    9.7410    0.9960 C.ar   97  TYR97       0.0417
    125  CE2      -15.0620    8.9500   -0.0330 C.ar   97  TYR97       0.0417
    126  CZ       -15.8710    9.9910    0.3740 C.ar   97  TYR97       0.1957
    127  OH       -15.4790   11.2900    0.1410 O.3    97  TYR97      -0.2866
    128  N        -17.6650    4.9090   -2.0220 N.am   98  ASN98      -0.1974
    129  CA       -17.2560    5.1420   -3.3950 C.3    98  ASN98       0.1688
    130  C        -18.2650    4.6030   -4.4060 C.2    98  ASN98       0.2292
    131  O        -19.4570    4.5020   -4.0950 O.2    98  ASN98      -0.2864
    132  CB       -15.8420    4.5990   -3.6030 C.3    98  ASN98       0.1181
    133  CG       -14.8410    5.2340   -2.6460 C.2    98  ASN98       0.2629
    134  OD1      -14.4340    6.3770   -2.8410 O.2    98  ASN98      -0.2716
    135  ND2      -14.4680    4.5100   -1.5920 N.am   98  ASN98      -0.0877
    136  N        -10.0550    3.0810   -6.0070 N.3   104  ILE104     -0.1245
    137  CA        -9.9660    2.6630   -4.6170 C.3   104  ILE104      0.1561
    138  C        -10.7940    1.3900   -4.3660 C.2   104  ILE104      0.2260
    139  O        -10.4150    0.5270   -3.5720 O.2   104  ILE104     -0.2867
    140  CB       -10.3760    3.8190   -3.6750 C.3   104  ILE104      0.0252
    141  CG1      -10.0700    3.4680   -2.2230 C.3   104  ILE104      0.0019
    142  CG2      -11.8390    4.1910   -3.8600 C.3   104  ILE104      0.0019
    143  CD1       -8.6060    3.3910   -1.9500 C.3   104  ILE104      0.0001
@<TRIPOS>BOND
     1   136   137    1
     2   137   138    1
     3   137   140    1
     4   130   131    2
     5   130   129    1
     6   138   139    2
     7   142   140    1
     8   140   141    1
     9   132   129    1
    10   132   133    1
    11   129   128    1
    12    12    14   ar
    13    12    10   ar
    14     9    10   ar
    15     9     7   ar
    16   134   133    2
    17   133   135   am
    18    14    13   ar
    19    10     8   ar
    20   141   143    1
    21   128   118   am
    22     7     6   ar
    23   119   118    2
    24   118   117    1
    25    13    11   ar
    26     8     6   ar
    27     8    11   ar
    28   113   112    2
    29   115   114    1
    30    20    21    1
    31    20    19    1
    32     6     5    1
    33    97    95    1
    34   112   111    1
    35    21    15    1
    36   125   123   ar
    37   125   126   ar
    38    85    84    2
    39    31    32   ar
    40    31    29   ar
    41   127   126    1
    42    32    30   ar
    43   123   121   ar
    44   117   116    1
    45   117   120    1
    46    19    16    1
    47   126   124   ar
    48   114   111    1
    49     5     2    1
    50   121   120    1
    51   121   122   ar
    52   111   110    1
    53     1     2    1
    54    95    96    1
    55    95    94    1
    56   124   122   ar
    57    84    83    1
    58    15    16    1
    59    15     3   am
    60    29    27   ar
    61    30    28   ar
    62    89    87    1
    63    16    17    1
    64     2     3    1
    65    91    90    1
    66    91    94    1
    67    91    92    1
    68    83    86    1
    69    83    82    1
    70     3     4    2
    71    86    87    1
    72    76    75    2
    73    87    88    1
    74    27    28   ar
    75    27    26    1
    76    17    22   am
    77    17    18    2
    78    92    93    2
    79    82    75   am
    80    22    23    1
    81    75    74    1
    82    80    81    1
    83    80    79    1
    84   104   106   ar
    85   104   103   ar
    86    26    23    1
    87   106   108   ar
    88    98    99    1
    89    41    39   am
    90    23    24    1
    91    78    79    1
    92    78    77    1
    93    99   102    1
    94    99   100    1
    95    40    39    2
    96   102   103    1
    97    74    77    1
    98    74    73    1
    99    39    38    1
   100   103   105   ar
   101   108   109    1
   102   108   107   ar
   103    63    62    1
   104    50    48   am
   105    64    62    1
   106    68    67    2
   107    38    37    1
   108    24    33   am
   109    24    25    2
   110    33    34    1
   111   101   100    2
   112    62    59    1
   113   105   107   ar
   114    37    34    1
   115    67    66    1
   116    48    49    2
   117    48    47    1
   118    34    35    1
   119    59    60    1
   120    59    58    1
   121    65    66    1
   122    65    60   am
   123    66    69    1
   124    60    61    2
   125    69    70    1
   126    47    46    1
   127    45    44    2
   128    58    53   am
   129    42    35   am
   130    42    43    1
   131    35    36    2
   132    71    70   ar
   133    70    72   ar
   134    54    53    2
   135    53    52    1
   136    44    43    1
   137    44    51   am
   138    46    43    1
   139    52    51    1
   140    52    55    1
   141    51    57    1
   142    55    56    1
   143    57    56    1
