@<TRIPOS>MOLECULE
tmp/4hxvA00.pdb
 161 154 0 0 0
SMALL
GASTEIGER

@<TRIPOS>ATOM
      1  N          9.3460    2.3240    9.3130 N.3    69  GLU69      -0.1245
      2  CA         9.9950    1.2080   10.0030 C.3    69  GLU69       0.1567
      3  C         10.4710    0.0560    9.1140 C.2    69  GLU69       0.2260
      4  O         11.6180   -0.3690    9.2300 O.2    69  GLU69      -0.2867
      5  CB         9.0970    0.6630   11.1130 C.3    69  GLU69       0.0388
      6  CG         9.7020   -0.5270   11.8300 C.3    69  GLU69       0.1160
      7  CD         8.8550   -1.0190   12.9790 C.2    69  GLU69       0.3649
      8  OE1        7.6700   -0.6420   13.0720 O.co2  69  GLU69      -0.2457
      9  OE2        9.3830   -1.7990   13.7930 O.co2  69  GLU69      -0.2457
     10  N          4.7610    4.6370   11.3270 N.3   118  ASP118     -0.1239
     11  CA         4.6940    3.2750   11.8290 C.3   118  ASP118      0.1674
     12  C          3.4930    2.5620   11.2220 C.2   118  ASP118      0.2266
     13  O          2.3630    2.8660   11.5510 O.2   118  ASP118     -0.2867
     14  CB         4.6240    3.2200   13.3440 C.3   118  ASP118      0.1410
     15  CG         5.3290    2.0120   13.8890 C.2   118  ASP118      0.3668
     16  OD1        5.5270    1.0420   13.1280 O.co2 118  ASP118     -0.2456
     17  OD2        5.7330    2.0280   15.0630 O.co2 118  ASP118     -0.2456
     18  N          1.9850    0.0180   14.8020 N.3   121  ASP121     -0.1225
     19  CA         2.6860    0.3240   16.0120 C.3   121  ASP121      0.1805
     20  C          2.2130   -0.6120   17.0980 C.2   121  ASP121      0.2598
     21  O          1.0140   -0.7370   17.3290 O.2   121  ASP121     -0.2718
     22  CB         2.4070    1.7500   16.3970 C.3   121  ASP121      0.1424
     23  CG         3.3830    2.2530   17.3840 C.2   121  ASP121      0.3668
     24  OD1        3.1130    2.1720   18.5950 O.co2 121  ASP121     -0.2456
     25  OD2        4.4560    2.6950   16.9510 O.co2 121  ASP121     -0.2456
     26  N          3.1590   -1.2720   17.7560 N.am  122  GLY122     -0.1957
     27  CA         2.8400   -2.3570   18.6750 C.3   122  GLY122      0.1869
     28  C          2.3560   -3.5780   17.9180 C.2   122  GLY122      0.2309
     29  O          1.2160   -4.0000   18.0680 O.2   122  GLY122     -0.2863
     30  N          3.7350   -0.0310   28.6360 N.3   198  SER198     -0.1217
     31  CA         3.7870   -1.1820   27.7330 C.3   198  SER198      0.1889
     32  C          3.4720   -2.5020   28.4230 C.2   198  SER198      0.2288
     33  O          3.6060   -2.6220   29.6430 O.2   198  SER198     -0.2866
     34  CB         5.1690   -1.2940   27.1050 C.3   198  SER198      0.2089
     35  OG         5.5890   -0.0590   26.5700 O.3   198  SER198     -0.2183
     36  N          4.8790   -5.3880   27.2370 N.3   200  GLU200     -0.1245
     37  CA         6.1710   -6.0490   27.1780 C.3   200  GLU200      0.1567
     38  C          7.1720   -5.6110   28.2380 C.2   200  GLU200      0.2260
     39  O          7.3720   -4.4200   28.4810 O.2   200  GLU200     -0.2867
     40  CB         6.7700   -5.8650   25.7960 C.3   200  GLU200      0.0388
     41  CG         6.0130   -6.6630   24.7620 C.3   200  GLU200      0.1160
     42  CD         6.0320   -8.1540   25.0500 C.2   200  GLU200      0.3649
     43  OE1        7.1260   -8.7630   25.0300 O.co2 200  GLU200     -0.2457
     44  OE2        4.9440   -8.7190   25.2850 O.co2 200  GLU200     -0.2457
     45  N         10.2720   -5.9930   28.0400 N.3   202  SER202     -0.1202
     46  CA        11.5090   -5.5390   27.4320 C.3   202  SER202      0.2020
     47  C         11.3950   -4.0900   27.0010 C.2   202  SER202      0.2618
     48  O         12.3980   -3.4270   26.7760 O.2   202  SER202     -0.2717
     49  CB        11.9320   -6.4300   26.2610 C.3   202  SER202      0.2103
     50  OG        10.8250   -6.8440   25.4860 O.3   202  SER202     -0.2182
     51  N         10.1720   -3.5920   26.9170 N.am  203  HIS203     -0.1975
     52  CA         9.9840   -2.2330   26.4620 C.3   203  HIS203      0.1656
     53  C          9.8660   -1.2090   27.5360 C.2   203  HIS203      0.2291
     54  O          9.9200   -0.0140   27.2400 O.2   203  HIS203     -0.2864
     55  CB         8.7900   -2.1550   25.5560 C.3   203  HIS203      0.0771
     56  CG         8.9120   -3.0220   24.3460 C.ar  203  HIS203      0.0820
     57  ND1        7.8730   -3.2860   23.5460 N.ar  203  HIS203     -0.2267
     58  CD2       10.0040   -3.7040   23.8150 C.ar  203  HIS203      0.1154
     59  CE1        8.2710   -4.0880   22.5430 C.ar  203  HIS203      0.1986
     60  NE2        9.5780   -4.3380   22.7050 N.ar  203  HIS203     -0.2212
     61  N         -0.3700   -1.9720   24.6740 N.3   226  ASP226     -0.1225
     62  CA         0.6170   -1.8800   23.6210 C.3   226  ASP226      0.1805
     63  C          0.3580   -0.6480   22.7960 C.2   226  ASP226      0.2598
     64  O         -0.7710   -0.1520   22.7600 O.2   226  ASP226     -0.2718
     65  CB         0.5310   -3.0830   22.7030 C.3   226  ASP226      0.1424
     66  CG         0.7840   -4.3950   23.4200 C.2   226  ASP226      0.3668
     67  OD1        1.9620   -4.7610   23.6310 O.co2 226  ASP226     -0.2456
     68  OD2       -0.2060   -5.0860   23.7340 O.co2 226  ASP226     -0.2456
     69  N          1.4270   -0.1540   22.1660 N.am  227  SER227     -0.1952
     70  CA         1.3790    0.8380   21.0850 C.3   227  SER227      0.1924
     71  C          1.1910    2.3090   21.4810 C.2   227  SER227      0.2314
     72  O          0.9200    2.6360   22.6370 O.2   227  SER227     -0.2863
     73  CB         0.3000    0.4560   20.0810 C.3   227  SER227      0.2116
     74  OG        -0.9580    0.9170   20.5320 O.3   227  SER227     -0.2180
     75  N         -1.2340    4.5440   23.7930 N.3   230  LYS230     -0.1245
     76  CA        -1.0230    5.0550   25.1370 C.3   230  LYS230      0.1561
     77  C         -1.0170    6.5740   25.1640 C.2   230  LYS230      0.2260
     78  O         -1.3850    7.1760   26.1690 O.2   230  LYS230     -0.2867
     79  CB         0.2770    4.5110   25.7140 C.3   230  LYS230      0.0271
     80  CG         0.1610    3.0810   26.2010 C.3   230  LYS230      0.0035
     81  CD         1.4080    2.6480   26.9440 C.3   230  LYS230      0.0206
     82  CE         2.6030    2.5460   26.0140 C.3   230  LYS230      0.1093
     83  NZ         2.5760    1.2980   25.2120 N.3   230  LYS230     -0.1314
     84  N          7.4930    5.4390   30.1060 N.3   244  ARG244     -0.1231
     85  CA         8.2400    4.4880   29.3640 C.3   244  ARG244      0.1694
     86  C          9.5980    4.6110   29.9690 C.2   244  ARG244      0.2592
     87  O         10.2160    5.6620   29.8630 O.2   244  ARG244     -0.2718
     88  CB         8.2600    4.8910   27.9100 C.3   244  ARG244      0.0321
     89  CG         8.5460    3.7340   26.9970 C.3   244  ARG244      0.0489
     90  CD         8.6310    4.2140   25.5740 C.3   244  ARG244      0.2205
     91  NE         8.9800    3.1070   24.6990 N.pl3 244  ARG244     -0.0865
     92  CZ         8.0990    2.2400   24.2200 C.cat 244  ARG244      0.5346
     93  NH1        6.8140    2.3620   24.5220 N.pl3 244  ARG244      0.1354
     94  NH2        8.5030    1.2620   23.4290 N.pl3 244  ARG244      0.1354
     95  N         10.0380    3.5490   30.6330 N.am  245  LEU245     -0.1966
     96  CA        11.2280    3.5840   31.4700 C.3   245  LEU245      0.1713
     97  C         12.3480    2.7050   30.9350 C.2   245  LEU245      0.2458
     98  O         12.1700    1.5210   30.7080 O.2   245  LEU245     -0.2730
     99  CB        10.8680    3.1420   32.8800 C.3   245  LEU245      0.0310
    100  CG        10.3120    4.0910   33.9530 C.3   245  LEU245      0.0022
    101  CD1        9.8030    5.4590   33.5010 C.3   245  LEU245      0.0001
    102  CD2        9.2290    3.3600   34.7110 C.3   245  LEU245      0.0001
    103  N         13.5170    3.2910   30.7270 N.am  246  PRO246     -0.2727
    104  CA        14.6290    2.5410   30.1650 C.3   246  PRO246      0.1402
    105  C         15.4720    1.7680   31.1780 C.2   246  PRO246      0.2269
    106  O         15.4450    2.0320   32.3780 O.2   246  PRO246     -0.2865
    107  CB        15.4710    3.6270   29.5030 C.3   246  PRO246      0.0296
    108  CG        15.1020    4.8900   30.2080 C.3   246  PRO246      0.0237
    109  CD        13.6520    4.7420   30.5410 C.3   246  PRO246      0.0939
    110  N         19.7010    2.7130   24.7610 N.3   251  TYR251     -0.1241
    111  CA        18.5510    2.5780   23.8830 C.3   251  TYR251      0.1605
    112  C         18.1380    3.9590   23.3810 C.2   251  TYR251      0.2264
    113  O         18.0440    4.9080   24.1550 O.2   251  TYR251     -0.2867
    114  CB        17.3690    1.8690   24.5540 C.3   251  TYR251      0.0534
    115  CG        16.2380    1.7110   23.5940 C.ar  251  TYR251     -0.0201
    116  CD1       15.1060    2.4950   23.7040 C.ar  251  TYR251     -0.0009
    117  CD2       16.3400    0.8250   22.5320 C.ar  251  TYR251     -0.0009
    118  CE1       14.0910    2.3810   22.8030 C.ar  251  TYR251      0.0417
    119  CE2       15.3220    0.6970   21.6280 C.ar  251  TYR251      0.0417
    120  CZ        14.2040    1.4840   21.7760 C.ar  251  TYR251      0.1957
    121  OH        13.1880    1.3740   20.8880 O.3   251  TYR251     -0.2866
    122  N         15.0260    5.7040   21.4900 N.3   253  GLU253     -0.1231
    123  CA        13.6930    5.5620   20.9420 C.3   253  GLU253      0.1699
    124  C         13.5530    5.9760   19.4710 C.2   253  GLU253      0.2592
    125  O         14.0720    7.0130   19.0410 O.2   253  GLU253     -0.2718
    126  CB        12.7180    6.3440   21.8030 C.3   253  GLU253      0.0402
    127  CG        12.5800    5.7810   23.2070 C.3   253  GLU253      0.1161
    128  CD        11.6270    4.5970   23.2880 C.2   253  GLU253      0.3649
    129  OE1       11.0040    4.2220   22.2660 O.co2 253  GLU253     -0.2457
    130  OE2       11.4960    4.0310   24.3920 O.co2 253  GLU253     -0.2457
    131  N         12.8210    5.1590   18.7180 N.am  254  LYS254     -0.1980
    132  CA        12.5210    5.4580   17.3230 C.3   254  LYS254      0.1596
    133  C         11.5380    6.6180   17.2380 C.2   254  LYS254      0.2287
    134  O         10.6330    6.7500   18.0630 O.2   254  LYS254     -0.2864
    135  CB        11.9290    4.2390   16.6050 C.3   254  LYS254      0.0298
    136  CG        12.8260    3.0100   16.5010 C.3   254  LYS254      0.0038
    137  CD        14.3050    3.3820   16.5550 C.3   254  LYS254      0.0206
    138  CE        15.2140    2.1690   16.7390 C.3   254  LYS254      0.1093
    139  NZ        15.6120    1.8880   18.1550 N.3   254  LYS254     -0.1314
    140  N          9.3130    6.9460   15.0700 N.3   256  TRP256     -0.1227
    141  CA         8.0080    6.4560   14.6380 C.3   256  TRP256      0.1737
    142  C          7.2790    5.7780   15.7510 C.2   256  TRP256      0.2595
    143  O          6.1530    5.3310   15.5930 O.2   256  TRP256     -0.2718
    144  CB         8.1030    5.5670   13.4150 C.3   256  TRP256      0.0564
    145  CG         9.0680    4.4560   13.5670 C.ar  256  TRP256      0.0003
    146  CD1        8.8690    3.2510   14.2010 C.ar  256  TRP256      0.0946
    147  CD2       10.4160    4.4200   13.0750 C.ar  256  TRP256      0.0152
    148  NE1        9.9910    2.4820   14.1330 N.ar  256  TRP256     -0.2442
    149  CE2       10.9570    3.1240   13.4660 C.ar  256  TRP256      0.0810
    150  CE3       11.2050    5.2930   12.3790 C.ar  256  TRP256      0.0012
    151  CZ2       12.2360    2.7410   13.1530 C.ar  256  TRP256      0.0191
    152  CZ3       12.5000    4.9030   12.0680 C.ar  256  TRP256      0.0001
    153  CH2       13.0050    3.6560   12.4530 C.ar  256  TRP256      0.0015
    154  N          7.9050    5.7290   16.9090 N.am  257  ASP257     -0.1974
    155  CA         7.1900    5.3100   18.0700 C.3   257  ASP257      0.1709
    156  C          6.6020    6.4530   18.8510 C.2   257  ASP257      0.2293
    157  O          5.8740    6.2060   19.7980 O.2   257  ASP257     -0.2864
    158  CB         8.1060    4.5290   18.9820 C.3   257  ASP257      0.1436
    159  CG         8.3030    3.1270   18.5150 C.2   257  ASP257      0.3671
    160  OD1        7.4110    2.6000   17.8190 O.co2 257  ASP257     -0.2456
    161  OD2        9.3470    2.5360   18.8450 O.co2 257  ASP257     -0.2456
@<TRIPOS>BOND
     1     3     4    2
     2     3     2    1
     3     1     2    1
     4     2     5    1
     5     5     6    1
     6    12    13    2
     7    12    11    1
     8    10    11    1
     9    11    14    1
    10     6     7    1
    11   152   150   ar
    12   152   153   ar
    13   150   147   ar
    14   153   151   ar
    15     7     8   ar
    16     7     9   ar
    17   147   149   ar
    18   147   145   ar
    19    16    15   ar
    20   151   149   ar
    21    14    15    1
    22   144   145    1
    23   144   141    1
    24   149   148   ar
    25   145   146   ar
    26    15    17   ar
    27   148   146   ar
    28   141   140    1
    29   141   142    1
    30    18    19    1
    31   143   142    2
    32   142   154   am
    33    19    22    1
    34    19    20    1
    35    22    23    1
    36   136   137    1
    37   136   135    1
    38   137   138    1
    39   135   132    1
    40   138   139    1
    41   154   155    1
    42    25    23   ar
    43    20    21    2
    44    20    26   am
    45   133   132    1
    46   133   134    2
    47   132   131    1
    48    23    24   ar
    49    26    27    1
    50   160   159   ar
    51    28    29    2
    52    28    27    1
    53   155   156    1
    54   155   158    1
    55   159   161   ar
    56   159   158    1
    57   131   124   am
    58   156   157    2
    59   125   124    2
    60   124   123    1
    61    73    74    1
    62    73    70    1
    63   121   120    1
    64   123   122    1
    65   123   126    1
    66    70    71    1
    67    70    69    1
    68    71    72    2
    69   119   120   ar
    70   119   117   ar
    71   120   118   ar
    72   126   127    1
    73    69    63   am
    74   129   128   ar
    75   117   115   ar
    76    59    60   ar
    77    59    57   ar
    78    65    66    1
    79    65    62    1
    80    60    58   ar
    81    64    63    2
    82    63    62    1
    83   118   116   ar
    84   127   128    1
    85   128   130   ar
    86   112   111    1
    87   112   113    2
    88    66    67   ar
    89    66    68   ar
    90    94    92    1
    91    57    56   ar
    92   115   116   ar
    93   115   114    1
    94    62    61    1
    95    75    76    1
    96    58    56   ar
    97   111   114    1
    98   111   110    1
    99    92    93    1
   100    92    91    2
   101    56    55    1
   102    91    90    1
   103    41    42    1
   104    41    40    1
   105    43    42   ar
   106    42    44   ar
   107    76    77    1
   108    76    79    1
   109    77    78    2
   110    83    82    1
   111    50    49    1
   112    55    52    1
   113    90    89    1
   114    79    80    1
   115    40    37    1
   116    82    81    1
   117    80    81    1
   118    49    46    1
   119    52    51    1
   120    52    53    1
   121    35    34    1
   122    48    47    2
   123    51    47   am
   124    89    88    1
   125    47    46    1
   126    34    31    1
   127    37    36    1
   128    37    38    1
   129    54    53    2
   130    46    45    1
   131    31    32    1
   132    31    30    1
   133    88    85    1
   134    38    39    2
   135    32    33    2
   136    85    86    1
   137    85    84    1
   138   107   104    1
   139   107   108    1
   140    87    86    2
   141    86    95   am
   142   104   103    1
   143   104   105    1
   144   108   109    1
   145   109   103    1
   146    95    96    1
   147    98    97    2
   148   103    97   am
   149    97    96    1
   150   105   106    2
   151    96    99    1
   152    99   100    1
   153   101   100    1
   154   100   102    1
