@<TRIPOS>MOLECULE
tmp/4hxwA00.pdb
 138 128 0 0 0
SMALL
GASTEIGER

@<TRIPOS>ATOM
      1  N        -12.7260    4.1380  -10.5180 N.3    28  ILE28      -0.1245
      2  CA       -13.0400    2.7140  -10.3970 C.3    28  ILE28       0.1561
      3  C        -14.0910    2.3000  -11.4260 C.2    28  ILE28       0.2260
      4  O        -13.8960    1.3130  -12.1520 O.2    28  ILE28      -0.2867
      5  CB       -13.4940    2.3210   -8.9720 C.3    28  ILE28       0.0252
      6  CG1      -12.4140    2.6750   -7.9320 C.3    28  ILE28       0.0019
      7  CG2      -13.8150    0.8240   -8.8930 C.3    28  ILE28       0.0019
      8  CD1      -11.0580    2.0350   -8.1970 C.3    28  ILE28       0.0001
      9  N        -13.0540    1.5550  -15.0380 N.3    31  ASN31      -0.1225
     10  CA       -12.4870    0.2240  -15.2530 C.3    31  ASN31       0.1785
     11  C        -13.5620   -0.8370  -15.5230 C.2    31  ASN31       0.2597
     12  O        -13.3720   -1.7250  -16.3640 O.2    31  ASN31      -0.2718
     13  CB       -11.6090   -0.1810  -14.0630 C.3    31  ASN31       0.1169
     14  CG       -10.3010    0.5960  -14.0060 C.2    31  ASN31       0.2627
     15  OD1       -9.3710    0.3250  -14.7660 O.2    31  ASN31      -0.2716
     16  ND2      -10.2130    1.5410  -13.0820 N.am   31  ASN31      -0.0877
     17  N        -14.6850   -0.7480  -14.8050 N.am   32  SER32      -0.1952
     18  CA       -15.8210   -1.6450  -15.0480 C.3    32  SER32       0.1924
     19  C        -16.4490   -1.3940  -16.4270 C.2    32  SER32       0.2314
     20  O        -16.8290   -2.3340  -17.1300 O.2    32  SER32      -0.2863
     21  CB       -16.8620   -1.5180  -13.9340 C.3    32  SER32       0.2116
     22  OG       -16.3430   -2.0160  -12.7030 O.3    32  SER32      -0.2180
     23  N        -14.8020   -0.2780  -19.0030 N.3    34  ASP34      -0.1225
     24  CA       -13.8750   -0.8630  -19.9870 C.3    34  ASP34       0.1805
     25  C        -14.1600   -2.3470  -20.1780 C.2    34  ASP34       0.2597
     26  O        -14.0420   -2.8630  -21.2870 O.2    34  ASP34      -0.2718
     27  CB       -12.4070   -0.6600  -19.5940 C.3    34  ASP34       0.1424
     28  CG       -11.9070    0.7530  -19.8750 C.2    34  ASP34       0.3668
     29  OD1      -10.8000    1.0680  -19.4030 O.co2  34  ASP34      -0.2456
     30  OD2      -12.6010    1.5450  -20.5510 O.co2  34  ASP34      -0.2456
     31  N        -14.5420   -3.0240  -19.0940 N.am   35  GLU35      -0.1979
     32  CA       -14.8300   -4.4520  -19.1300 C.3    35  GLU35       0.1602
     33  C        -16.2050   -4.7260  -19.7780 C.2    35  GLU35       0.2287
     34  O        -16.4330   -5.8030  -20.3500 O.2    35  GLU35      -0.2864
     35  CB       -14.6970   -5.0480  -17.7170 C.3    35  GLU35       0.0415
     36  CG       -14.9600   -6.5520  -17.6130 C.3    35  GLU35       0.1163
     37  CD       -13.9800   -7.4120  -18.3900 C.2    35  GLU35       0.3649
     38  OE1      -13.0690   -6.8740  -19.0600 O.co2  35  GLU35      -0.2457
     39  OE2      -14.1220   -8.6490  -18.3200 O.co2  35  GLU35      -0.2457
     40  N        -18.1230   -0.7880   -5.6480 N.3    56  VAL56      -0.1245
     41  CA       -18.4220   -0.9310   -7.0760 C.3    56  VAL56       0.1561
     42  C        -18.3750   -2.4240   -7.4090 C.2    56  VAL56       0.2260
     43  O        -17.3660   -3.0940   -7.1650 O.2    56  VAL56      -0.2867
     44  CB       -17.4070   -0.1640   -7.9530 C.3    56  VAL56       0.0252
     45  CG1      -17.6780   -0.4240   -9.4330 C.3    56  VAL56       0.0019
     46  CG2      -17.4440    1.3380   -7.6490 C.3    56  VAL56       0.0019
     47  N        -19.0530   -5.2910  -10.4470 N.3    58  ASP58      -0.1239
     48  CA       -19.3800   -5.6420  -11.8350 C.3    58  ASP58       0.1674
     49  C        -19.4500   -7.1550  -12.0140 C.2    58  ASP58       0.2266
     50  O        -19.0480   -7.9190  -11.1200 O.2    58  ASP58      -0.2867
     51  CB       -18.4540   -4.9570  -12.8780 C.3    58  ASP58       0.1410
     52  CG       -17.0320   -5.5300  -12.9130 C.2    58  ASP58       0.3668
     53  OD1      -16.0720   -4.7230  -12.8740 O.co2  58  ASP58      -0.2456
     54  OD2      -16.8640   -6.7730  -13.0040 O.co2  58  ASP58      -0.2456
     55  N        -15.2500  -10.4330  -16.2780 N.3    61  ARG61      -0.1231
     56  CA       -14.4570  -11.6540  -16.1800 C.3    61  ARG61       0.1694
     57  C        -13.7750  -11.8110  -14.8320 C.2    61  ARG61       0.2593
     58  O        -13.4460  -12.9330  -14.4250 O.2    61  ARG61      -0.2718
     59  CB       -13.3860  -11.6880  -17.2590 C.3    61  ARG61       0.0321
     60  CG       -13.9050  -11.9320  -18.6630 C.3    61  ARG61       0.0489
     61  CD       -12.8010  -11.7010  -19.6820 C.3    61  ARG61       0.2205
     62  NE       -12.4630  -10.2840  -19.8510 N.pl3  61  ARG61      -0.0865
     63  CZ       -11.5640   -9.8200  -20.7190 C.cat  61  ARG61       0.5346
     64  NH1      -11.3380   -8.5160  -20.8090 N.pl3  61  ARG61       0.1354
     65  NH2      -10.8830  -10.6620  -21.4990 N.pl3  61  ARG61       0.1354
     66  N        -13.5380  -10.6840  -14.1630 N.am   62  GLY62      -0.1942
     67  CA       -12.6860  -10.6530  -12.9670 C.3    62  GLY62       0.2014
     68  C        -11.2620  -10.2660  -13.3480 C.2    62  GLY62       0.2639
     69  O        -10.6900  -10.8320  -14.2870 O.2    62  GLY62      -0.2714
     70  N        -10.6760   -9.3110  -12.6200 N.am   63  ILE63      -0.1963
     71  CA        -9.2710   -8.9220  -12.8570 C.3    63  ILE63       0.1712
     72  C         -8.3720  -10.1600  -12.8430 C.2    63  ILE63       0.2458
     73  O         -8.5220  -11.0120  -11.9640 O.2    63  ILE63      -0.2730
     74  CB        -8.7200   -7.9370  -11.7910 C.3    63  ILE63       0.0289
     75  CG1       -9.6570   -6.7520  -11.5730 C.3    63  ILE63       0.0022
     76  CG2       -7.3400   -7.4090  -12.1950 C.3    63  ILE63       0.0023
     77  CD1       -9.2500   -5.8700  -10.4000 C.3    63  ILE63       0.0001
     78  N         -7.4320  -10.2600  -13.8050 N.am   64  PRO64      -0.2727
     79  CA        -6.5090  -11.4030  -13.8100 C.3    64  PRO64       0.1402
     80  C         -5.7830  -11.5500  -12.4820 C.2    64  PRO64       0.2269
     81  O         -5.3670  -10.5510  -11.8760 O.2    64  PRO64      -0.2865
     82  CB        -5.5320  -11.0560  -14.9370 C.3    64  PRO64       0.0296
     83  CG        -6.3630  -10.2500  -15.8770 C.3    64  PRO64       0.0237
     84  CD        -7.2330   -9.4020  -14.9860 C.3    64  PRO64       0.0939
     85  N         -2.3470   -3.9790  -10.2370 N.3    79  VAL79      -0.1231
     86  CA        -3.3940   -3.0040  -10.5800 C.3    79  VAL79       0.1692
     87  C         -3.5370   -1.9430   -9.4790 C.2    79  VAL79       0.2592
     88  O         -3.6370   -0.7470   -9.7670 O.2    79  VAL79      -0.2718
     89  CB        -4.7490   -3.7110  -10.8380 C.3    79  VAL79       0.0266
     90  CG1       -5.9130   -2.7230  -10.8330 C.3    79  VAL79       0.0020
     91  CG2       -4.7030   -4.4810  -12.1570 C.3    79  VAL79       0.0020
     92  N         -3.5030   -2.3850   -8.2250 N.am   80  PHE80      -0.1976
     93  CA        -3.7500   -1.4970   -7.0880 C.3    80  PHE80       0.1639
     94  C         -2.5100   -0.9040   -6.4270 C.2    80  PHE80       0.2290
     95  O         -2.6170    0.0500   -5.6710 O.2    80  PHE80      -0.2864
     96  CB        -4.6620   -2.1950   -6.0590 C.3    80  PHE80       0.0560
     97  CG        -6.0430   -2.4450   -6.5910 C.ar   80  PHE80      -0.0200
     98  CD1       -6.9630   -1.4020   -6.6850 C.ar   80  PHE80      -0.0042
     99  CD2       -6.4050   -3.7040   -7.0540 C.ar   80  PHE80      -0.0042
    100  CE1       -8.2310   -1.6210   -7.2090 C.ar   80  PHE80      -0.0003
    101  CE2       -7.6630   -3.9250   -7.5830 C.ar   80  PHE80      -0.0003
    102  CZ        -8.5770   -2.8840   -7.6610 C.ar   80  PHE80      -0.0000
    103  N         -6.4600    3.7530  -15.8130 N.3    84  VAL84      -0.1245
    104  CA        -5.1820    3.4490  -15.1640 C.3    84  VAL84       0.1561
    105  C         -5.1400    3.9990  -13.7360 C.2    84  VAL84       0.2260
    106  O         -4.0740    4.1080  -13.1270 O.2    84  VAL84      -0.2867
    107  CB        -3.9660    3.9800  -15.9770 C.3    84  VAL84       0.0252
    108  CG1       -3.7730    3.1740  -17.2540 C.3    84  VAL84       0.0019
    109  CG2       -4.1090    5.4660  -16.2900 C.3    84  VAL84       0.0019
    110  N         -6.7660    2.8970  -10.7780 N.3    86  SER86      -0.1217
    111  CA        -7.1110    2.0960   -9.5930 C.3    86  SER86       0.1889
    112  C         -6.1190    2.2940   -8.4430 C.2    86  SER86       0.2288
    113  O         -6.5220    2.4080   -7.2800 O.2    86  SER86      -0.2866
    114  CB        -7.2100    0.6090   -9.9310 C.3    86  SER86       0.2089
    115  OG        -8.2840    0.3730  -10.8260 O.3    86  SER86      -0.2183
    116  N        -13.8290  -15.6050   -9.9820 N.3   102  LYS102     -0.1245
    117  CA       -13.2290  -16.1390  -11.2070 C.3   102  LYS102      0.1561
    118  C        -12.9500  -17.6200  -11.0340 C.2   102  LYS102      0.2260
    119  O        -12.4310  -18.0310   -9.9940 O.2   102  LYS102     -0.2867
    120  CB       -11.9100  -15.3970  -11.4920 C.3   102  LYS102      0.0271
    121  CG       -11.3930  -15.4520  -12.9170 C.3   102  LYS102      0.0035
    122  CD       -10.1550  -14.5700  -13.0280 C.3   102  LYS102      0.0206
    123  CE        -9.6700  -14.4070  -14.4580 C.3   102  LYS102      0.1093
    124  NZ       -10.4620  -13.4160  -15.2190 N.3   102  LYS102     -0.1314
    125  N        -15.7130   -8.4540  -10.6070 N.3   131  THR131     -0.1218
    126  CA       -14.8370   -7.8020   -9.6420 C.3   131  THR131      0.1862
    127  C        -15.6510   -6.8680   -8.7630 C.2   131  THR131      0.2287
    128  O        -16.5430   -6.1550   -9.2420 O.2   131  THR131     -0.2866
    129  CB       -13.7380   -6.9880  -10.3520 C.3   131  THR131      0.1770
    130  OG1      -13.0970   -7.8130  -11.3260 O.3   131  THR131     -0.2211
    131  CG2      -12.6760   -6.4720   -9.3540 C.3   131  THR131      0.0375
    132  N        -14.8660   -3.8710   -5.9240 N.3   133  VAL133     -0.1245
    133  CA       -13.8910   -2.9890   -5.2650 C.3   133  VAL133      0.1561
    134  C        -14.6260   -2.1270   -4.2450 C.2   133  VAL133      0.2260
    135  O        -15.6120   -1.4780   -4.5790 O.2   133  VAL133     -0.2867
    136  CB       -13.1630   -2.0700   -6.2810 C.3   133  VAL133      0.0252
    137  CG1      -12.3490   -0.9890   -5.5720 C.3   133  VAL133      0.0019
    138  CG2      -12.2730   -2.8930   -7.2050 C.3   133  VAL133      0.0019
@<TRIPOS>BOND
     1    65    63    1
     2    26    25    2
     3    64    63    1
     4    63    62    2
     5    30    28   ar
     6    34    33    2
     7    25    24    1
     8    25    31   am
     9    24    27    1
    10    24    23    1
    11    28    27    1
    12    28    29   ar
    13    62    61    1
    14    33    32    1
    15    61    60    1
    16    32    31    1
    17    32    35    1
    18    38    37   ar
    19    60    59    1
    20    37    39   ar
    21    37    36    1
    22    35    36    1
    23    59    56    1
    24   108   107    1
    25    20    19    2
    26    19    18    1
    27    12    11    2
    28   109   107    1
    29    55    56    1
    30    56    57    1
    31   107   104    1
    32    83    84    1
    33    83    82    1
    34   103   104    1
    35    11    10    1
    36    11    17   am
    37    10     9    1
    38    10    13    1
    39   124   123    1
    40   104   105    1
    41    18    17    1
    42    18    21    1
    43    84    78    1
    44    82    79    1
    45    57    58    2
    46    57    66   am
    47    15    14    2
    48   123   122    1
    49    69    68    2
    50    66    67    1
    51    13    14    1
    52    14    16   am
    53    21    22    1
    54    79    78    1
    55    79    80    1
    56    78    72   am
    57   105   106    2
    58    68    67    1
    59    68    70   am
    60   122   121    1
    61    54    52   ar
    62   121   120    1
    63    52    51    1
    64    52    53   ar
    65    51    48    1
    66    71    72    1
    67    71    70    1
    68    71    74    1
    69    72    73    2
    70    80    81    2
    71    76    74    1
    72    91    89    1
    73     4     3    2
    74    49    48    1
    75    49    50    2
    76    48    47    1
    77    74    75    1
    78    75    77    1
    79   120   117    1
    80     3     2    1
    81   130   129    1
    82   117   118    1
    83   117   116    1
    84   118   119    2
    85    89    90    1
    86    89    86    1
    87   115   114    1
    88   110   111    1
    89   125   126    1
    90    86    85    1
    91    86    87    1
    92     1     2    1
    93     2     5    1
    94   129   126    1
    95   129   131    1
    96   114   111    1
    97    88    87    2
    98   126   127    1
    99   111   112    1
   100    87    92   am
   101    45    44    1
   102   128   127    2
   103     5     7    1
   104     5     6    1
   105   112   113    2
   106    92    93    1
   107     8     6    1
   108    44    46    1
   109    44    41    1
   110   102   101   ar
   111   102   100   ar
   112   101    99   ar
   113    42    43    2
   114    42    41    1
   115   100    98   ar
   116   138   136    1
   117    93    94    1
   118    93    96    1
   119    41    40    1
   120    99    97   ar
   121    98    97   ar
   122    97    96    1
   123    94    95    2
   124   136   137    1
   125   136   133    1
   126   132   133    1
   127   133   134    1
   128   135   134    2
