@<TRIPOS>MOLECULE
tmp/4hxxA00.pdb
 192 189 0 0 0
SMALL
GASTEIGER

@<TRIPOS>ATOM
      1  N         29.0930   19.7330   24.2840 N.3    39  GLU39      -0.1231
      2  CA        27.7220   20.2440   24.1530 C.3    39  GLU39       0.1699
      3  C         26.8390   19.7300   25.2580 C.2    39  GLU39       0.2592
      4  O         26.0870   20.4870   25.8460 O.2    39  GLU39      -0.2718
      5  CB        27.0850   19.9110   22.8000 C.3    39  GLU39       0.0402
      6  CG        27.3580   20.9740   21.7580 C.3    39  GLU39       0.1161
      7  CD        26.9390   20.6030   20.3440 C.2    39  GLU39       0.3649
      8  OE1       25.9130   19.9020   20.1370 O.co2  39  GLU39      -0.2457
      9  OE2       27.6490   21.0570   19.4250 O.co2  39  GLU39      -0.2457
     10  N         26.9240   18.4350   25.5160 N.am   40  GLN40      -0.1979
     11  CA        26.1110   17.8090   26.5490 C.3    40  GLN40       0.1601
     12  C         26.4070   18.3230   27.9650 C.2    40  GLN40       0.2287
     13  O         25.4980   18.3910   28.7830 O.2    40  GLN40      -0.2864
     14  CB        26.1950   16.2930   26.4370 C.3    40  GLN40       0.0394
     15  CG        25.5080   15.7900   25.1730 C.3    40  GLN40       0.0908
     16  CD        25.6800   14.3040   24.9640 C.2    40  GLN40       0.2608
     17  OE1       26.7550   13.7520   25.2050 O.2    40  GLN40      -0.2717
     18  NE2       24.6190   13.6430   24.5110 N.am   40  GLN40      -0.0878
     19  N         23.9920   21.1500   28.3300 N.3    43  LYS43      -0.1245
     20  CA        22.5940   20.8930   27.9430 C.3    43  LYS43       0.1561
     21  C         21.5670   21.4300   28.9570 C.2    43  LYS43       0.2260
     22  O         21.7220   21.2580   30.1750 O.2    43  LYS43      -0.2867
     23  CB        22.3540   19.3890   27.6870 C.3    43  LYS43       0.0271
     24  CG        22.9100   18.4700   28.7880 C.3    43  LYS43       0.0035
     25  CD        21.9540   17.3550   29.2150 C.3    43  LYS43       0.0206
     26  CE        22.3570   16.7920   30.6020 C.3    43  LYS43       0.1093
     27  NZ        21.4460   15.7100   31.0960 N.3    43  LYS43      -0.1314
     28  N         29.0580   18.7480    9.9400 N.3   103  PRO103     -0.2116
     29  CA        27.9620   17.7530    9.9410 C.3   103  PRO103      0.1372
     30  C         28.4430   16.2980   10.0440 C.2   103  PRO103      0.2244
     31  O         27.7050   15.4730   10.5580 O.2   103  PRO103     -0.2868
     32  CB        27.2470   18.0220    8.5870 C.3   103  PRO103      0.0268
     33  CG        27.4340   19.5310    8.4250 C.3   103  PRO103      0.0207
     34  CD        28.9740   19.5680    8.7210 C.3   103  PRO103      0.0892
     35  N         28.2440   13.9770   13.1030 N.3   106  TYR106     -0.1227
     36  CA        27.5030   14.6840   14.1140 C.3   106  TYR106      0.1736
     37  C         26.2320   13.9070   14.4160 C.2   106  TYR106      0.2595
     38  O         25.2960   13.8160   13.5810 O.2   106  TYR106     -0.2718
     39  CB        27.2260   16.1480   13.7390 C.3   106  TYR106      0.0548
     40  CG        26.6480   16.9980   14.8500 C.ar  106  TYR106     -0.0200
     41  CD1       27.4110   17.3430   15.9790 C.ar  106  TYR106     -0.0009
     42  CD2       25.3220   17.4420   14.7870 C.ar  106  TYR106     -0.0009
     43  CE1       26.8600   18.1090   17.0090 C.ar  106  TYR106      0.0417
     44  CE2       24.7770   18.2180   15.7760 C.ar  106  TYR106      0.0417
     45  CZ        25.5430   18.5490   16.8960 C.ar  106  TYR106      0.1957
     46  OH        24.9750   19.3470   17.8730 O.3   106  TYR106     -0.2866
     47  N         26.2380   13.3380   15.6260 N.am  107  TYR107     -0.1976
     48  CA        25.2240   12.3670   16.0780 C.3   107  TYR107      0.1639
     49  C         25.0360   11.2830   15.0390 C.2   107  TYR107      0.2290
     50  O         23.9160   10.8740   14.7110 O.2   107  TYR107     -0.2864
     51  CB        23.9430   13.0810   16.5210 C.3   107  TYR107      0.0560
     52  CG        24.2130   13.7620   17.8270 C.ar  107  TYR107     -0.0198
     53  CD1       24.4900   15.1150   17.8750 C.ar  107  TYR107     -0.0009
     54  CD2       24.2570   13.0290   19.0270 C.ar  107  TYR107     -0.0009
     55  CE1       24.7890   15.7440   19.0730 C.ar  107  TYR107      0.0417
     56  CE2       24.5440   13.6550   20.2440 C.ar  107  TYR107      0.0417
     57  CZ        24.8070   15.0160   20.2610 C.ar  107  TYR107      0.1957
     58  OH        25.1110   15.6680   21.4370 O.3   107  TYR107     -0.2866
     59  N         25.4490   11.5460   11.8150 N.3   109  PHE109     -0.1241
     60  CA        25.0890   12.0060   10.4730 C.3   109  PHE109      0.1605
     61  C         26.1270   11.4780    9.4560 C.2   109  PHE109      0.2264
     62  O         27.3280   11.6250    9.6960 O.2   109  PHE109     -0.2867
     63  CB        24.9770   13.5470   10.4250 C.3   109  PHE109      0.0534
     64  CG        24.4150   14.0610    9.1330 C.ar  109  PHE109     -0.0203
     65  CD1       23.0370   14.0040    8.8790 C.ar  109  PHE109     -0.0042
     66  CD2       25.2650   14.5780    8.1360 C.ar  109  PHE109     -0.0042
     67  CE1       22.5150   14.4640    7.6540 C.ar  109  PHE109     -0.0003
     68  CE2       24.7510   15.0310    6.9070 C.ar  109  PHE109     -0.0003
     69  CZ        23.3490   14.9700    6.6740 C.ar  109  PHE109     -0.0000
     70  N         24.2260   19.1260    4.5430 N.3   114  CYS114     -0.1235
     71  CA        22.7920   18.7660    4.3930 C.3   114  CYS114      0.1677
     72  C         22.2600   19.3040    3.0690 C.2   114  CYS114      0.2270
     73  O         22.3880   20.4730    2.7920 O.2   114  CYS114     -0.2867
     74  CB        21.9860   19.3110    5.5610 C.3   114  CYS114      0.0956
     75  SG        22.5070   18.6400    7.1440 S.3   114  CYS114     -0.0801
     76  N         18.0680   19.0190    6.9260 N.3   123  HIS123     -0.1241
     77  CA        18.7710   17.7930    7.2650 C.3   123  HIS123      0.1621
     78  C         18.6600   16.6420    6.2550 C.2   123  HIS123      0.2264
     79  O         18.7700   15.4560    6.6190 O.2   123  HIS123     -0.2867
     80  CB        18.3950   17.3290    8.6700 C.3   123  HIS123      0.0745
     81  CG        18.6700   18.3460    9.7280 C.ar  123  HIS123      0.0817
     82  ND1       18.2160   18.2100   11.0220 N.ar  123  HIS123     -0.2268
     83  CD2       19.3630   19.5080    9.6880 C.ar  123  HIS123      0.1154
     84  CE1       18.5980   19.2580   11.7360 C.ar  123  HIS123      0.1986
     85  NE2       19.2960   20.0620   10.9480 N.ar  123  HIS123     -0.2212
     86  N         23.2730   23.2450    3.2010 N.3   140  ASP140     -0.1239
     87  CA        23.5630   23.8520    4.5020 C.3   140  ASP140      0.1674
     88  C         24.9520   23.3580    4.8390 C.2   140  ASP140      0.2266
     89  O         25.2130   22.1520    4.9070 O.2   140  ASP140     -0.2867
     90  CB        22.5460   23.3780    5.4950 C.3   140  ASP140      0.1410
     91  CG        22.6450   24.0810    6.8580 C.2   140  ASP140      0.3668
     92  OD1       23.6030   24.8020    7.1210 O.co2 140  ASP140     -0.2456
     93  OD2       21.6850   23.9600    7.6320 O.co2 140  ASP140     -0.2456
     94  N         12.3560   23.3490   14.3490 N.3   211  TYR211     -0.1227
     95  CA        13.7980   23.6630   14.2580 C.3   211  TYR211      0.1736
     96  C         14.0010   25.1600   14.4460 C.2   211  TYR211      0.2596
     97  O         13.1350   25.9620   14.1120 O.2   211  TYR211     -0.2718
     98  CB        14.4320   23.1530   12.9410 C.3   211  TYR211      0.0548
     99  CG        14.2680   21.6390   12.7590 C.ar  211  TYR211     -0.0200
    100  CD1       15.1980   20.7320   13.2790 C.ar  211  TYR211     -0.0009
    101  CD2       13.1460   21.1200   12.1060 C.ar  211  TYR211     -0.0009
    102  CE1       15.0100   19.3260   13.1230 C.ar  211  TYR211      0.0417
    103  CE2       12.9680   19.7450   11.9530 C.ar  211  TYR211      0.0417
    104  CZ        13.8850   18.8590   12.4410 C.ar  211  TYR211      0.1957
    105  OH        13.6580   17.5030   12.2430 O.3   211  TYR211     -0.2866
    106  N         15.1430   25.5140   15.0200 N.am  212  CYS212     -0.1956
    107  CA        15.4160   26.8600   15.5200 C.3   212  CYS212      0.1843
    108  C         16.8100   27.2900   15.1350 C.2   212  CYS212      0.2626
    109  O         17.6470   26.4410   14.8630 O.2   212  CYS212     -0.2714
    110  CB        15.2430   26.8670   17.0610 C.3   212  CYS212      0.0997
    111  SG        13.4660   26.5830   17.4450 S.3   212  CYS212     -0.0797
    112  N         17.0470   28.6080   15.1110 N.am  213  GLY213     -0.1940
    113  CA        18.4090   29.1300   15.1070 C.3   213  GLY213      0.2014
    114  C         19.0880   28.8130   16.4270 C.2   213  GLY213      0.2638
    115  O         18.4260   28.4480   17.3940 O.2   213  GLY213     -0.2714
    116  N         20.4090   28.9430   16.4590 N.am  214  HIS214     -0.1973
    117  CA        21.2000   28.4690   17.5680 C.3   214  HIS214      0.1656
    118  C         22.4490   29.3100   17.6890 C.2   214  HIS214      0.2291
    119  O         22.9860   29.8040   16.6830 O.2   214  HIS214     -0.2864
    120  CB        21.6000   26.9790   17.3640 C.3   214  HIS214      0.0771
    121  CG        22.3000   26.7160   16.0570 C.ar  214  HIS214      0.0820
    122  ND1       23.6730   26.6630   15.9390 N.ar  214  HIS214     -0.2267
    123  CD2       21.8010   26.5530   14.8010 C.ar  214  HIS214      0.1154
    124  CE1       23.9910   26.4670   14.6590 C.ar  214  HIS214      0.1986
    125  NE2       22.8700   26.4040   13.9540 N.ar  214  HIS214     -0.2212
    126  N         28.8250   23.4970   18.1090 N.3   220  PHE220     -0.1227
    127  CA        28.0640   23.5060   16.8570 C.3   220  PHE220      0.1736
    128  C         26.6960   24.0910   17.1150 C.2   220  PHE220      0.2595
    129  O         26.2600   25.0100   16.3920 O.2   220  PHE220     -0.2718
    130  CB        27.9560   22.0710   16.2930 C.3   220  PHE220      0.0547
    131  CG        27.4100   21.9730   14.8520 C.ar  220  PHE220     -0.0202
    132  CD1       26.8350   23.0860   14.1650 C.ar  220  PHE220     -0.0042
    133  CD2       27.4470   20.7430   14.2000 C.ar  220  PHE220     -0.0042
    134  CE1       26.3220   22.9390   12.8470 C.ar  220  PHE220     -0.0003
    135  CE2       26.9580   20.5870   12.8740 C.ar  220  PHE220     -0.0003
    136  CZ        26.3920   21.6580   12.2110 C.ar  220  PHE220     -0.0000
    137  N         25.9940   23.5450   18.1090 N.am  221  HIS221     -0.1961
    138  CA        24.6980   24.0870   18.5220 C.3   221  HIS221      0.1787
    139  C         24.7040   24.2960   20.0410 C.2   221  HIS221      0.2620
    140  O         25.0210   23.3860   20.8240 O.2   221  HIS221     -0.2715
    141  CB        23.5210   23.1890   18.1110 C.3   221  HIS221      0.0785
    142  CG        23.5260   22.8010   16.6620 C.ar  221  HIS221      0.0821
    143  ND1       24.1850   21.6860   16.1930 N.ar  221  HIS221     -0.2267
    144  CD2       22.9130   23.3520   15.5880 C.ar  221  HIS221      0.1154
    145  CE1       23.9880   21.5750   14.8910 C.ar  221  HIS221      0.1986
    146  NE2       23.2380   22.5860   14.4950 N.ar  221  HIS221     -0.2212
    147  N         24.3590   25.5120   20.4410 N.am  222  THR222     -0.1951
    148  CA        24.2200   25.8370   21.8380 C.3   222  THR222      0.1897
    149  C         23.2460   26.9850   22.0390 C.2   222  THR222      0.2313
    150  O         22.4960   27.3440   21.1050 O.2   222  THR222     -0.2863
    151  CB        25.6010   26.0450   22.5160 C.3   222  THR222      0.1794
    152  OG1       25.4150   26.1970   23.9250 O.3   222  THR222     -0.2208
    153  CG2       26.3940   27.2120   21.9090 C.3   222  THR222      0.0378
    154  N         18.6570   29.5030   21.9700 N.3   225  ASN225     -0.1240
    155  CA        17.6510   28.9550   21.0580 C.3   225  ASN225      0.1653
    156  C         16.9120   30.1090   20.3910 C.2   225  ASN225      0.2266
    157  O         16.5870   31.1090   21.0540 O.2   225  ASN225     -0.2867
    158  CB        16.6640   28.0720   21.8100 C.3   225  ASN225      0.1155
    159  CG        15.8830   27.1830   20.8940 C.2   225  ASN225      0.2627
    160  OD1       16.4460   26.2700   20.2840 O.2   225  ASN225     -0.2716
    161  ND2       14.5680   27.4250   20.7910 N.am  225  ASN225     -0.0877
    162  N         17.9120   31.0340   10.9370 N.3   247  GLU247     -0.1245
    163  CA        17.8050   30.0690    9.7850 C.3   247  GLU247      0.1567
    164  C         16.3600   29.6850    9.4150 C.2   247  GLU247      0.2260
    165  O         15.9840   28.4980    9.4560 O.2   247  GLU247     -0.2867
    166  CB        18.6860   28.8360    9.9770 C.3   247  GLU247      0.0388
    167  CG        18.6970   28.2140   11.3810 C.3   247  GLU247      0.1160
    168  CD        19.6130   27.0200   11.5080 C.2   247  GLU247      0.3649
    169  OE1       20.6960   27.2090   12.0520 O.co2 247  GLU247     -0.2457
    170  OE2       19.3090   25.8930   11.0180 O.co2 247  GLU247     -0.2457
    171  N         12.9100   28.4030    8.1360 N.3   249  MET249     -0.1245
    172  CA        12.4080   27.4020    7.2100 C.3   249  MET249      0.1570
    173  C         10.9340   27.7460    6.9710 C.2   249  MET249      0.2261
    174  O         10.1170   27.7920    7.9090 O.2   249  MET249     -0.2867
    175  CB        12.5360   25.9970    7.8170 C.3   249  MET249      0.0387
    176  CG        13.9630   25.4330    7.9200 C.3   249  MET249      0.0595
    177  SD        14.2090   24.4630    9.4400 S.3   249  MET249     -0.1393
    178  CE        16.0090   24.1960    9.5080 C.3   249  MET249      0.0692
    179  N         16.7730   11.5130   10.1000 N.3   264  TRP264     -0.1241
    180  CA        17.3370   12.8520    9.8180 C.3   264  TRP264      0.1605
    181  C         16.4540   13.7580    8.9480 C.2   264  TRP264      0.2264
    182  O         16.2390   14.9460    9.2610 O.2   264  TRP264     -0.2867
    183  CB        18.6840   12.7230    9.0960 C.3   264  TRP264      0.0550
    184  CG        19.7570   12.3110   10.0230 C.ar  264  TRP264      0.0003
    185  CD1       20.4180   11.1020   10.0600 C.ar  264  TRP264      0.0946
    186  CD2       20.2740   13.0920   11.0850 C.ar  264  TRP264      0.0152
    187  NE1       21.3300   11.1050   11.0900 N.ar  264  TRP264     -0.2442
    188  CE2       21.2500   12.3100   11.7420 C.ar  264  TRP264      0.0810
    189  CE3       20.0010   14.3860   11.5560 C.ar  264  TRP264      0.0012
    190  CZ2       21.9730   12.7890   12.8390 C.ar  264  TRP264      0.0191
    191  CZ3       20.6960   14.8510   12.6730 C.ar  264  TRP264      0.0001
    192  CH2       21.6810   14.0650   13.2850 C.ar  264  TRP264      0.0015
@<TRIPOS>BOND
     1    73    72    2
     2    72    71    1
     3    86    87    1
     4    71    70    1
     5    71    74    1
     6    87    88    1
     7    87    90    1
     8    88    89    2
     9    90    91    1
    10    74    75    1
    11    78    79    2
    12    78    77    1
    13    69    68   ar
    14    69    67   ar
    15    91    92   ar
    16    91    93   ar
    17    68    66   ar
    18    76    77    1
    19   173   172    1
    20   173   174    2
    21   172   175    1
    22   172   171    1
    23    77    80    1
    24    67    65   ar
    25   175   176    1
    26   176   177    1
    27    66    64   ar
    28    33    32    1
    29    33    34    1
    30    32    29    1
    31    80    81    1
    32    34    28    1
    33    65    64   ar
    34   181   182    2
    35   181   180    1
    36   183   180    1
    37   183   184    1
    38    64    63    1
    39   164   165    2
    40   164   163    1
    41   177   178    1
    42    61    62    2
    43    61    60    1
    44    83    81   ar
    45    83    85   ar
    46    81    82   ar
    47   163   166    1
    48   163   162    1
    49   180   179    1
    50    28    29    1
    51    29    30    1
    52   166   167    1
    53   184   185   ar
    54   184   186   ar
    55    30    31    2
    56   185   187   ar
    57    63    60    1
    58    60    59    1
    59    85    84   ar
    60   170   168   ar
    61    82    84   ar
    62   186   189   ar
    63   186   188   ar
    64   187   188   ar
    65   167   168    1
    66   168   169   ar
    67   189   191   ar
    68   188   190   ar
    69   103   101   ar
    70   103   104   ar
    71   101    99   ar
    72   136   134   ar
    73   136   135   ar
    74   105   104    1
    75   104   102   ar
    76   191   192   ar
    77    99    98    1
    78    99   100   ar
    79   190   192   ar
    80   134   132   ar
    81   135   133   ar
    82    98    95    1
    83    35    36    1
    84   102   100   ar
    85    38    37    2
    86    39    36    1
    87    39    40    1
    88   125   124   ar
    89   125   123   ar
    90    97    96    2
    91    36    37    1
    92   132   131   ar
    93   133   131   ar
    94    95    94    1
    95    95    96    1
    96    37    47   am
    97    96   106   am
    98   146   145   ar
    99   146   144   ar
   100   124   122   ar
   101    50    49    2
   102    42    40   ar
   103    42    44   ar
   104   123   121   ar
   105    40    41   ar
   106   131   130    1
   107   109   108    2
   108   145   143   ar
   109   106   107    1
   110    49    48    1
   111   113   112    1
   112   113   114    1
   113   112   108   am
   114   108   107    1
   115   107   110    1
   116   144   142   ar
   117    47    48    1
   118    44    45   ar
   119   122   121   ar
   120    41    43   ar
   121   121   120    1
   122    48    51    1
   123   143   142   ar
   124   130   127    1
   125   129   128    2
   126   114   116   am
   127   114   115    2
   128   116   117    1
   129    51    52    1
   130   142   141    1
   131   119   118    2
   132   127   128    1
   133   127   126    1
   134    45    43   ar
   135    45    46    1
   136   110   111    1
   137   128   137   am
   138   120   117    1
   139   117   118    1
   140    52    53   ar
   141    52    54   ar
   142    53    55   ar
   143   137   138    1
   144   141   138    1
   145   138   139    1
   146    54    56   ar
   147    55    57   ar
   148     9     7   ar
   149   139   147   am
   150   139   140    2
   151     8     7   ar
   152    56    57   ar
   153    57    58    1
   154   160   159    2
   155     7     6    1
   156   156   157    2
   157   156   155    1
   158   147   148    1
   159   161   159   am
   160   159   158    1
   161   155   158    1
   162   155   154    1
   163   150   149    2
   164     6     5    1
   165   148   149    1
   166   148   151    1
   167   153   151    1
   168   151   152    1
   169     5     2    1
   170     2     1    1
   171     2     3    1
   172    18    16   am
   173    16    15    1
   174    16    17    2
   175    15    14    1
   176     3    10   am
   177     3     4    2
   178    10    11    1
   179    14    11    1
   180    11    12    1
   181    23    20    1
   182    23    24    1
   183    20    19    1
   184    20    21    1
   185    12    13    2
   186    24    25    1
   187    21    22    2
   188    25    26    1
   189    26    27    1
