@<TRIPOS>MOLECULE
tmp/4hxyB01.pdb
 124 120 0 0 0
SMALL
GASTEIGER

@<TRIPOS>ATOM
      1  N          7.2260   58.9620   25.7540 N.3   272  VAL272     -0.1231
      2  CA         8.0690   60.1660   25.7130 C.3   272  VAL272      0.1692
      3  C          7.2820   61.2910   25.0970 C.2   272  VAL272      0.2592
      4  O          6.5360   61.0670   24.1250 O.2   272  VAL272     -0.2718
      5  CB         9.3670   59.9320   24.9180 C.3   272  VAL272      0.0266
      6  CG1        9.0760   59.6480   23.4550 C.3   272  VAL272      0.0020
      7  CG2       10.3280   61.1350   25.0790 C.3   272  VAL272      0.0020
      8  N          7.4290   62.4740   25.6800 N.am  273  ARG273     -0.1966
      9  CA         6.7900   63.6760   25.1990 C.3   273  ARG273      0.1729
     10  C          7.8500   64.7780   25.1610 C.2   273  ARG273      0.2616
     11  O          8.8410   64.7160   25.8900 O.2   273  ARG273     -0.2715
     12  CB         5.6390   64.0380   26.1240 C.3   273  ARG273      0.0348
     13  CG         4.4990   63.0100   26.1490 C.3   273  ARG273      0.0492
     14  CD         3.8110   62.8760   24.7980 C.3   273  ARG273      0.2205
     15  NE         2.6950   61.9320   24.8190 N.pl3 273  ARG273     -0.0865
     16  CZ         2.7700   60.6290   24.5340 C.cat 273  ARG273      0.5346
     17  NH1        3.9180   60.0650   24.1550 N.pl3 273  ARG273      0.1354
     18  NH2        1.6740   59.8760   24.5950 N.pl3 273  ARG273      0.1354
     19  N          7.6460   65.7670   24.2930 N.am  274  ASP274     -0.1971
     20  CA         8.5710   66.8890   24.1360 C.3   274  ASP274      0.1709
     21  C          7.8620   68.1250   24.6530 C.2   274  ASP274      0.2293
     22  O          7.1070   68.7720   23.9230 O.2   274  ASP274     -0.2864
     23  CB         8.9260   67.0570   22.6650 C.3   274  ASP274      0.1436
     24  CG         9.9610   68.1310   22.4050 C.2   274  ASP274      0.3671
     25  OD1       10.6110   68.6130   23.3460 O.co2 274  ASP274     -0.2456
     26  OD2       10.1240   68.4890   21.2130 O.co2 274  ASP274     -0.2456
     27  N         17.5440   55.2660   29.3600 N.3   314  SER314     -0.1202
     28  CA        17.9190   56.1610   28.2550 C.3   314  SER314      0.2020
     29  C         19.0040   57.1040   28.6950 C.2   314  SER314      0.2619
     30  O         19.0790   57.4880   29.8650 O.2   314  SER314     -0.2717
     31  CB        16.7250   57.0030   27.8210 C.3   314  SER314      0.2103
     32  OG        17.0950   58.0330   26.9340 O.3   314  SER314     -0.2182
     33  N         19.8390   57.4820   27.7360 N.am  315  ILE315     -0.1965
     34  CA        20.7830   58.5810   27.9210 C.3   315  ILE315      0.1727
     35  C         20.1150   59.8560   28.4730 C.2   315  ILE315      0.2616
     36  O         20.7700   60.6900   29.1180 O.2   315  ILE315     -0.2715
     37  CB        21.5360   58.8770   26.5720 C.3   315  ILE315      0.0290
     38  CG1       20.5680   59.1600   25.4100 C.3   315  ILE315      0.0022
     39  CG2       22.4930   57.7340   26.2200 C.3   315  ILE315      0.0023
     40  CD1       21.2040   59.8360   24.1910 C.3   315  ILE315      0.0001
     41  N         18.8180   60.0270   28.2360 N.am  316  SER316     -0.1950
     42  CA        18.1100   61.1870   28.7900 C.3   316  SER316      0.1924
     43  C         18.2720   61.3010   30.3260 C.2   316  SER316      0.2314
     44  O         18.4930   62.4000   30.8550 O.2   316  SER316     -0.2863
     45  CB        16.6350   61.1110   28.4360 C.3   316  SER316      0.2116
     46  OG        15.9820   62.2900   28.8240 O.3   316  SER316     -0.2180
     47  N         12.6880   67.0540   27.8790 N.3   324  GLN324     -0.1245
     48  CA        12.5300   65.6910   28.3950 C.3   324  GLN324      0.1566
     49  C         12.4800   65.6040   29.9290 C.2   324  GLN324      0.2260
     50  O         12.7820   64.5520   30.5040 O.2   324  GLN324     -0.2867
     51  CB        13.6550   64.8100   27.7970 C.3   324  GLN324      0.0367
     52  CG        13.4650   64.6150   26.3350 C.3   324  GLN324      0.0905
     53  CD        14.3690   63.5870   25.7370 C.2   324  GLN324      0.2608
     54  OE1       15.2930   63.0920   26.3350 O.2   324  GLN324     -0.2717
     55  NE2       14.0640   63.2440   24.5310 N.am  324  GLN324     -0.0878
     56  N         10.6710   62.4320   31.1520 N.3   327  TYR327     -0.1241
     57  CA        11.3290   61.2760   30.5390 C.3   327  TYR327      0.1605
     58  C         12.6660   61.0340   31.2410 C.2   327  TYR327      0.2264
     59  O         12.9870   59.9180   31.6780 O.2   327  TYR327     -0.2867
     60  CB        11.5050   61.5260   29.0500 C.3   327  TYR327      0.0534
     61  CG        12.0400   60.3480   28.2620 C.ar  327  TYR327     -0.0201
     62  CD1       11.3160   59.1540   28.1800 C.ar  327  TYR327     -0.0009
     63  CD2       13.2430   60.4330   27.5910 C.ar  327  TYR327     -0.0009
     64  CE1       11.7840   58.0720   27.4550 C.ar  327  TYR327      0.0417
     65  CE2       13.7300   59.3570   26.8600 C.ar  327  TYR327      0.0417
     66  CZ        12.9820   58.1810   26.7930 C.ar  327  TYR327      0.1957
     67  OH        13.4440   57.1140   26.0840 O.3   327  TYR327     -0.2866
     68  N         20.0860   53.4470   27.1250 N.3   353  TRP353     -0.1227
     69  CA        20.3060   53.3860   25.6910 C.3   353  TRP353      0.1737
     70  C         20.3710   54.7650   25.0370 C.2   353  TRP353      0.2596
     71  O         19.5440   55.6510   25.3290 O.2   353  TRP353     -0.2718
     72  CB        19.1370   52.6700   25.0460 C.3   353  TRP353      0.0564
     73  CG        18.9670   51.2430   25.4110 C.ar  353  TRP353      0.0003
     74  CD1       17.9840   50.7060   26.1900 C.ar  353  TRP353      0.0946
     75  CD2       19.7760   50.1480   24.9810 C.ar  353  TRP353      0.0152
     76  NE1       18.1400   49.3530   26.2800 N.ar  353  TRP353     -0.2442
     77  CE2       19.2200   48.9790   25.5320 C.ar  353  TRP353      0.0810
     78  CE3       20.9140   50.0340   24.1660 C.ar  353  TRP353      0.0012
     79  CZ2       19.7880   47.7140   25.3220 C.ar  353  TRP353      0.0191
     80  CZ3       21.4680   48.7920   23.9530 C.ar  353  TRP353      0.0001
     81  CH2       20.8980   47.6470   24.5250 C.ar  353  TRP353      0.0015
     82  N         21.2850   54.9130   24.0800 N.am  354  GLY354     -0.1943
     83  CA        21.1350   55.9090   23.0270 C.3   354  GLY354      0.1998
     84  C         20.0550   55.5180   22.0420 C.2   354  GLY354      0.2480
     85  O         19.4260   54.4910   22.1920 O.2   354  GLY354     -0.2729
     86  N         19.8020   56.3520   21.0380 N.am  355  PRO355     -0.2726
     87  CA        18.7780   56.0120   20.0440 C.3   355  PRO355      0.1402
     88  C         19.0280   54.7010   19.3150 C.2   355  PRO355      0.2269
     89  O         20.1900   54.3480   19.0240 O.2   355  PRO355     -0.2865
     90  CB        18.8400   57.1820   19.0520 C.3   355  PRO355      0.0296
     91  CG        20.2040   57.7510   19.2450 C.3   355  PRO355      0.0237
     92  CD        20.4800   57.6120   20.7140 C.3   355  PRO355      0.0939
     93  N          9.9690   54.7590   19.4340 N.3   361  MET361     -0.1230
     94  CA         9.8070   56.1880   19.7810 C.3   361  MET361      0.1702
     95  C         10.3150   57.2660   18.8500 C.2   361  MET361      0.2592
     96  O          9.7810   58.3920   18.8590 O.2   361  MET361     -0.2718
     97  CB        10.5070   56.4540   21.1010 C.3   361  MET361      0.0401
     98  CG         9.6620   56.0710   22.2480 C.3   361  MET361      0.0596
     99  SD        10.5120   56.3000   23.8100 S.3   361  MET361     -0.1393
    100  CE         9.1910   55.7020   24.8840 C.3   361  MET361      0.0692
    101  N         11.3530   56.9810   18.0990 N.am  362  LEU362     -0.1980
    102  CA        12.0630   58.0680   17.4050 C.3   362  LEU362      0.1596
    103  C         11.5590   58.3120   16.0010 C.2   362  LEU362      0.2287
    104  O         11.3740   57.3650   15.2310 O.2   362  LEU362     -0.2864
    105  CB        13.5380   57.7310   17.3350 C.3   362  LEU362      0.0297
    106  CG        14.2000   57.7220   18.7010 C.3   362  LEU362      0.0022
    107  CD1       15.6430   57.3670   18.5130 C.3   362  LEU362      0.0001
    108  CD2       14.0450   59.0720   19.3770 C.3   362  LEU362      0.0001
    109  N         13.5180   63.4380   14.8510 N.3   366  ASP366     -0.1239
    110  CA        14.3640   63.1660   16.0200 C.3   366  ASP366      0.1674
    111  C         15.7350   62.6880   15.5800 C.2   366  ASP366      0.2266
    112  O         16.7480   63.1150   16.1230 O.2   366  ASP366     -0.2867
    113  CB        13.7310   62.0970   16.9300 C.3   366  ASP366      0.1410
    114  CG        12.4480   62.5550   17.5870 C.2   366  ASP366      0.3668
    115  OD1       12.2690   63.7780   17.7830 O.co2 366  ASP366     -0.2456
    116  OD2       11.5870   61.6890   17.8950 O.co2 366  ASP366     -0.2456
    117  N         19.1750   64.4680   16.4490 N.3   370  LEU370     -0.1245
    118  CA        20.1710   63.6810   17.1920 C.3   370  LEU370      0.1561
    119  C         21.5210   63.6250   16.4560 C.2   370  LEU370      0.2260
    120  O         22.5700   63.7360   17.0760 O.2   370  LEU370     -0.2867
    121  CB        19.6440   62.2700   17.4890 C.3   370  LEU370      0.0270
    122  CG        18.5610   62.2110   18.5730 C.3   370  LEU370      0.0019
    123  CD1       17.8080   60.8800   18.5170 C.3   370  LEU370      0.0001
    124  CD2       19.1550   62.4600   19.9760 C.3   370  LEU370      0.0001
@<TRIPOS>BOND
     1   109   110    1
     2   104   103    2
     3   111   110    1
     4   111   112    2
     5   103   102    1
     6   110   113    1
     7   117   118    1
     8   119   120    2
     9   119   118    1
    10   113   114    1
    11   118   121    1
    12   105   102    1
    13   105   106    1
    14   102   101    1
    15   121   122    1
    16   114   115   ar
    17   114   116   ar
    18   101    95   am
    19   107   106    1
    20   123   122    1
    21   122   124    1
    22   106   108    1
    23    95    96    2
    24    95    94    1
    25    89    88    2
    26    90    91    1
    27    90    87    1
    28    91    92    1
    29    88    87    1
    30    93    94    1
    31    94    97    1
    32    87    86    1
    33    92    86    1
    34    86    84   am
    35    97    98    1
    36    26    24   ar
    37    84    85    2
    38    84    83    1
    39    98    99    1
    40    24    23    1
    41    24    25   ar
    42    23    20    1
    43    83    82    1
    44     6     5    1
    45    99   100    1
    46    22    21    2
    47    80    78   ar
    48    80    81   ar
    49    82    70   am
    50     4     3    2
    51    20    19    1
    52    20    21    1
    53    17    16    1
    54    78    75   ar
    55    40    38    1
    56    19    10   am
    57    81    79   ar
    58    55    53   am
    59    16    18    1
    60    16    15    2
    61    14    15    1
    62    14    13    1
    63     5     7    1
    64     5     2    1
    65    75    73   ar
    66    75    77   ar
    67    70    71    2
    68    70    69    1
    69    72    73    1
    70    72    69    1
    71     3     8   am
    72     3     2    1
    73    10     9    1
    74    10    11    2
    75     9     8    1
    76     9    12    1
    77    79    77   ar
    78    38    37    1
    79    73    74   ar
    80    77    76   ar
    81    69    68    1
    82     2     1    1
    83    53    52    1
    84    53    54    2
    85    67    66    1
    86    12    13    1
    87    74    76   ar
    88    39    37    1
    89    52    51    1
    90    37    34    1
    91    66    65   ar
    92    66    64   ar
    93    65    63   ar
    94    32    31    1
    95    64    62   ar
    96    63    61   ar
    97    33    34    1
    98    33    29   am
    99    51    48    1
   100    31    28    1
   101    47    48    1
   102    34    35    1
   103    62    61   ar
   104    41    35   am
   105    41    42    1
   106    28    29    1
   107    28    27    1
   108    61    60    1
   109    48    49    1
   110    45    42    1
   111    45    46    1
   112    35    36    2
   113    29    30    2
   114    42    43    1
   115    60    57    1
   116    49    50    2
   117    43    44    2
   118    57    56    1
   119    57    58    1
   120    58    59    2
