@<TRIPOS>MOLECULE
tmp/4hxzA00.pdb
 125 115 0 0 0
SMALL
GASTEIGER

@<TRIPOS>ATOM
      1  N         12.6340  -40.5850    3.8890 N.3    31  ILE31      -0.1245
      2  CA        12.2900  -39.4190    3.0850 C.3    31  ILE31       0.1561
      3  C         11.3740  -38.4470    3.8440 C.2    31  ILE31       0.2260
      4  O         11.5430  -37.2260    3.7450 O.2    31  ILE31      -0.2867
      5  CB        11.7400  -39.8600    1.7040 C.3    31  ILE31       0.0252
      6  CG1       12.9010  -40.4070    0.8910 C.3    31  ILE31       0.0019
      7  CG2       11.1140  -38.7070    0.9440 C.3    31  ILE31       0.0019
      8  CD1       12.4560  -41.2780   -0.2400 C.3    31  ILE31       0.0001
      9  N         13.4540  -36.3350    6.0600 N.3    34  ASN34      -0.1225
     10  CA        13.9800  -35.2050    5.3240 C.3    34  ASN34       0.1785
     11  C         13.0110  -34.0460    5.1210 C.2    34  ASN34       0.2597
     12  O         13.3800  -32.8850    5.3210 O.2    34  ASN34      -0.2718
     13  CB        14.5180  -35.6590    4.0100 C.3    34  ASN34       0.1169
     14  CG        15.8880  -36.2450    4.1480 C.2    34  ASN34       0.2627
     15  OD1       16.8750  -35.5610    3.8640 O.2    34  ASN34      -0.2716
     16  ND2       15.9790  -37.4920    4.6600 N.am   34  ASN34      -0.0877
     17  N         11.7730  -34.3490    4.7450 N.am   35  SER35      -0.1952
     18  CA        10.7720  -33.3230    4.7080 C.3    35  SER35       0.1924
     19  C         10.6600  -32.7420    6.0910 C.2    35  SER35       0.2314
     20  O         10.6080  -31.5100    6.2420 O.2    35  SER35      -0.2863
     21  CB         9.4260  -33.8830    4.2860 C.3    35  SER35       0.2116
     22  OG         9.4710  -34.3750    2.9690 O.3    35  SER35      -0.2180
     23  N         12.7210  -32.4120    8.6090 N.3    37  ASP37      -0.1225
     24  CA        13.7840  -31.4430    8.8380 C.3    37  ASP37       0.1805
     25  C         13.3580  -30.0510    8.3420 C.2    37  ASP37       0.2597
     26  O         13.4760  -29.0610    9.0760 O.2    37  ASP37      -0.2718
     27  CB        15.0590  -31.8720    8.1170 C.3    37  ASP37       0.1424
     28  CG        15.8440  -32.9630    8.8670 C.2    37  ASP37       0.3668
     29  OD1       15.4120  -33.4250    9.9550 O.co2  37  ASP37      -0.2456
     30  OD2       16.9220  -33.3530    8.3510 O.co2  37  ASP37      -0.2456
     31  N         12.8280  -29.9610    7.1230 N.am   38  GLU38      -0.1979
     32  CA        12.4040  -28.6610    6.6230 C.3    38  GLU38       0.1602
     33  C         11.2600  -28.0990    7.4380 C.2    38  GLU38       0.2287
     34  O         11.2100  -26.9070    7.6740 O.2    38  GLU38      -0.2864
     35  CB        12.0640  -28.6960    5.1380 C.3    38  GLU38       0.0415
     36  CG        13.2940  -28.7070    4.2410 C.3    38  GLU38       0.1163
     37  CD        14.0850  -27.3980    4.2900 C.2    38  GLU38       0.3649
     38  OE1       13.6550  -26.3890    3.6900 O.co2  38  GLU38      -0.2457
     39  OE2       15.1410  -27.3710    4.9440 O.co2  38  GLU38      -0.2457
     40  N          6.8410  -38.8030   -2.1430 N.3    59  VAL59      -0.1245
     41  CA         6.7670  -37.9230   -0.9890 C.3    59  VAL59       0.1561
     42  C          7.1450  -36.5180   -1.4630 C.2    59  VAL59       0.2260
     43  O          8.2010  -36.3460   -2.0510 O.2    59  VAL59      -0.2867
     44  CB         7.7760  -38.3370    0.1060 C.3    59  VAL59       0.0252
     45  CG1        7.9170  -37.2260    1.1430 C.3    59  VAL59       0.0019
     46  CG2        7.4150  -39.6720    0.7670 C.3    59  VAL59       0.0019
     47  N          7.0400  -32.0110   -0.5500 N.3    61  ASP61      -0.1239
     48  CA         6.9180  -30.9630    0.4780 C.3    61  ASP61       0.1674
     49  C          7.0980  -29.5840   -0.1280 C.2    61  ASP61       0.2266
     50  O          7.6940  -29.4630   -1.2120 O.2    61  ASP61      -0.2867
     51  CB         7.9050  -31.1900    1.6230 C.3    61  ASP61       0.1410
     52  CG         9.3510  -30.9680    1.2140 C.2    61  ASP61       0.3668
     53  OD1        9.6850  -29.8750    0.7130 O.co2  61  ASP61      -0.2456
     54  OD2       10.1780  -31.8840    1.4390 O.co2  61  ASP61      -0.2456
     55  N         12.2250  -25.5920    1.1230 N.3    64  ARG64      -0.1231
     56  CA        13.1060  -24.7670    0.2950 C.3    64  ARG64       0.1694
     57  C         13.5160  -25.4020   -1.0040 C.2    64  ARG64       0.2593
     58  O         13.8560  -24.6790   -1.9360 O.2    64  ARG64      -0.2718
     59  CB        14.3780  -24.3680    1.0380 C.3    64  ARG64       0.0321
     60  CG        14.1850  -23.2320    2.0220 C.3    64  ARG64       0.0489
     61  CD        15.3850  -23.1140    2.9390 C.3    64  ARG64       0.2205
     62  NE        15.5530  -24.2760    3.8120 N.pl3  64  ARG64      -0.0865
     63  CZ        16.6300  -24.5050    4.5610 C.cat  64  ARG64       0.5346
     64  NH1       17.6500  -23.6500    4.5650 N.pl3  64  ARG64       0.1354
     65  NH2       16.6850  -25.5870    5.3170 N.pl3  64  ARG64       0.1354
     66  N         13.5280  -26.7310   -1.0650 N.am   65  GLY65      -0.1942
     67  CA        13.9480  -27.4490   -2.2910 C.3    65  GLY65       0.2014
     68  C         15.4270  -27.7850   -2.2920 C.2    65  GLY65       0.2639
     69  O         16.2670  -26.8810   -2.2830 O.2    65  GLY65      -0.2714
     70  N         15.7460  -29.0820   -2.2800 N.am   66  MET66      -0.1963
     71  CA        17.1310  -29.5860   -2.4000 C.3    66  MET66       0.1722
     72  C         18.0880  -28.7330   -3.2640 C.2    66  MET66       0.2458
     73  O         17.7480  -28.3860   -4.4120 O.2    66  MET66      -0.2730
     74  CB        17.1370  -30.9950   -2.9690 C.3    66  MET66       0.0427
     75  CG        16.5730  -32.0600   -2.0590 C.3    66  MET66       0.0599
     76  SD        17.0100  -33.7200   -2.6230 S.3    66  MET66      -0.1393
     77  CE        18.7700  -33.7220   -2.3280 C.3    66  MET66       0.0692
     78  N         19.3040  -28.4410   -2.7300 N.am   67  PRO67      -0.2727
     79  CA        20.2820  -27.5890   -3.3810 C.3    67  PRO67       0.1402
     80  C         20.6950  -28.1740   -4.7110 C.2    67  PRO67       0.2269
     81  O         20.6640  -29.3980   -4.9030 O.2    67  PRO67      -0.2865
     82  CB        21.4700  -27.6070   -2.4180 C.3    67  PRO67       0.0296
     83  CG        20.9300  -28.1020   -1.1300 C.3    67  PRO67       0.0237
     84  CD        19.8930  -29.0900   -1.5490 C.3    67  PRO67       0.0939
     85  N         24.1330  -35.7690   -2.6450 N.3    82  ILE82      -0.1245
     86  CA        23.3420  -36.3380   -1.5780 C.3    82  ILE82       0.1561
     87  C         22.7440  -37.6590   -2.0280 C.2    82  ILE82       0.2260
     88  O         22.6190  -38.5890   -1.2360 O.2    82  ILE82      -0.2867
     89  CB        22.2010  -35.3600   -1.2040 C.3    82  ILE82       0.0252
     90  CG1       22.7650  -34.1540   -0.4410 C.3    82  ILE82       0.0019
     91  CG2       21.0850  -36.0620   -0.4330 C.3    82  ILE82       0.0019
     92  CD1       22.1020  -32.8360   -0.7970 C.3    82  ILE82       0.0001
     93  N         19.1680  -39.9660    2.4590 N.3    98  VAL98      -0.1245
     94  CA        18.2770  -40.3910    1.3900 C.3    98  VAL98       0.1561
     95  C         18.9450  -41.2900    0.3600 C.2    98  VAL98       0.2260
     96  O         18.2700  -42.0730   -0.2880 O.2    98  VAL98      -0.2867
     97  CB        17.5740  -39.1960    0.7050 C.3    98  VAL98       0.0252
     98  CG1       18.4910  -38.5070   -0.3050 C.3    98  VAL98       0.0019
     99  CG2       16.2640  -39.6530    0.0580 C.3    98  VAL98       0.0019
    100  N         13.1780  -24.4010   -6.9750 N.3   114  ARG114     -0.1245
    101  CA        14.0010  -23.3870   -6.3340 C.3   114  ARG114      0.1563
    102  C         14.1860  -22.3300   -7.4010 C.2   114  ARG114      0.2260
    103  O         14.3060  -22.6850   -8.6020 O.2   114  ARG114     -0.2867
    104  CB        15.4140  -23.8770   -6.1070 C.3   114  ARG114      0.0307
    105  CG        15.6800  -24.6580   -4.8630 C.3   114  ARG114      0.0489
    106  CD        17.1460  -25.0130   -4.7910 C.3   114  ARG114      0.2205
    107  NE        17.9200  -23.8890   -4.2790 N.pl3 114  ARG114     -0.0865
    108  CZ        18.1330  -23.6450   -2.9910 C.cat 114  ARG114      0.5346
    109  NH1       17.6150  -24.4270   -2.0610 N.pl3 114  ARG114      0.1354
    110  NH2       18.8540  -22.6070   -2.6400 N.pl3 114  ARG114      0.1354
    111  N         10.6340  -29.8910   -2.6580 N.3   145  THR145     -0.1218
    112  CA        11.3230  -31.0970   -3.1460 C.3   145  THR145      0.1862
    113  C         10.2840  -32.1750   -3.3010 C.2   145  THR145      0.2287
    114  O          9.4420  -32.3400   -2.4110 O.2   145  THR145     -0.2866
    115  CB        12.3860  -31.5980   -2.1440 C.3   145  THR145      0.1770
    116  OG1       13.4510  -30.6450   -2.0640 O.3   145  THR145     -0.2211
    117  CG2       12.9610  -32.9270   -2.5840 C.3   145  THR145      0.0375
    118  N         10.1630  -36.3570   -4.4600 N.3   147  ILE147     -0.1245
    119  CA        10.8740  -37.6060   -4.7910 C.3   147  ILE147      0.1561
    120  C          9.9100  -38.7830   -5.0250 C.2   147  ILE147      0.2260
    121  O          9.0940  -39.0860   -4.1500 O.2   147  ILE147     -0.2867
    122  CB        11.8310  -38.0170   -3.6540 C.3   147  ILE147      0.0252
    123  CG1       12.9490  -36.9750   -3.4620 C.3   147  ILE147      0.0019
    124  CG2       12.4050  -39.3950   -3.8970 C.3   147  ILE147      0.0019
    125  CD1       13.4840  -36.8860   -2.0370 C.3   147  ILE147      0.0001
@<TRIPOS>BOND
     1   103   102    2
     2   102   101    1
     3   100   101    1
     4   101   104    1
     5   104   105    1
     6   120   119    1
     7   120   121    2
     8    81    80    2
     9   105   106    1
    10   106   107    1
    11   119   118    1
    12   119   122    1
    13    80    79    1
    14    73    72    2
    15   107   108    2
    16   124   122    1
    17   122   123    1
    18   123   125    1
    19    79    78    1
    20    79    82    1
    21   113   112    1
    22   113   114    2
    23    72    78   am
    24    72    71    1
    25   112   111    1
    26   112   115    1
    27   108   110    1
    28   108   109    1
    29    74    71    1
    30    74    75    1
    31    78    84    1
    32    85    86    1
    33    76    77    1
    34    76    75    1
    35   117   115    1
    36    82    83    1
    37    71    70    1
    38    68    67    1
    39    68    69    2
    40    68    70   am
    41    67    66    1
    42   115   116    1
    43    40    41    1
    44    43    42    2
    45    87    86    1
    46    87    88    2
    47    58    57    2
    48    86    89    1
    49    84    83    1
    50    42    41    1
    51    50    49    2
    52    89    90    1
    53    89    91    1
    54    66    57   am
    55    57    56    1
    56    41    44    1
    57    92    90    1
    58    47    48    1
    59    98    97    1
    60    96    95    2
    61     8     6    1
    62    49    48    1
    63    99    97    1
    64    44    46    1
    65    44    45    1
    66    56    59    1
    67    56    55    1
    68    95    94    1
    69    48    51    1
    70    97    94    1
    71    53    52   ar
    72     6     5    1
    73     7     5    1
    74    59    60    1
    75    52    54   ar
    76    52    51    1
    77    94    93    1
    78     5     2    1
    79    60    61    1
    80    61    62    1
    81    22    21    1
    82     2     3    1
    83     2     1    1
    84    38    37   ar
    85     4     3    2
    86    62    63    2
    87    15    14    2
    88    13    14    1
    89    13    10    1
    90    14    16   am
    91    36    37    1
    92    36    35    1
    93    21    18    1
    94    37    39   ar
    95    63    64    1
    96    63    65    1
    97    18    17    1
    98    18    19    1
    99    17    11   am
   100    11    12    2
   101    11    10    1
   102    35    32    1
   103    10     9    1
   104    19    20    2
   105    32    31    1
   106    32    33    1
   107    31    25   am
   108    33    34    2
   109    27    24    1
   110    27    28    1
   111    25    24    1
   112    25    26    2
   113    30    28   ar
   114    23    24    1
   115    28    29   ar
