@<TRIPOS>MOLECULE
tmp/4hy0C00.pdb
 136 135 0 0 0
SMALL
GASTEIGER

@<TRIPOS>ATOM
      1  N        -19.2310   15.8950   24.5710 N.3    39  LEU39      -0.1245
      2  CA       -19.1790   15.2570   25.8900 C.3    39  LEU39       0.1561
      3  C        -18.6610   16.1790   26.9830 C.2    39  LEU39       0.2260
      4  O        -18.5800   15.7800   28.1380 O.2    39  LEU39      -0.2867
      5  CB       -18.3330   13.9810   25.8270 C.3    39  LEU39       0.0270
      6  CG       -18.9340   12.8970   24.9320 C.3    39  LEU39       0.0019
      7  CD1      -18.1280   11.6080   24.9590 C.3    39  LEU39       0.0001
      8  CD2      -20.3670   12.6320   25.3540 C.3    39  LEU39       0.0001
      9  N        -14.1620   15.6310   22.3560 N.3    44  LYS44      -0.1231
     10  CA       -14.8010   14.3090   22.3600 C.3    44  LYS44       0.1693
     11  C        -16.2790   14.4060   22.0000 C.2    44  LYS44       0.2592
     12  O        -17.0340   15.1020   22.6740 O.2    44  LYS44      -0.2718
     13  CB       -14.7190   13.6570   23.7460 C.3    44  LYS44       0.0285
     14  CG       -13.3730   13.0730   24.1620 C.3    44  LYS44       0.0035
     15  CD       -13.5960   12.0040   25.2320 C.3    44  LYS44       0.0206
     16  CE       -12.4800   11.9230   26.2590 C.3    44  LYS44       0.1093
     17  NZ       -12.9510   11.2490   27.5090 N.3    44  LYS44      -0.1314
     18  N        -16.6930   13.6990   20.9540 N.am   45  VAL45      -0.1966
     19  CA       -18.1050   13.5750   20.6430 C.3    45  VAL45       0.1727
     20  C        -18.4770   12.0980   20.4760 C.2    45  VAL45       0.2616
     21  O        -17.6150   11.2640   20.2330 O.2    45  VAL45      -0.2715
     22  CB       -18.4740   14.3900   19.3950 C.3    45  VAL45       0.0290
     23  CG1      -17.9660   15.8160   19.5280 C.3    45  VAL45       0.0023
     24  CG2      -17.9230   13.7330   18.1410 C.3    45  VAL45       0.0023
     25  N        -19.7660   11.7970   20.6270 N.am   46  LYS46      -0.1977
     26  CA       -20.3040   10.4300   20.6130 C.3    46  LYS46       0.1596
     27  C        -21.5460   10.3930   19.7470 C.2    46  LYS46       0.2287
     28  O        -22.3570   11.3030   19.8250 O.2    46  LYS46      -0.2864
     29  CB       -20.7080   10.0030   22.0330 C.3    46  LYS46       0.0298
     30  CG       -19.9430    8.8270   22.6120 C.3    46  LYS46       0.0038
     31  CD       -20.6010    8.3000   23.8870 C.3    46  LYS46       0.0206
     32  CE       -19.8910    7.0480   24.4030 C.3    46  LYS46       0.1093
     33  NZ       -20.2070    6.7350   25.8300 N.3    46  LYS46      -0.1314
     34  N        -17.4990    6.9370   19.4860 N.3    53  GLY53      -0.1210
     35  CA       -16.8040    8.1230   19.9810 C.3    53  GLY53       0.1956
     36  C        -15.6370    8.4990   19.0950 C.2    53  GLY53       0.2612
     37  O        -14.8400    7.6470   18.7270 O.2    53  GLY53      -0.2717
     38  N        -15.5540    9.7770   18.7490 N.am   54  LEU54      -0.1965
     39  CA       -14.4540   10.3220   17.9560 C.3    54  LEU54       0.1728
     40  C        -13.8950   11.5530   18.6590 C.2    54  LEU54       0.2617
     41  O        -14.6350   12.3280   19.2660 O.2    54  LEU54      -0.2715
     42  CB       -14.9210   10.7110   16.5460 C.3    54  LEU54       0.0311
     43  CG       -15.5240    9.6060   15.6630 C.3    54  LEU54       0.0022
     44  CD1      -16.1810   10.2110   14.4270 C.3    54  LEU54       0.0001
     45  CD2      -14.4820    8.5710   15.2620 C.3    54  LEU54       0.0001
     46  N        -12.5800   11.7220   18.5700 N.am   55  THR55      -0.1937
     47  CA       -11.8940   12.8430   19.1970 C.3    55  THR55       0.2028
     48  C        -10.6910   13.2270   18.3520 C.2    55  THR55       0.2642
     49  O        -10.3820   12.5530   17.3630 O.2    55  THR55      -0.2714
     50  CB       -11.4480   12.4840   20.6280 C.3    55  THR55       0.1808
     51  OG1      -10.9820   13.6600   21.2920 O.3    55  THR55      -0.2208
     52  CG2      -10.3440   11.4210   20.6230 C.3    55  THR55       0.0379
     53  N        -10.0180   14.3030   18.7480 N.am   56  ASP56      -0.1957
     54  CA        -8.8680   14.8520   18.0110 C.3    56  ASP56       0.1840
     55  C         -9.1760   15.1200   16.5310 C.2    56  ASP56       0.2622
     56  O         -8.5270   14.5840   15.6320 O.2    56  ASP56      -0.2715
     57  CB        -7.6290   13.9590   18.1760 C.3    56  ASP56       0.1450
     58  CG        -7.1350   13.9100   19.6140 C.2    56  ASP56       0.3671
     59  OD1       -5.9040   13.8960   19.8350 O.co2  56  ASP56      -0.2456
     60  OD2       -7.9830   13.8970   20.5300 O.co2  56  ASP56      -0.2456
     61  N        -10.1780   15.9660   16.3030 N.am   57  TRP57      -0.1960
     62  CA       -10.5760   16.3790   14.9590 C.3    57  TRP57       0.1771
     63  C         -9.5930   17.3270   14.3340 C.2    57  TRP57       0.2619
     64  O         -8.9310   18.1040   15.0250 O.2    57  TRP57      -0.2715
     65  CB       -11.9210   17.0850   15.0040 C.3    57  TRP57       0.0590
     66  CG       -13.0610   16.2160   15.4490 C.ar   57  TRP57       0.0006
     67  CD1      -13.4910   15.9750   16.7470 C.ar   57  TRP57       0.0946
     68  CD2      -13.9760   15.4610   14.5970 C.ar   57  TRP57       0.0152
     69  NE1      -14.5720   15.1350   16.7570 N.ar   57  TRP57      -0.2442
     70  CE2      -14.9160   14.7940   15.4970 C.ar   57  TRP57       0.0810
     71  CE3      -14.1030   15.2740   13.2310 C.ar   57  TRP57       0.0012
     72  CZ2      -15.9280   13.9810   15.0250 C.ar   57  TRP57       0.0191
     73  CZ3      -15.1250   14.4490   12.7680 C.ar   57  TRP57       0.0001
     74  CH2      -16.0130   13.8170   13.6450 C.ar   57  TRP57       0.0015
     75  N         -9.5120   17.2780   13.0090 N.am   58  LYS58      -0.1977
     76  CA        -8.7320   18.2410   12.2470 C.3    58  LYS58       0.1596
     77  C         -9.6720   19.3430   11.7500 C.2    58  LYS58       0.2287
     78  O        -10.8690   19.1070   11.5750 O.2    58  LYS58      -0.2864
     79  CB        -8.0150   17.5700   11.0740 C.3    58  LYS58       0.0298
     80  CG        -7.2270   16.3240   11.4490 C.3    58  LYS58       0.0038
     81  CD        -6.2680   15.9200   10.3340 C.3    58  LYS58       0.0206
     82  CE        -6.1050   14.4080   10.2310 C.3    58  LYS58       0.1093
     83  NZ        -5.0610   14.0040    9.2440 N.3    58  LYS58      -0.1314
     84  N        -12.2190   18.3540    8.7530 N.3    61  GLU61      -0.1245
     85  CA       -12.7850   17.0010    8.7090 C.3    61  GLU61       0.1567
     86  C        -14.3160   16.9020    8.6700 C.2    61  GLU61       0.2260
     87  O        -15.0220   17.5810    9.4160 O.2    61  GLU61      -0.2867
     88  CB       -12.2550   16.1680    9.8820 C.3    61  GLU61       0.0388
     89  CG       -11.0350   15.3380    9.5210 C.3    61  GLU61       0.1160
     90  CD       -10.5320   14.5010   10.6730 C.2    61  GLU61       0.3649
     91  OE1      -10.7180   14.9100   11.8400 O.co2  61  GLU61      -0.2457
     92  OE2       -9.9430   13.4330   10.4020 O.co2  61  GLU61      -0.2457
     93  N        -15.9720   10.5410    8.8980 N.3    66  GLN66      -0.1245
     94  CA       -15.3720    9.9630   10.0860 C.3    66  GLN66       0.1566
     95  C        -16.2800    8.9090   10.7290 C.2    66  GLN66       0.2260
     96  O        -15.8050    7.8910   11.2270 O.2    66  GLN66      -0.2867
     97  CB       -15.0370   11.0620   11.0960 C.3    66  GLN66       0.0367
     98  CG       -13.9530   12.0250   10.6430 C.3    66  GLN66       0.0905
     99  CD       -12.7680   11.3320   10.0060 C.2    66  GLN66       0.2608
    100  OE1      -12.1100   10.5010   10.6240 O.2    66  GLN66      -0.2717
    101  NE2      -12.4960   11.6710    8.7590 N.am   66  GLN66      -0.0878
    102  N        -16.0940    5.7880    8.5650 N.3    69  LYS69      -0.1231
    103  CA       -14.7650    5.2110    8.6320 C.3    69  LYS69       0.1693
    104  C        -14.6290    4.2900    9.8400 C.2    69  LYS69       0.2592
    105  O        -14.0190    3.2210    9.7530 O.2    69  LYS69      -0.2718
    106  CB       -13.7290    6.3330    8.7120 C.3    69  LYS69       0.0285
    107  CG       -12.2900    5.8980    8.5400 C.3    69  LYS69       0.0035
    108  CD       -11.3770    7.1110    8.5740 C.3    69  LYS69       0.0206
    109  CE        -9.9190    6.7330    8.3590 C.3    69  LYS69       0.1093
    110  NZ        -9.0340    7.9210    8.5090 N.3    69  LYS69      -0.1314
    111  N        -15.2080    4.7010   10.9640 N.am   70  TRP70      -0.1962
    112  CA       -14.9560    4.0160   12.2300 C.3    70  TRP70       0.1771
    113  C        -16.1250    3.2370   12.7690 C.2    70  TRP70       0.2619
    114  O        -15.9320    2.2710   13.4990 O.2    70  TRP70      -0.2715
    115  CB       -14.4490    5.0170   13.2610 C.3    70  TRP70       0.0590
    116  CG       -13.1010    5.5810   12.8960 C.ar   70  TRP70       0.0006
    117  CD1      -12.7780    6.9090   12.6390 C.ar   70  TRP70       0.0946
    118  CD2      -11.8510    4.8470   12.6960 C.ar   70  TRP70       0.0152
    119  NE1      -11.4500    7.0420   12.3190 N.ar   70  TRP70      -0.2442
    120  CE2      -10.8380    5.8470   12.3380 C.ar   70  TRP70       0.0810
    121  CE3      -11.4770    3.5150   12.7870 C.ar   70  TRP70       0.0012
    122  CZ2       -9.5210    5.5020   12.0820 C.ar   70  TRP70       0.0191
    123  CZ3      -10.1420    3.1740   12.5200 C.ar   70  TRP70       0.0001
    124  CH2       -9.1890    4.1480   12.1780 C.ar   70  TRP70       0.0015
    125  N        -17.3420    3.6220   12.4160 N.am   71  TYR71      -0.1974
    126  CA       -18.5240    2.9320   12.9120 C.3    71  TYR71       0.1639
    127  C        -19.5740    2.7440   11.8290 C.2    71  TYR71       0.2290
    128  O        -20.6600    3.3300   11.9180 O.2    71  TYR71      -0.2864
    129  CB       -19.1180    3.7300   14.0620 C.3    71  TYR71       0.0560
    130  CG       -18.1020    4.1020   15.1120 C.ar   71  TYR71      -0.0198
    131  CD1      -17.6100    5.3970   15.2000 C.ar   71  TYR71      -0.0009
    132  CD2      -17.6310    3.1590   16.0080 C.ar   71  TYR71      -0.0009
    133  CE1      -16.6830    5.7400   16.1660 C.ar   71  TYR71       0.0417
    134  CE2      -16.7010    3.4920   16.9710 C.ar   71  TYR71       0.0417
    135  CZ       -16.2300    4.7800   17.0440 C.ar   71  TYR71       0.1957
    136  OH       -15.3080    5.1130   18.0050 O.3    71  TYR71      -0.2866
@<TRIPOS>BOND
     1   109   110    1
     2   109   108    1
     3   107   108    1
     4   107   106    1
     5   102   103    1
     6   103   106    1
     7   103   104    1
     8    86    85    1
     9    86    87    2
    10    85    84    1
    11    85    88    1
    12   101    99   am
    13    93    94    1
    14    83    82    1
    15    89    88    1
    16    89    90    1
    17   105   104    2
    18   104   111   am
    19    99   100    2
    20    99    98    1
    21    94    95    1
    22    94    97    1
    23    82    81    1
    24    81    80    1
    25    92    90   ar
    26    98    97    1
    27    90    91   ar
    28    95    96    2
    29   111   112    1
    30    79    80    1
    31    79    76    1
    32    78    77    2
    33    77    76    1
    34   127   128    2
    35   127   126    1
    36   122   124   ar
    37   122   120   ar
    38   124   123   ar
    39   112   113    1
    40   112   115    1
    41    76    75    1
    42   119   120   ar
    43   119   117   ar
    44   120   118   ar
    45   125   113   am
    46   125   126    1
    47   123   121   ar
    48   117   116   ar
    49   118   121   ar
    50   118   116   ar
    51    73    71   ar
    52    73    74   ar
    53   113   114    2
    54   116   115    1
    55   126   129    1
    56    75    63   am
    57    71    68   ar
    58    74    72   ar
    59   129   130    1
    60    63    62    1
    61    63    64    2
    62    44    43    1
    63    68    66   ar
    64    68    70   ar
    65    62    65    1
    66    62    61    1
    67    65    66    1
    68    72    70   ar
    69   130   131   ar
    70   130   132   ar
    71   131   133   ar
    72    45    43    1
    73    66    67   ar
    74    70    69   ar
    75    56    55    2
    76    43    42    1
    77   132   134   ar
    78   133   135   ar
    79    61    55   am
    80    55    54    1
    81    42    39    1
    82    67    69   ar
    83   134   135   ar
    84   135   136    1
    85    49    48    2
    86    39    40    1
    87    39    38    1
    88    54    57    1
    89    54    53    1
    90    24    22    1
    91    57    58    1
    92    48    53   am
    93    48    47    1
    94    46    40   am
    95    46    47    1
    96    40    41    2
    97    37    36    2
    98    38    36   am
    99    36    35    1
   100    47    50    1
   101    22    23    1
   102    22    19    1
   103    34    35    1
   104    58    59   ar
   105    58    60   ar
   106    27    28    2
   107    27    26    1
   108    21    20    2
   109    20    25   am
   110    20    19    1
   111    26    25    1
   112    26    29    1
   113    52    50    1
   114    50    51    1
   115    19    18    1
   116    18    11   am
   117    11    10    1
   118    11    12    2
   119    29    30    1
   120     9    10    1
   121    10    13    1
   122    30    31    1
   123    13    14    1
   124    31    32    1
   125    14    15    1
   126    32    33    1
   127     1     2    1
   128     6     7    1
   129     6     8    1
   130     6     5    1
   131    15    16    1
   132     5     2    1
   133     2     3    1
   134    16    17    1
   135     3     4    2
