@<TRIPOS>MOLECULE
tmp/4hy1B00.pdb
 125 115 0 0 0
SMALL
GASTEIGER

@<TRIPOS>ATOM
      1  N          1.6240   -4.8140   34.3070 N.3    31  ILE31      -0.1245
      2  CA         2.0080   -5.2260   35.6640 C.3    31  ILE31       0.1561
      3  C          2.8230   -4.1320   36.3170 C.2    31  ILE31       0.2260
      4  O          2.5630   -3.7710   37.4790 O.2    31  ILE31      -0.2867
      5  CB         2.8020   -6.5770   35.6900 C.3    31  ILE31       0.0252
      6  CG1        1.9710   -7.6850   35.0900 C.3    31  ILE31       0.0019
      7  CG2        3.1010   -7.0380   37.1120 C.3    31  ILE31       0.0019
      8  CD1        0.5500   -7.6990   35.6520 C.3    31  ILE31       0.0001
      9  N          0.8890   -1.2270   37.6080 N.3    34  ASN34      -0.1225
     10  CA         0.1710   -1.5290   38.8330 C.3    34  ASN34       0.1785
     11  C          1.0310   -1.4510   40.0840 C.2    34  ASN34       0.2597
     12  O          0.5060   -1.1830   41.1630 O.2    34  ASN34      -0.2718
     13  CB        -0.5310   -2.8710   38.7150 C.3    34  ASN34       0.1169
     14  CG        -1.7970   -2.7700   37.8910 C.2    34  ASN34       0.2627
     15  OD1       -2.8870   -2.5640   38.4330 O.2    34  ASN34      -0.2716
     16  ND2       -1.6590   -2.8620   36.5600 N.am   34  ASN34      -0.0877
     17  N          2.3410   -1.6660   39.9290 N.am   35  SER35      -0.1952
     18  CA         3.3140   -1.5060   41.0140 C.3    35  SER35       0.1924
     19  C          3.6190   -0.0290   41.1870 C.2    35  SER35       0.2314
     20  O          3.7450    0.4810   42.3190 O.2    35  SER35      -0.2863
     21  CB         4.6160   -2.2430   40.7180 C.3    35  SER35       0.2116
     22  OG         4.4530   -3.6670   40.7780 O.3    35  SER35      -0.2180
     23  N          1.6710    2.4530   40.6630 N.3    37  ASP37      -0.1225
     24  CA         0.5550    2.9950   41.4280 C.3    37  ASP37       0.1805
     25  C          0.8840    3.0060   42.9410 C.2    37  ASP37       0.2597
     26  O          0.6520    4.0070   43.6280 O.2    37  ASP37      -0.2718
     27  CB        -0.7080    2.1840   41.1660 C.3    37  ASP37       0.1424
     28  CG        -1.5710    2.7600   40.0400 C.2    37  ASP37       0.3668
     29  OD1       -1.3550    3.9170   39.6090 O.co2  37  ASP37      -0.2456
     30  OD2       -2.4930    2.0470   39.5910 O.co2  37  ASP37      -0.2456
     31  N          1.4610    1.9120   43.4330 N.am   38  GLU38      -0.1979
     32  CA         1.8850    1.8140   44.8320 C.3    38  GLU38       0.1602
     33  C          3.0420    2.7280   45.1710 C.2    38  GLU38       0.2287
     34  O          3.0850    3.2480   46.2760 O.2    38  GLU38      -0.2864
     35  CB         2.2780    0.3810   45.2000 C.3    38  GLU38       0.0415
     36  CG         1.1190   -0.5220   45.5100 C.3    38  GLU38       0.1163
     37  CD         0.3400   -0.0610   46.7220 C.2    38  GLU38       0.3649
     38  OE1        0.7990   -0.2910   47.8700 O.co2  38  GLU38      -0.2457
     39  OE2       -0.7470    0.5070   46.5170 O.co2  38  GLU38      -0.2457
     40  N          7.3780   -9.9170   37.9040 N.3    59  VAL59      -0.1245
     41  CA         7.4990   -8.5580   38.4410 C.3    59  VAL59       0.1561
     42  C          7.1270   -8.5930   39.9340 C.2    59  VAL59       0.2260
     43  O          6.0950   -9.1520   40.2850 O.2    59  VAL59      -0.2867
     44  CB         6.5530   -7.5800   37.7480 C.3    59  VAL59       0.0252
     45  CG1        6.8210   -6.1430   38.2390 C.3    59  VAL59       0.0019
     46  CG2        6.6740   -7.6690   36.2290 C.3    59  VAL59       0.0019
     47  N          7.0130   -6.1470   43.7520 N.3    61  ASP61      -0.1239
     48  CA         7.2050   -4.8320   44.3430 C.3    61  ASP61       0.1674
     49  C          7.2160   -4.9560   45.8840 C.2    61  ASP61       0.2266
     50  O          6.9440   -6.0380   46.3950 O.2    61  ASP61      -0.2867
     51  CB         6.1620   -3.8550   43.8270 C.3    61  ASP61       0.1410
     52  CG         4.7150   -4.2520   44.2270 C.2    61  ASP61       0.3668
     53  OD1        4.4710   -4.5590   45.4420 O.co2  61  ASP61      -0.2456
     54  OD2        3.8240   -4.2570   43.3260 O.co2  61  ASP61      -0.2456
     55  N          2.0360   -2.4730   49.5360 N.3    64  ARG64      -0.1231
     56  CA         1.1910   -2.9940   50.6280 C.3    64  ARG64       0.1694
     57  C          0.7760   -4.4400   50.4390 C.2    64  ARG64       0.2593
     58  O          0.3480   -5.0900   51.3890 O.2    64  ARG64      -0.2718
     59  CB        -0.0630   -2.1500   50.8200 C.3    64  ARG64       0.0321
     60  CG         0.2120   -0.7260   51.2850 C.3    64  ARG64       0.0489
     61  CD        -1.0560    0.0920   51.1960 C.3    64  ARG64       0.2205
     62  NE        -1.2920    0.5390   49.8290 N.pl3  64  ARG64      -0.0865
     63  CZ        -2.2960    1.3160   49.4470 C.cat  64  ARG64       0.5346
     64  NH1       -3.2040    1.7460   50.3280 N.pl3  64  ARG64       0.1354
     65  NH2       -2.4010    1.6620   48.1730 N.pl3  64  ARG64       0.1354
     66  N          0.9220   -4.9590   49.2180 N.am   65  GLY65      -0.1942
     67  CA         0.4160   -6.2850   48.9210 C.3    65  GLY65       0.2014
     68  C         -1.0410   -6.2090   48.4710 C.2    65  GLY65       0.2639
     69  O         -1.8770   -5.5750   49.1360 O.2    65  GLY65      -0.2714
     70  N         -1.3490   -6.8260   47.3320 N.am   66  MET66      -0.1963
     71  CA        -2.6980   -6.7830   46.7600 C.3    66  MET66       0.1722
     72  C         -3.7450   -7.4120   47.7120 C.2    66  MET66       0.2458
     73  O         -3.4850   -8.4720   48.2990 O.2    66  MET66      -0.2730
     74  CB        -2.7070   -7.5290   45.4280 C.3    66  MET66       0.0427
     75  CG        -4.0300   -7.4620   44.6670 C.3    66  MET66       0.0599
     76  SD        -4.0410   -8.3470   43.0930 S.3    66  MET66      -0.1393
     77  CE        -2.4620   -7.8330   42.4130 C.3    66  MET66       0.0692
     78  N         -4.9410   -6.7840   47.8440 N.am   67  PRO67      -0.2727
     79  CA        -5.9410   -7.2950   48.8280 C.3    67  PRO67       0.1402
     80  C         -6.3260   -8.7570   48.6240 C.2    67  PRO67       0.2269
     81  O         -6.4480   -9.2180   47.4860 O.2    67  PRO67      -0.2865
     82  CB        -7.1410   -6.3650   48.6250 C.3    67  PRO67       0.0296
     83  CG        -6.5550   -5.0970   48.0920 C.3    67  PRO67       0.0237
     84  CD        -5.3690   -5.5100   47.2410 C.3    67  PRO67       0.0939
     85  N         -9.7610   -9.2330   40.9360 N.3    82  ILE82      -0.1245
     86  CA        -8.8740   -8.4180   40.0920 C.3    82  ILE82       0.1561
     87  C         -8.3050   -9.2070   38.8850 C.2    82  ILE82       0.2260
     88  O         -8.1530   -8.6510   37.8130 O.2    82  ILE82      -0.2867
     89  CB        -7.7690   -7.7330   40.9670 C.3    82  ILE82       0.0252
     90  CG1       -8.3890   -6.6320   41.8320 C.3    82  ILE82       0.0019
     91  CG2       -6.6390   -7.1080   40.1530 C.3    82  ILE82       0.0019
     92  CD1       -7.6300   -6.3430   43.1130 C.3    82  ILE82       0.0001
     93  N         -5.0910   -5.7370   35.0810 N.3    96  VAL96      -0.1245
     94  CA        -4.1720   -6.8590   35.0720 C.3    96  VAL96       0.1561
     95  C         -4.8370   -8.1880   34.7480 C.2    96  VAL96       0.2260
     96  O         -4.1310   -9.1760   34.5300 O.2    96  VAL96      -0.2867
     97  CB        -3.4450   -6.9750   36.4330 C.3    96  VAL96       0.0252
     98  CG1       -2.5120   -5.7950   36.6440 C.3    96  VAL96       0.0019
     99  CG2       -4.4730   -7.0150   37.5550 C.3    96  VAL96       0.0019
    100  N          1.3860  -10.0430   53.0140 N.3   112  ARG112     -0.1245
    101  CA         0.4910   -9.0970   53.6360 C.3   112  ARG112      0.1563
    102  C          0.0280   -9.6040   55.0070 C.2   112  ARG112      0.2260
    103  O         -0.2970  -10.7820   55.1650 O.2   112  ARG112     -0.2867
    104  CB        -0.7120   -8.9480   52.7140 C.3   112  ARG112      0.0307
    105  CG        -1.5650   -7.7510   53.0040 C.3   112  ARG112      0.0489
    106  CD        -2.6100   -7.6570   51.9120 C.3   112  ARG112      0.2205
    107  NE        -3.7660   -6.9350   52.4030 N.pl3 112  ARG112     -0.0865
    108  CZ        -3.9770   -5.6280   52.2710 C.cat 112  ARG112      0.5346
    109  NH1       -3.1090   -4.8370   51.6440 N.pl3 112  ARG112      0.1354
    110  NH2       -5.0820   -5.1050   52.7800 N.pl3 112  ARG112      0.1354
    111  N          3.8560   -7.4990   46.3210 N.3   143  THR143     -0.1218
    112  CA         3.2150   -8.4040   45.3890 C.3   143  THR143      0.1862
    113  C          4.2230   -8.8150   44.3220 C.2   143  THR143      0.2287
    114  O          5.0410   -8.0080   43.8720 O.2   143  THR143     -0.2866
    115  CB         2.0330   -7.7400   44.7000 C.3   143  THR143      0.1770
    116  OG1        1.1230   -7.2510   45.6960 O.3   143  THR143     -0.2211
    117  CG2        1.2860   -8.7550   43.7780 C.3   143  THR143      0.0375
    118  N          4.1670  -11.2720   40.7090 N.3   145  ILE145     -0.1245
    119  CA         3.3230  -11.9390   39.7280 C.3   145  ILE145      0.1561
    120  C          4.2880  -12.4680   38.6700 C.2   145  ILE145      0.2260
    121  O          5.1050  -11.7130   38.1400 O.2   145  ILE145     -0.2867
    122  CB         2.3500  -10.9320   39.0770 C.3   145  ILE145      0.0252
    123  CG1        1.2460  -10.5010   40.0750 C.3   145  ILE145      0.0019
    124  CG2        1.7630  -11.4970   37.7900 C.3   145  ILE145      0.0019
    125  CD1        0.2890   -9.4210   39.5570 C.3   145  ILE145      0.0001
@<TRIPOS>BOND
     1     1     2    1
     2    96    95    2
     3    95    94    1
     4    94    93    1
     5    94    97    1
     6     6     8    1
     7     6     5    1
     8     2     5    1
     9     2     3    1
    10     5     7    1
    11    46    44    1
    12     3     4    2
    13    97    98    1
    14    97    99    1
    15    16    14   am
    16     9    10    1
    17    44    45    1
    18    44    41    1
    19   124   122    1
    20    88    87    2
    21    14    15    2
    22    14    13    1
    23    40    41    1
    24   121   120    2
    25    41    42    1
    26   120   119    1
    27    13    10    1
    28    10    11    1
    29    87    86    1
    30   122   119    1
    31   122   123    1
    32   125   123    1
    33    30    28   ar
    34    29    28   ar
    35   119   118    1
    36    17    11   am
    37    17    18    1
    38    42    43    2
    39    28    27    1
    40    11    12    2
    41    86    85    1
    42    86    89    1
    43    91    89    1
    44    23    24    1
    45    21    22    1
    46    21    18    1
    47    89    90    1
    48    18    19    1
    49    27    24    1
    50    19    20    2
    51    24    25    1
    52    90    92    1
    53    77    76    1
    54    25    31   am
    55    25    26    2
    56    76    75    1
    57    54    52   ar
    58    31    32    1
    59    47    48    1
    60   117   115    1
    61    51    52    1
    62    51    48    1
    63   114   113    2
    64    52    53   ar
    65   113   112    1
    66    48    49    1
    67    75    74    1
    68   115   112    1
    69   115   116    1
    70    32    33    1
    71    32    35    1
    72    33    34    2
    73    35    36    1
    74   112   111    1
    75    74    71    1
    76    36    37    1
    77    49    50    2
    78    39    37   ar
    79    37    38   ar
    80    71    70    1
    81    71    72    1
    82    84    78    1
    83    84    83    1
    84    70    68   am
    85    81    80    2
    86    72    78   am
    87    72    73    2
    88    78    79    1
    89    83    82    1
    90    65    63    1
    91    68    67    1
    92    68    69    2
    93    80    79    1
    94    82    79    1
    95    67    66    1
    96    66    57   am
    97    63    62    2
    98    63    64    1
    99    55    56    1
   100    62    61    1
   101    57    56    1
   102    57    58    2
   103    56    59    1
   104    59    60    1
   105    61    60    1
   106   109   108    1
   107   106   107    1
   108   106   105    1
   109   108   107    2
   110   108   110    1
   111   104   105    1
   112   104   101    1
   113   100   101    1
   114   101   102    1
   115   102   103    2
