@<TRIPOS>MOLECULE
tmp/4hy2A00.pdb
 166 163 0 0 0
SMALL
GASTEIGER

@<TRIPOS>ATOM
      1  N         12.2440    1.9910   14.8370 N.3    40  SER40      -0.1202
      2  CA        13.1450    2.7450   15.6940 C.3    40  SER40       0.2020
      3  C         13.3140    4.1980   15.2480 C.2    40  SER40       0.2619
      4  O         13.6890    5.0400   16.0470 O.2    40  SER40      -0.2717
      5  CB        14.5100    2.0470   15.7470 C.3    40  SER40       0.2103
      6  OG        15.0120    1.8620   14.4400 O.3    40  SER40      -0.2182
      7  N         13.0350    4.4840   13.9770 N.am   41  LYS41      -0.1965
      8  CA        13.1490    5.8410   13.4330 C.3    41  LYS41       0.1728
      9  C         12.1920    5.9820   12.2480 C.2    41  LYS41       0.2616
     10  O         11.8520    5.0020   11.6010 O.2    41  LYS41      -0.2715
     11  CB        14.5800    6.1090   12.9260 C.3    41  LYS41       0.0311
     12  CG        15.6940    5.9870   13.9630 C.3    41  LYS41       0.0038
     13  CD        17.0630    6.0470   13.2890 C.3    41  LYS41       0.0206
     14  CE        18.1970    5.9160   14.3020 C.3    41  LYS41       0.1093
     15  NZ        19.5350    5.9470   13.6370 N.3    41  LYS41      -0.1314
     16  N         11.7420    7.1950   11.9690 N.am   42  TRP42      -0.1960
     17  CA        10.8830    7.4110   10.8150 C.3    42  TRP42       0.1771
     18  C         11.0050    8.8520   10.3430 C.2    42  TRP42       0.2620
     19  O         11.4100    9.7340   11.1030 O.2    42  TRP42      -0.2715
     20  CB         9.4100    7.0560   11.1150 C.3    42  TRP42       0.0590
     21  CG         8.7990    7.7720   12.2820 C.ar   42  TRP42       0.0006
     22  CD1        8.7000    7.3180   13.5620 C.ar   42  TRP42       0.0946
     23  CD2        8.2520    9.1000   12.2830 C.ar   42  TRP42       0.0152
     24  NE1        8.1280    8.2780   14.3640 N.ar   42  TRP42      -0.2442
     25  CE2        7.8460    9.3820   13.6030 C.ar   42  TRP42       0.0810
     26  CE3        8.0720   10.0780   11.2950 C.ar   42  TRP42       0.0012
     27  CZ2        7.2670   10.6060   13.9650 C.ar   42  TRP42       0.0191
     28  CZ3        7.5010   11.2900   11.6530 C.ar   42  TRP42       0.0001
     29  CH2        7.1050   11.5430   12.9770 C.ar   42  TRP42       0.0015
     30  N         10.6920    9.0680    9.0710 N.am   43  VAL43      -0.1963
     31  CA        10.7380   10.3950    8.4700 C.3    43  VAL43       0.1727
     32  C          9.4780   10.5570    7.6430 C.2    43  VAL43       0.2616
     33  O          9.2110    9.7470    6.7540 O.2    43  VAL43      -0.2715
     34  CB        11.9690   10.5600    7.5550 C.3    43  VAL43       0.0290
     35  CG1       11.8880   11.8750    6.8090 C.3    43  VAL43       0.0023
     36  CG2       13.2400   10.5120    8.3870 C.3    43  VAL43       0.0023
     37  N          8.6920   11.5870    7.9460 N.am   44  ASP44      -0.1971
     38  CA         7.4540   11.8170    7.2080 C.3    44  ASP44       0.1709
     39  C          7.6360   12.7800    6.0430 C.2    44  ASP44       0.2293
     40  O          7.5630   13.9950    6.2100 O.2    44  ASP44      -0.2864
     41  CB         6.3640   12.3710    8.1150 C.3    44  ASP44       0.1436
     42  CG         5.0160   12.4630    7.4050 C.2    44  ASP44       0.3671
     43  OD1        4.9740   12.2700    6.1680 O.co2  44  ASP44      -0.2456
     44  OD2        4.0040   12.7260    8.0810 O.co2  44  ASP44      -0.2456
     45  N          4.4570   14.3940    1.8870 N.3    47  ASP47      -0.1239
     46  CA         3.9910   15.5270    1.1010 C.3    47  ASP47       0.1674
     47  C          4.5700   15.4230   -0.3040 C.2    47  ASP47       0.2266
     48  O          3.9880   15.9160   -1.2630 O.2    47  ASP47      -0.2867
     49  CB         4.4190   16.8510    1.7400 C.3    47  ASP47       0.1410
     50  CG         3.9050   18.0590    0.9720 C.2    47  ASP47       0.3668
     51  OD1        2.6760   18.1520    0.7560 O.co2  47  ASP47      -0.2456
     52  OD2        4.7270   18.9190    0.5830 O.co2  47  ASP47      -0.2456
     53  N         19.7510   10.3140    6.2920 N.3   113  TYR113     -0.1241
     54  CA        19.1920   11.2480    7.2470 C.3   113  TYR113      0.1605
     55  C         18.8850   10.5850    8.5850 C.2   113  TYR113      0.2264
     56  O         19.2380   11.1060    9.6410 O.2   113  TYR113     -0.2867
     57  CB        17.9060   11.8660    6.7030 C.3   113  TYR113      0.0534
     58  CG        17.3050   12.8610    7.6570 C.ar  113  TYR113     -0.0201
     59  CD1       17.8630   14.1250    7.8150 C.ar  113  TYR113     -0.0009
     60  CD2       16.1990   12.5270    8.4380 C.ar  113  TYR113     -0.0009
     61  CE1       17.3350   15.0340    8.7260 C.ar  113  TYR113      0.0417
     62  CE2       15.6640   13.4270    9.3520 C.ar  113  TYR113      0.0417
     63  CZ        16.2370   14.6770    9.4890 C.ar  113  TYR113      0.1957
     64  OH        15.7140   15.5710   10.3880 O.3   113  TYR113     -0.2866
     65  N         20.8930   11.6770   11.9790 N.3   117  HIS117     -0.1226
     66  CA        20.2370   12.6200   12.8680 C.3   117  HIS117      0.1752
     67  C         19.1760   12.1270   13.8420 C.2   117  HIS117      0.2596
     68  O         18.8220   12.8530   14.7670 O.2   117  HIS117     -0.2718
     69  CB        19.6430   13.7590   12.0370 C.3   117  HIS117      0.0759
     70  CG        20.6240   14.3970   11.1070 C.ar  117  HIS117      0.0818
     71  ND1       20.9620   13.8470    9.8890 N.ar  117  HIS117     -0.2268
     72  CD2       21.3890   15.5070   11.2430 C.ar  117  HIS117      0.1154
     73  CE1       21.8940   14.5890    9.3160 C.ar  117  HIS117      0.1986
     74  NE2       22.1710   15.6020   10.1180 N.ar  117  HIS117     -0.2212
     75  N         18.6710   10.9130   13.6720 N.am  118  LEU118     -0.1966
     76  CA        17.6090   10.4680   14.5760 C.3   118  LEU118      0.1728
     77  C         18.0060    9.3850   15.5610 C.2   118  LEU118      0.2616
     78  O         18.8500    8.5350   15.2610 O.2   118  LEU118     -0.2715
     79  CB        16.3960   10.0180   13.7550 C.3   118  LEU118      0.0311
     80  CG        15.9420   11.0040   12.6700 C.3   118  LEU118      0.0022
     81  CD1       14.7730   10.3990   11.9200 C.3   118  LEU118      0.0001
     82  CD2       15.5390   12.3600   13.2810 C.3   118  LEU118      0.0001
     83  N         17.3940    9.4310   16.7430 N.am  119  LEU119     -0.1977
     84  CA        17.6600    8.4570   17.7940 C.3   119  LEU119      0.1596
     85  C         16.9940    7.1350   17.4680 C.2   119  LEU119      0.2287
     86  O         15.9150    7.1030   16.8900 O.2   119  LEU119     -0.2864
     87  CB        17.1150    8.9370   19.1410 C.3   119  LEU119      0.0297
     88  CG        17.8910    9.9500   19.9770 C.3   119  LEU119      0.0022
     89  CD1       17.0430   10.3180   21.1990 C.3   119  LEU119      0.0001
     90  CD2       19.2430    9.3650   20.4030 C.3   119  LEU119      0.0001
     91  N         14.9040    4.3240   18.6280 N.3   121  ALA121     -0.1245
     92  CA        14.0230    3.9540   19.7300 C.3   121  ALA121      0.1562
     93  C         14.3390    2.4990   20.0890 C.2   121  ALA121      0.2260
     94  O         14.5620    1.6790   19.2020 O.2   121  ALA121     -0.2867
     95  CB        12.5650    4.0970   19.3120 C.3   121  ALA121      0.0290
     96  N         -1.2250    9.4750   11.0470 N.3   136  ARG136     -0.1245
     97  CA        -0.8400   10.2460   12.1990 C.3   136  ARG136      0.1563
     98  C         -1.9990   11.1080   12.6640 C.2   136  ARG136      0.2260
     99  O         -2.8290   11.5490   11.8660 O.2   136  ARG136     -0.2867
    100  CB         0.3790   11.1040   11.8750 C.3   136  ARG136      0.0307
    101  CG         0.2240   11.9850   10.6540 C.3   136  ARG136      0.0489
    102  CD         1.5480   12.6580   10.3460 C.3   136  ARG136      0.2205
    103  NE         1.9720   13.5180   11.4460 N.pl3 136  ARG136     -0.0865
    104  CZ         3.2070   13.9810   11.5980 C.cat 136  ARG136      0.5346
    105  NH1        4.1470   13.6630   10.7190 N.pl3 136  ARG136      0.1354
    106  NH2        3.5000   14.7610   12.6290 N.pl3 136  ARG136      0.1354
    107  N          3.4830    5.7890   18.5110 N.3   153  ASN153     -0.1225
    108  CA         4.4570    6.6930   19.1030 C.3   153  ASN153      0.1785
    109  C          3.7550    7.9830   19.4780 C.2   153  ASN153      0.2597
    110  O          3.1820    8.6370   18.6130 O.2   153  ASN153     -0.2718
    111  CB         5.5610    7.0090   18.0920 C.3   153  ASN153      0.1169
    112  CG         6.5700    5.9050   17.9650 C.2   153  ASN153      0.2627
    113  OD1        6.3100    4.7550   18.3420 O.2   153  ASN153     -0.2716
    114  ND2        7.7450    6.2400   17.4180 N.am  153  ASN153     -0.0877
    115  N          3.7910    8.3360   20.7620 N.am  154  PHE154     -0.1962
    116  CA         3.1640    9.5650   21.2320 C.3   154  PHE154      0.1771
    117  C          4.1810   10.7020   21.1760 C.2   154  PHE154      0.2619
    118  O          5.2290   10.6760   21.8330 O.2   154  PHE154     -0.2715
    119  CB         2.6180    9.3850   22.6490 C.3   154  PHE154      0.0574
    120  CG         1.4660    8.4220   22.7310 C.ar  154  PHE154     -0.0200
    121  CD1        1.6720    7.0860   23.0550 C.ar  154  PHE154     -0.0042
    122  CD2        0.1660    8.8530   22.4580 C.ar  154  PHE154     -0.0042
    123  CE1        0.6020    6.1870   23.1090 C.ar  154  PHE154     -0.0003
    124  CE2       -0.9120    7.9610   22.5090 C.ar  154  PHE154     -0.0003
    125  CZ        -0.6940    6.6260   22.8360 C.ar  154  PHE154     -0.0000
    126  N          3.8500   11.6930   20.3610 N.am  155  PHE155     -0.1974
    127  CA         4.6980   12.8480   20.1100 C.3   155  PHE155      0.1639
    128  C          5.1660   13.6450   21.3180 C.2   155  PHE155      0.2290
    129  O          6.3690   13.8450   21.5050 O.2   155  PHE155     -0.2864
    130  CB         3.9760   13.7890   19.1460 C.3   155  PHE155      0.0560
    131  CG         3.7000   13.1900   17.7990 C.ar  155  PHE155     -0.0200
    132  CD1        2.5320   13.5130   17.1110 C.ar  155  PHE155     -0.0042
    133  CD2        4.6220   12.3410   17.1940 C.ar  155  PHE155     -0.0042
    134  CE1        2.2870   13.0030   15.8450 C.ar  155  PHE155     -0.0003
    135  CE2        4.3870   11.8250   15.9320 C.ar  155  PHE155     -0.0003
    136  CZ         3.2160   12.1570   15.2510 C.ar  155  PHE155     -0.0000
    137  N          6.9360   11.2630   24.1990 N.3   158  HIS158     -0.1241
    138  CA         7.8450   10.2820   23.5950 C.3   158  HIS158      0.1621
    139  C          7.6290    8.8340   24.0230 C.2   158  HIS158      0.2264
    140  O          8.4880    7.9800   23.7970 O.2   158  HIS158     -0.2867
    141  CB         9.3010   10.6780   23.8620 C.3   158  HIS158      0.0745
    142  CG         9.6220   12.0720   23.4320 C.ar  158  HIS158      0.0817
    143  ND1        9.6700   12.4470   22.1060 N.ar  158  HIS158     -0.2268
    144  CD2        9.8100   13.2050   24.1530 C.ar  158  HIS158      0.1154
    145  CE1        9.8680   13.7510   22.0280 C.ar  158  HIS158      0.1986
    146  NE2        9.9540   14.2350   23.2550 N.ar  158  HIS158     -0.2212
    147  N          5.9120    5.0700   23.8550 N.3   160  LYS160     -0.1245
    148  CA         5.5360    4.2630   22.7000 C.3   160  LYS160      0.1561
    149  C          4.9370    2.9240   23.0880 C.2   160  LYS160      0.2260
    150  O          5.3030    2.3260   24.1070 O.2   160  LYS160     -0.2867
    151  CB         6.7640    4.0000   21.8140 C.3   160  LYS160      0.0271
    152  CG         7.5660    5.2410   21.4730 C.3   160  LYS160      0.0035
    153  CD         8.8770    4.9010   20.7680 C.3   160  LYS160      0.0206
    154  CE         9.6840    6.1680   20.4730 C.3   160  LYS160      0.1093
    155  NZ         9.9830    6.9510   21.7060 N.3   160  LYS160     -0.1314
    156  N         12.4710    6.1790   28.8590 N.3   177  ARG177     -0.1245
    157  CA        12.9290    5.2330   27.8530 C.3   177  ARG177      0.1563
    158  C         13.1250    3.8150   28.3730 C.2   177  ARG177      0.2260
    159  O         13.9380    3.0570   27.8490 O.2   177  ARG177     -0.2867
    160  CB        14.2080    5.7400   27.1780 C.3   177  ARG177      0.0307
    161  CG        13.9650    6.9620   26.2990 C.3   177  ARG177      0.0489
    162  CD        14.8990    6.9810   25.1010 C.3   177  ARG177      0.2205
    163  NE        16.1360    7.7150   25.3460 N.pl3 177  ARG177     -0.0865
    164  CZ        16.2910    9.0190   25.1300 C.cat 177  ARG177      0.5346
    165  NH1       15.2830    9.7450   24.6600 N.pl3 177  ARG177      0.1354
    166  NH2       17.4600    9.5970   25.3720 N.pl3 177  ARG177      0.1354
@<TRIPOS>BOND
     1    48    47    2
     2    47    46    1
     3    52    50   ar
     4    51    50   ar
     5    50    49    1
     6    46    49    1
     7    46    45    1
     8    39    40    2
     9    39    38    1
    10    43    42   ar
    11    53    54    1
    12    57    54    1
    13    57    58    1
    14    33    32    2
    15    35    34    1
    16    38    37    1
    17    38    41    1
    18    54    55    1
    19    42    44   ar
    20    42    41    1
    21    34    36    1
    22    34    31    1
    23    32    37   am
    24    32    31    1
    25    58    59   ar
    26    58    60   ar
    27    59    61   ar
    28    60    62   ar
    29    31    30    1
    30    55    56    2
    31    61    63   ar
    32    30    18   am
    33    73    71   ar
    34    73    74   ar
    35    62    63   ar
    36    63    64    1
    37    71    70   ar
    38    74    72   ar
    39    18    17    1
    40    18    19    2
    41   102   101    1
    42   102   103    1
    43   101   100    1
    44   105   104    1
    45    17    20    1
    46    17    16    1
    47    96    97    1
    48    70    72   ar
    49    70    69    1
    50    20    21    1
    51    26    28   ar
    52    26    23   ar
    53   103   104    2
    54   104   106    1
    55    10     9    2
    56    28    29   ar
    57    99    98    2
    58   100    97    1
    59    81    80    1
    60    16     9   am
    61    65    66    1
    62    69    66    1
    63    97    98    1
    64     9     8    1
    65    21    23   ar
    66    21    22   ar
    67    23    25   ar
    68    80    82    1
    69    80    79    1
    70    66    67    1
    71    11     8    1
    72    11    12    1
    73    29    27   ar
    74    13    12    1
    75    13    14    1
    76     8     7    1
    77    22    24   ar
    78    25    27   ar
    79    25    24   ar
    80    15    14    1
    81    75    67   am
    82    75    76    1
    83    79    76    1
    84    67    68    2
    85     7     3   am
    86     6     5    1
    87    76    77    1
    88     1     2    1
    89     3     2    1
    90     3     4    2
    91   136   134   ar
    92   136   135   ar
    93    78    77    2
    94    77    83   am
    95     2     5    1
    96   134   132   ar
    97   135   133   ar
    98    83    84    1
    99    86    85    2
   100   132   131   ar
   101   133   131   ar
   102   114   112   am
   103    85    84    1
   104    84    87    1
   105   131   130    1
   106   112   111    1
   107   112   113    2
   108   111   108    1
   109   107   108    1
   110   110   109    2
   111    91    92    1
   112   108   109    1
   113    87    88    1
   114   130   127    1
   115    94    93    2
   116    95    92    1
   117   109   115   am
   118    92    93    1
   119    88    90    1
   120    88    89    1
   121   127   126    1
   122   127   128    1
   123   126   117   am
   124   154   153    1
   125   154   155    1
   126   115   116    1
   127   153   152    1
   128   117   116    1
   129   117   118    2
   130   116   119    1
   131   128   129    2
   132   152   151    1
   133   151   148    1
   134   145   143   ar
   135   145   146   ar
   136   143   142   ar
   137   122   124   ar
   138   122   120   ar
   139   124   125   ar
   140   119   120    1
   141   148   149    1
   142   148   147    1
   143   120   121   ar
   144   125   123   ar
   145   121   123   ar
   146   149   150    2
   147   146   144   ar
   148   142   141    1
   149   142   144   ar
   150   138   141    1
   151   138   139    1
   152   138   137    1
   153   140   139    2
   154   165   164    1
   155   162   163    1
   156   162   161    1
   157   164   163    2
   158   164   166    1
   159   161   160    1
   160   160   157    1
   161   159   158    2
   162   157   158    1
   163   157   156    1
