@<TRIPOS>MOLECULE
tmp/4hy5A00.pdb
 134 133 0 0 0
SMALL
GASTEIGER

@<TRIPOS>ATOM
      1  N          5.0420   22.7330   34.7690 N.3    41  VAL41      -0.1245
      2  CA         6.2940   22.5430   35.5420 C.3    41  VAL41       0.1561
      3  C          6.7240   23.7390   36.3950 C.2    41  VAL41       0.2260
      4  O          7.7790   23.7000   37.0410 O.2    41  VAL41      -0.2867
      5  CB         7.4580   22.0490   34.6460 C.3    41  VAL41       0.0252
      6  CG1        7.0380   20.7850   33.9270 C.3    41  VAL41       0.0019
      7  CG2        7.8700   23.1320   33.6660 C.3    41  VAL41       0.0019
      8  N          5.8440   26.6150   30.4080 N.3    46  ASP46      -0.1225
      9  CA         6.4060   25.2780   30.1220 C.3    46  ASP46       0.1805
     10  C          5.5270   24.1550   30.6660 C.2    46  ASP46       0.2598
     11  O          5.2010   24.1400   31.8580 O.2    46  ASP46      -0.2718
     12  CB         7.7810   25.1380   30.7830 C.3    46  ASP46       0.1424
     13  CG         8.8390   26.0290   30.1720 C.2    46  ASP46       0.3668
     14  OD1        8.5520   26.7970   29.2240 O.co2  46  ASP46      -0.2456
     15  OD2        9.9810   25.9560   30.6690 O.co2  46  ASP46      -0.2456
     16  N          5.1640   23.1990   29.8020 N.am   47  VAL47      -0.1966
     17  CA         4.4430   21.9990   30.2160 C.3    47  VAL47       0.1727
     18  C          5.1910   20.7570   29.7300 C.2    47  VAL47       0.2616
     19  O          5.9690   20.8350   28.7610 O.2    47  VAL47      -0.2715
     20  CB         2.9790   21.9750   29.6930 C.3    47  VAL47       0.0290
     21  CG1        2.2200   23.1740   30.2510 C.3    47  VAL47       0.0023
     22  CG2        2.9210   21.9610   28.1420 C.3    47  VAL47       0.0023
     23  N          4.9780   19.6420   30.4220 N.am   48  LYS48      -0.1977
     24  CA         5.5450   18.3420   30.0220 C.3    48  LYS48       0.1596
     25  C          4.4380   17.2890   30.0130 C.2    48  LYS48       0.2287
     26  O          3.5090   17.3350   30.8420 O.2    48  LYS48      -0.2864
     27  CB         6.6380   17.8980   31.0070 C.3    48  LYS48       0.0298
     28  CG         7.9440   18.6610   30.8450 C.3    48  LYS48       0.0038
     29  CD         9.0200   18.1330   31.7930 C.3    48  LYS48       0.0206
     30  CE         9.9800   17.2030   31.0780 C.3    48  LYS48       0.1093
     31  NZ        10.7460   17.8560   29.9790 N.3    48  LYS48      -0.1314
     32  N          8.3390   18.1170   26.2590 N.3    55  GLY55      -0.1210
     33  CA         8.0540   19.4680   26.7820 C.3    55  GLY55       0.1956
     34  C          7.6900   20.4670   25.6990 C.2    55  GLY55       0.2612
     35  O          8.3380   20.4980   24.6360 O.2    55  GLY55      -0.2717
     36  N          6.6770   21.2910   25.9800 N.am   56  LEU56      -0.1965
     37  CA         6.2350   22.3490   25.0690 C.3    56  LEU56       0.1728
     38  C          6.1370   23.6910   25.7810 C.2    56  LEU56       0.2616
     39  O          5.8270   23.7520   26.9900 O.2    56  LEU56      -0.2715
     40  CB         4.8700   21.9960   24.4560 C.3    56  LEU56       0.0311
     41  CG         4.8870   20.7810   23.5250 C.3    56  LEU56       0.0022
     42  CD1        3.4450   20.3810   23.1980 C.3    56  LEU56       0.0001
     43  CD2        5.7160   21.0300   22.2670 C.3    56  LEU56       0.0001
     44  N          6.3860   24.7560   25.0250 N.am   57  ARG57      -0.1963
     45  CA         6.2550   26.1190   25.5520 C.3    57  ARG57       0.1729
     46  C          5.8360   27.1010   24.4710 C.2    57  ARG57       0.2616
     47  O          5.6490   26.7200   23.3080 O.2    57  ARG57      -0.2715
     48  CB         7.5750   26.5900   26.1920 C.3    57  ARG57       0.0348
     49  CG         8.7770   26.5130   25.2510 C.3    57  ARG57       0.0492
     50  CD         9.9720   27.2700   25.8190 C.3    57  ARG57       0.2205
     51  NE        10.4200   26.7120   27.1000 N.pl3  57  ARG57      -0.0865
     52  CZ        11.6570   26.2780   27.3570 C.cat  57  ARG57       0.5346
     53  NH1       11.9370   25.7890   28.5580 N.pl3  57  ARG57       0.1354
     54  NH2       12.6170   26.3380   26.4320 N.pl3  57  ARG57       0.1354
     55  N          5.6940   28.3650   24.8740 N.am   58  CYS58      -0.1954
     56  CA         5.3540   29.4780   23.9610 C.3    58  CYS58       0.1843
     57  C          4.0440   29.1940   23.2180 C.2    58  CYS58       0.2625
     58  O          3.9800   29.2500   21.9780 O.2    58  CYS58      -0.2714
     59  CB         6.5080   29.7590   22.9910 C.3    58  CYS58       0.0997
     60  SG         8.0680   30.1450   23.8420 S.3    58  CYS58      -0.0797
     61  N          3.0160   28.8760   24.0050 N.am   59  TRP59      -0.1960
     62  CA         1.6510   28.6350   23.5290 C.3    59  TRP59       0.1771
     63  C          1.0310   29.8620   22.9400 C.2    59  TRP59       0.2619
     64  O          1.1190   30.9620   23.5140 O.2    59  TRP59      -0.2715
     65  CB         0.8050   28.1330   24.6920 C.3    59  TRP59       0.0590
     66  CG         1.2650   26.7850   25.1380 C.ar   59  TRP59       0.0006
     67  CD1        2.1590   26.4710   26.1730 C.ar   59  TRP59       0.0946
     68  CD2        0.9140   25.5060   24.5240 C.ar   59  TRP59       0.0152
     69  NE1        2.3590   25.1070   26.2450 N.ar   59  TRP59      -0.2442
     70  CE2        1.6310   24.4700   25.2850 C.ar   59  TRP59       0.0810
     71  CE3        0.0970   25.1260   23.4650 C.ar   59  TRP59       0.0012
     72  CZ2        1.5180   23.1170   24.9800 C.ar   59  TRP59       0.0191
     73  CZ3       -0.0280   23.7530   23.1790 C.ar   59  TRP59       0.0001
     74  CH2        0.6770   22.7780   23.9090 C.ar   59  TRP59       0.0015
     75  N          0.3910   29.6950   21.7860 N.am   60  GLU60      -0.1977
     76  CA        -0.2090   30.8250   21.0830 C.3    60  GLU60       0.1602
     77  C         -1.6870   30.5940   20.8330 C.2    60  GLU60       0.2287
     78  O         -2.1570   29.4500   20.8670 O.2    60  GLU60      -0.2864
     79  CB         0.5390   31.0830   19.7810 C.3    60  GLU60       0.0415
     80  CG         1.9190   31.6870   20.0030 C.3    60  GLU60       0.1163
     81  CD         2.7960   31.6360   18.7670 C.2    60  GLU60       0.3649
     82  OE1        2.4200   30.9500   17.7930 O.co2  60  GLU60      -0.2457
     83  OE2        3.8690   32.2780   18.7760 O.co2  60  GLU60      -0.2457
     84  N         -3.5750   27.4230   19.2510 N.3    63  ASP63      -0.1239
     85  CA        -2.8250   26.1560   19.4060 C.3    63  ASP63       0.1674
     86  C         -3.7220   25.0720   19.9940 C.2    63  ASP63       0.2266
     87  O         -4.4580   25.3160   20.9600 O.2    63  ASP63      -0.2867
     88  CB        -1.6010   26.3220   20.3190 C.3    63  ASP63       0.1410
     89  CG        -0.4080   26.9690   19.6220 C.2    63  ASP63       0.3668
     90  OD1       -0.4350   27.1800   18.3800 O.co2  63  ASP63      -0.2456
     91  OD2        0.5750   27.2690   20.3380 O.co2  63  ASP63      -0.2456
     92  N         -0.2370   19.6010   18.7340 N.3    68  GLU68      -0.1245
     93  CA         1.1850   19.8130   19.0910 C.3    68  GLU68       0.1567
     94  C          1.8390   18.5230   19.6120 C.2    68  GLU68       0.2260
     95  O          2.9910   18.2360   19.2940 O.2    68  GLU68      -0.2867
     96  CB         1.3320   20.9450   20.1160 C.3    68  GLU68       0.0388
     97  CG         0.8700   22.3000   19.6020 C.3    68  GLU68       0.1160
     98  CD         1.5760   22.7260   18.3200 C.2    68  GLU68       0.3649
     99  OE1        2.8220   22.5890   18.2220 O.co2  68  GLU68      -0.2457
    100  OE2        0.8750   23.1950   17.3980 O.co2  68  GLU68      -0.2457
    101  N          2.5460   16.3970   16.5900 N.3    71  LYS71      -0.1231
    102  CA         3.5620   16.9970   15.7310 C.3    71  LYS71       0.1693
    103  C          4.9890   16.6970   16.2300 C.2    71  LYS71       0.2592
    104  O          5.8690   16.3530   15.4320 O.2    71  LYS71      -0.2718
    105  CB         3.3270   18.5130   15.6550 C.3    71  LYS71       0.0285
    106  CG         4.3340   19.2930   14.8350 C.3    71  LYS71       0.0035
    107  CD         3.9660   20.7750   14.8430 C.3    71  LYS71       0.0206
    108  CE         4.9760   21.6180   14.0690 C.3    71  LYS71       0.1093
    109  NZ         4.6250   23.0720   14.0960 N.3    71  LYS71      -0.1314
    110  N          5.2050   16.8520   17.5370 N.am   72  TRP72      -0.1962
    111  CA         6.5570   16.7690   18.1160 C.3    72  TRP72       0.1771
    112  C          6.9040   15.4580   18.7580 C.2    72  TRP72       0.2619
    113  O          8.0860   15.0810   18.7800 O.2    72  TRP72      -0.2715
    114  CB         6.7510   17.8770   19.1430 C.3    72  TRP72       0.0590
    115  CG         6.6890   19.2530   18.5320 C.ar   72  TRP72       0.0006
    116  CD1        5.7880   20.2640   18.8240 C.ar   72  TRP72       0.0946
    117  CD2        7.5610   19.8050   17.4890 C.ar   72  TRP72       0.0152
    118  NE1        6.0370   21.3750   18.0620 N.ar   72  TRP72      -0.2442
    119  CE2        7.0830   21.1660   17.2390 C.ar   72  TRP72       0.0810
    120  CE3        8.6480   19.3220   16.7550 C.ar   72  TRP72       0.0012
    121  CZ2        7.6920   22.0010   16.3060 C.ar   72  TRP72       0.0191
    122  CZ3        9.2440   20.1680   15.8090 C.ar   72  TRP72       0.0001
    123  CH2        8.7740   21.4740   15.5920 C.ar   72  TRP72       0.0015
    124  N          5.8900   14.7640   19.2930 N.am   73  PHE73      -0.1974
    125  CA         6.0920   13.5280   20.0940 C.3    73  PHE73       0.1639
    126  C          5.1910   12.3990   19.6090 C.2    73  PHE73       0.2290
    127  O          4.3830   11.8570   20.3810 O.2    73  PHE73      -0.2864
    128  CB         5.8320   13.7930   21.5940 C.3    73  PHE73       0.0560
    129  CG         6.4390   15.0880   22.0870 C.ar   73  PHE73      -0.0200
    130  CD1        7.8020   15.3220   21.9640 C.ar   73  PHE73      -0.0042
    131  CD2        5.6370   16.0780   22.6600 C.ar   73  PHE73      -0.0042
    132  CE1        8.3710   16.5270   22.3770 C.ar   73  PHE73      -0.0003
    133  CE2        6.2030   17.2870   23.0720 C.ar   73  PHE73      -0.0003
    134  CZ         7.5600   17.5030   22.9440 C.ar   73  PHE73      -0.0000
@<TRIPOS>BOND
     1   108   109    1
     2   108   107    1
     3   106   107    1
     4   106   105    1
     5   104   103    2
     6   123   122   ar
     7   123   121   ar
     8   105   102    1
     9   102   103    1
    10   102   101    1
    11   122   120   ar
    12   103   110   am
    13   121   119   ar
    14   120   117   ar
    15   119   117   ar
    16   119   118   ar
    17   100    98   ar
    18   117   115   ar
    19   110   111    1
    20    82    81   ar
    21   118   116   ar
    22   111   112    1
    23   111   114    1
    24    99    98   ar
    25    98    97    1
    26    90    89   ar
    27   115   116   ar
    28   115   114    1
    29    92    93    1
    30   112   113    2
    31   112   124   am
    32    81    83   ar
    33    81    80    1
    34    93    94    1
    35    93    96    1
    36    84    85    1
    37   124   125    1
    38    95    94    2
    39    85    86    1
    40    85    88    1
    41    97    96    1
    42   126   125    1
    43   126   127    2
    44    89    88    1
    45    89    91   ar
    46    79    80    1
    47    79    76    1
    48    86    87    2
    49   125   128    1
    50    77    78    2
    51    77    76    1
    52    76    75    1
    53   128   129    1
    54    75    63   am
    55   130   129   ar
    56   130   132   ar
    57    58    57    2
    58   129   131   ar
    59    43    41    1
    60   132   134   ar
    61   131   133   ar
    62    63    64    2
    63    63    62    1
    64   134   133   ar
    65    59    60    1
    66    59    56    1
    67    73    71   ar
    68    73    74   ar
    69    42    41    1
    70    57    56    1
    71    57    61   am
    72    47    46    2
    73    71    68   ar
    74    41    40    1
    75    62    61    1
    76    62    65    1
    77    74    72   ar
    78    56    55    1
    79    40    37    1
    80    46    55   am
    81    46    45    1
    82    68    66   ar
    83    68    70   ar
    84    35    34    2
    85    65    66    1
    86    72    70   ar
    87    44    45    1
    88    44    38   am
    89    37    38    1
    90    37    36    1
    91    66    67   ar
    92    49    50    1
    93    49    48    1
    94    70    69   ar
    95    45    48    1
    96    34    36   am
    97    34    33    1
    98    38    39    2
    99    50    51    1
   100    67    69   ar
   101    32    33    1
   102    54    52    1
   103    51    52    2
   104    52    53    1
   105    22    20    1
   106    19    18    2
   107    14    13   ar
   108    20    17    1
   109    20    21    1
   110    18    17    1
   111    18    23   am
   112    16    17    1
   113    16    10   am
   114    31    30    1
   115    25    24    1
   116    25    26    2
   117    24    23    1
   118    24    27    1
   119     9     8    1
   120     9    10    1
   121     9    12    1
   122    13    15   ar
   123    13    12    1
   124    10    11    2
   125    28    27    1
   126    28    29    1
   127    30    29    1
   128     7     5    1
   129     6     5    1
   130     5     2    1
   131     1     2    1
   132     2     3    1
   133     3     4    2
