@<TRIPOS>MOLECULE
tmp/4hy6A00.pdb
 112 107 0 0 0
SMALL
GASTEIGER

@<TRIPOS>ATOM
      1  N          1.6280   -8.2170  -30.3500 N.3    35  ASN35      -0.1240
      2  CA         1.1920   -8.4190  -28.9760 C.3    35  ASN35       0.1653
      3  C          2.3780   -8.5050  -28.0290 C.2    35  ASN35       0.2266
      4  O          2.3620   -7.9220  -26.9450 O.2    35  ASN35      -0.2867
      5  CB         0.3930   -9.7110  -28.8470 C.3    35  ASN35       0.1155
      6  CG        -1.0210   -9.5850  -29.3520 C.2    35  ASN35       0.2627
      7  OD1       -1.4700   -8.5090  -29.7810 O.2    35  ASN35      -0.2716
      8  ND2       -1.7380  -10.7020  -29.3160 N.am   35  ASN35      -0.0877
      9  N          0.5280  -12.0790  -17.9650 N.3    82  MET82      -0.1245
     10  CA        -0.8950  -11.9110  -17.6810 C.3    82  MET82       0.1570
     11  C         -1.2710  -12.5490  -16.3570 C.2    82  MET82       0.2261
     12  O         -0.8080  -13.6340  -16.0320 O.2    82  MET82      -0.2867
     13  CB        -1.7290  -12.5290  -18.8000 C.3    82  MET82       0.0387
     14  CG        -1.7040  -11.6980  -20.0880 C.3    82  MET82       0.0595
     15  SD        -2.4980  -12.4640  -21.5350 S.3    82  MET82      -0.1393
     16  CE        -1.3180  -13.7690  -21.9120 C.3    82  MET82       0.0692
     17  N         -6.6140  -11.4300  -15.9630 N.3    86  ASP86      -0.1225
     18  CA        -6.4270  -11.0750  -17.3690 C.3    86  ASP86       0.1805
     19  C         -6.9390  -12.1940  -18.2640 C.2    86  ASP86       0.2597
     20  O         -7.6550  -11.9460  -19.2390 O.2    86  ASP86      -0.2718
     21  CB        -4.9470  -10.8660  -17.6890 C.3    86  ASP86       0.1424
     22  CG        -4.4280   -9.5110  -17.2620 C.2    86  ASP86       0.3668
     23  OD1       -5.2270   -8.5520  -17.1720 O.co2  86  ASP86      -0.2456
     24  OD2       -3.2010   -9.4050  -17.0340 O.co2  86  ASP86      -0.2456
     25  N         -6.5380  -13.4260  -17.9420 N.am   87  LEU87      -0.1979
     26  CA        -6.8570  -14.5940  -18.7610 C.3    87  LEU87       0.1596
     27  C         -8.3400  -14.8800  -18.8180 C.2    87  LEU87       0.2287
     28  O         -8.8600  -15.2710  -19.8590 O.2    87  LEU87      -0.2864
     29  CB        -6.1370  -15.8380  -18.2370 C.3    87  LEU87       0.0297
     30  CG        -4.6230  -15.8580  -18.3760 C.3    87  LEU87       0.0022
     31  CD1       -4.0770  -17.1080  -17.7290 C.3    87  LEU87       0.0001
     32  CD2       -4.2570  -15.8300  -19.8480 C.3    87  LEU87       0.0001
     33  N         -9.1520   -9.2670  -20.3430 N.3    91  LEU91      -0.1231
     34  CA        -8.8360   -9.0820  -21.7500 C.3    91  LEU91       0.1693
     35  C        -10.0460   -9.3790  -22.6330 C.2    91  LEU91       0.2592
     36  O        -10.2620   -8.7070  -23.6410 O.2    91  LEU91      -0.2718
     37  CB        -7.6000   -9.9020  -22.1430 C.3    91  LEU91       0.0284
     38  CG        -6.3240   -9.4400  -21.4190 C.3    91  LEU91       0.0019
     39  CD1       -5.1580  -10.3720  -21.7160 C.3    91  LEU91       0.0001
     40  CD2       -5.9730   -8.0020  -21.7820 C.3    91  LEU91       0.0001
     41  N        -10.8450  -10.3660  -22.2420 N.am   92  GLY92      -0.1957
     42  CA       -12.0590  -10.6890  -22.9710 C.3    92  GLY92       0.1869
     43  C        -13.0630   -9.5550  -22.9160 C.2    92  GLY92       0.2309
     44  O        -13.7950   -9.3070  -23.8740 O.2    92  GLY92      -0.2863
     45  N        -12.3230   -6.2970  -22.6360 N.3    94  ILE94      -0.1231
     46  CA       -11.8420   -5.2560  -23.5270 C.3    94  ILE94       0.1692
     47  C        -12.0240   -5.6900  -24.9780 C.2    94  ILE94       0.2591
     48  O        -12.2990   -4.8660  -25.8510 O.2    94  ILE94      -0.2718
     49  CB       -10.3630   -4.8980  -23.2490 C.3    94  ILE94       0.0266
     50  CG1      -10.1930   -4.4340  -21.8000 C.3    94  ILE94       0.0019
     51  CG2       -9.8830   -3.8200  -24.2020 C.3    94  ILE94       0.0020
     52  CD1       -8.7730   -4.0800  -21.4360 C.3    94  ILE94       0.0001
     53  N        -11.9070   -6.9920  -25.2240 N.am   95  ALA95      -0.1980
     54  CA       -12.0020   -7.5400  -26.5760 C.3    95  ALA95       0.1597
     55  C        -13.4200   -7.5150  -27.1520 C.2    95  ALA95       0.2287
     56  O        -13.6050   -7.5960  -28.3680 O.2    95  ALA95      -0.2864
     57  CB       -11.4610   -8.9580  -26.6000 C.3    95  ALA95       0.0319
     58  N         -7.6590   -4.6060  -31.9470 N.3   119  GLY119     -0.1210
     59  CA        -7.1130   -5.0260  -30.6710 C.3   119  GLY119      0.1956
     60  C         -7.3100   -6.4960  -30.3570 C.2   119  GLY119      0.2611
     61  O         -7.0150   -6.9390  -29.2430 O.2   119  GLY119     -0.2717
     62  N         -7.7980   -7.2530  -31.3380 N.am  120  VAL120     -0.1979
     63  CA        -8.0910   -8.6690  -31.1280 C.3   120  VAL120      0.1595
     64  C         -7.2460   -9.5780  -32.0190 C.2   120  VAL120      0.2287
     65  O         -7.6210  -10.7230  -32.3180 O.2   120  VAL120     -0.2864
     66  CB        -9.5990   -8.9700  -31.2930 C.3   120  VAL120      0.0276
     67  CG1      -10.3890   -8.2830  -30.1840 C.3   120  VAL120      0.0022
     68  CG2      -10.0920   -8.5340  -32.6710 C.3   120  VAL120      0.0022
     69  N         -4.7240  -11.3580  -31.3910 N.3   122  PHE122     -0.1227
     70  CA        -4.4080  -12.6750  -30.8210 C.3   122  PHE122      0.1736
     71  C         -5.1830  -13.7990  -31.5030 C.2   122  PHE122      0.2595
     72  O         -4.6250  -14.8640  -31.7800 O.2   122  PHE122     -0.2718
     73  CB        -4.6950  -12.7110  -29.3080 C.3   122  PHE122      0.0547
     74  CG        -4.6360  -14.0910  -28.7240 C.ar  122  PHE122     -0.0202
     75  CD1       -3.4170  -14.6740  -28.4250 C.ar  122  PHE122     -0.0042
     76  CD2       -5.7970  -14.8210  -28.5130 C.ar  122  PHE122     -0.0042
     77  CE1       -3.3520  -15.9600  -27.9020 C.ar  122  PHE122     -0.0003
     78  CE2       -5.7320  -16.1130  -27.9920 C.ar  122  PHE122     -0.0003
     79  CZ        -4.5110  -16.6750  -27.6900 C.ar  122  PHE122     -0.0000
     80  N         -6.4680  -13.5580  -31.7740 N.am  123  TYR123     -0.1976
     81  CA        -7.3320  -14.6030  -32.3380 C.3   123  TYR123      0.1639
     82  C         -6.9980  -14.9960  -33.7820 C.2   123  TYR123      0.2290
     83  O         -7.4570  -16.0360  -34.2720 O.2   123  TYR123     -0.2864
     84  CB        -8.8220  -14.2660  -32.1270 C.3   123  TYR123      0.0560
     85  CG        -9.1940  -14.4020  -30.6620 C.ar  123  TYR123     -0.0198
     86  CD1       -9.3860  -15.6600  -30.1010 C.ar  123  TYR123     -0.0009
     87  CD2       -9.2820  -13.2900  -29.8330 C.ar  123  TYR123     -0.0009
     88  CE1       -9.6900  -15.8120  -28.7600 C.ar  123  TYR123      0.0417
     89  CE2       -9.5950  -13.4310  -28.4750 C.ar  123  TYR123      0.0417
     90  CZ        -9.7940  -14.6970  -27.9560 C.ar  123  TYR123      0.1957
     91  OH       -10.1060  -14.8640  -26.6230 O.3   123  TYR123     -0.2866
     92  N         -1.5320  -21.0510  -24.0440 N.3   134  VAL134     -0.1245
     93  CA        -0.8250  -19.8420  -23.6360 C.3   134  VAL134      0.1561
     94  C         -0.3020  -20.0340  -22.2240 C.2   134  VAL134      0.2260
     95  O         -1.0800  -20.2420  -21.2930 O.2   134  VAL134     -0.2867
     96  CB        -1.7430  -18.5950  -23.6900 C.3   134  VAL134      0.0252
     97  CG1       -0.9960  -17.3640  -23.1740 C.3   134  VAL134      0.0019
     98  CG2       -2.2320  -18.3600  -25.1140 C.3   134  VAL134      0.0019
     99  N         -3.4420  -21.2770  -20.2020 N.3   146  TRP146     -0.1241
    100  CA        -4.7410  -21.0830  -20.8370 C.3   146  TRP146      0.1605
    101  C         -4.7210  -21.9230  -22.0920 C.2   146  TRP146      0.2264
    102  O         -3.6840  -22.0440  -22.7420 O.2   146  TRP146     -0.2867
    103  CB        -4.8690  -19.6020  -21.2110 C.3   146  TRP146      0.0550
    104  CG        -6.0940  -19.1540  -22.0130 C.ar  146  TRP146      0.0003
    105  CD1       -7.1670  -18.4650  -21.5280 C.ar  146  TRP146      0.0946
    106  CD2       -6.3100  -19.2750  -23.4360 C.ar  146  TRP146      0.0152
    107  NE1       -8.0480  -18.1710  -22.5440 N.ar  146  TRP146     -0.2442
    108  CE2       -7.5440  -18.6530  -23.7230 C.ar  146  TRP146      0.0810
    109  CE3       -5.5870  -19.8510  -24.4850 C.ar  146  TRP146      0.0012
    110  CZ2       -8.0770  -18.5990  -25.0140 C.ar  146  TRP146      0.0191
    111  CZ3       -6.1160  -19.7850  -25.7740 C.ar  146  TRP146      0.0001
    112  CH2       -7.3480  -19.1690  -26.0230 C.ar  146  TRP146      0.0015
@<TRIPOS>BOND
     1    83    82    2
     2    82    81    1
     3    68    66    1
     4    81    84    1
     5    81    80    1
     6    65    64    2
     7    84    85    1
     8    64    63    1
     9    58    59    1
    10    72    71    2
    11    80    71   am
    12    71    70    1
    13    69    70    1
    14    62    63    1
    15    62    60   am
    16    66    63    1
    17    66    67    1
    18    70    73    1
    19    59    60    1
    20    85    86   ar
    21    85    87   ar
    22    60    61    2
    23     1     2    1
    24    86    88   ar
    25    87    89   ar
    26     7     6    2
    27     6     8   am
    28     6     5    1
    29    73    74    1
    30     2     5    1
    31     2     3    1
    32    88    90   ar
    33    74    76   ar
    34    74    75   ar
    35    76    78   ar
    36    89    90   ar
    37    75    77   ar
    38    56    55    2
    39     3     4    2
    40    78    79   ar
    41    90    91    1
    42    77    79   ar
    43    55    54    1
    44    57    54    1
    45    54    53    1
    46   112   111   ar
    47   112   110   ar
    48    48    47    2
    49   111   109   ar
    50    53    47   am
    51    98    96    1
    52   110   108   ar
    53    47    46    1
    54   109   106   ar
    55    51    49    1
    56    92    93    1
    57    44    43    2
    58   108   106   ar
    59   108   107   ar
    60    96    93    1
    61    96    97    1
    62    36    35    2
    63    93    94    1
    64    46    49    1
    65    46    45    1
    66   106   104   ar
    67    49    50    1
    68    42    43    1
    69    42    41    1
    70   102   101    2
    71    35    41   am
    72    35    34    1
    73   107   105   ar
    74    94    95    2
    75    37    34    1
    76    37    38    1
    77   101   100    1
    78   104   105   ar
    79   104   103    1
    80    16    15    1
    81    50    52    1
    82    40    38    1
    83    34    33    1
    84    39    38    1
    85    15    14    1
    86   103   100    1
    87   100    99    1
    88    14    13    1
    89    28    27    2
    90    32    30    1
    91    20    19    2
    92    27    26    1
    93    13    10    1
    94    26    29    1
    95    26    25    1
    96    30    29    1
    97    30    31    1
    98    19    25   am
    99    19    18    1
   100     9    10    1
   101    21    18    1
   102    21    22    1
   103    10    11    1
   104    18    17    1
   105    22    23   ar
   106    22    24   ar
   107    11    12    2
