@<TRIPOS>MOLECULE
tmp/4hy7A00.pdb
 187 181 0 0 0
SMALL
GASTEIGER

@<TRIPOS>ATOM
      1  N         -5.9100    6.4620   15.1660 N.3    60  HIS60      -0.1226
      2  CA        -5.3740    7.8300   15.2500 C.3    60  HIS60       0.1752
      3  C         -6.0800    8.8090   14.3050 C.2    60  HIS60       0.2595
      4  O         -5.8950   10.0210   14.4970 O.2    60  HIS60      -0.2718
      5  CB        -3.8840    7.8270   14.9630 C.3    60  HIS60       0.0759
      6  CG        -3.5630    7.4600   13.5330 C.ar   60  HIS60       0.0818
      7  ND1       -3.4690    6.1500   13.1380 N.ar   60  HIS60      -0.2268
      8  CD2       -3.2670    8.2510   12.4310 C.ar   60  HIS60       0.1154
      9  CE1       -3.2360    6.1530   11.8390 C.ar   60  HIS60       0.1986
     10  NE2       -3.0890    7.3810   11.3820 N.ar   60  HIS60      -0.2212
     11  N         -6.8300    8.3470   13.3440 N.am   61  ARG61      -0.1980
     12  CA        -7.4450    9.2610   12.3460 C.3    61  ARG61       0.1597
     13  C         -8.8090    8.7170   12.0860 C.2    61  ARG61       0.2287
     14  O         -8.9800    7.6670   11.4640 O.2    61  ARG61      -0.2864
     15  CB        -6.5890    9.2930   11.1240 C.3    61  ARG61       0.0334
     16  CG        -7.0930   10.2120   10.0140 C.3    61  ARG61       0.0492
     17  CD        -6.0040   10.4660    8.9820 C.3    61  ARG61       0.2205
     18  NE        -6.5010   11.1820    7.7950 N.pl3  61  ARG61      -0.0865
     19  CZ        -7.0040   10.6090    6.7200 C.cat  61  ARG61       0.5346
     20  NH1       -7.0980    9.2710    6.5570 N.pl3  61  ARG61       0.1354
     21  NH2       -7.5040   11.3630    5.6730 N.pl3  61  ARG61       0.1354
     22  N        -12.6570    9.9700   10.6830 N.3    63  ILE63      -0.1245
     23  CA       -13.3160   11.0700    9.9080 C.3    63  ILE63       0.1561
     24  C        -14.7560   10.6370    9.6980 C.2    63  ILE63       0.2260
     25  O        -15.0890    9.6720    8.9980 O.2    63  ILE63      -0.2867
     26  CB       -12.6090   11.3390    8.5590 C.3    63  ILE63       0.0252
     27  CG1      -11.1790   11.8020    8.8630 C.3    63  ILE63       0.0019
     28  CG2      -13.4230   12.3820    7.7720 C.3    63  ILE63       0.0019
     29  CD1      -10.3220   12.0350    7.6760 C.3    63  ILE63       0.0001
     30  N        -18.3900   10.1080    8.3870 N.3    65  ASP65      -0.1225
     31  CA       -18.9320    9.9790    7.0150 C.3    65  ASP65       0.1805
     32  C        -17.8260    9.5640    6.0550 C.2    65  ASP65       0.2598
     33  O        -17.8890    9.7720    4.8520 O.2    65  ASP65      -0.2718
     34  CB       -19.6800   11.2570    6.5070 C.3    65  ASP65       0.1424
     35  CG       -20.6700   11.7630    7.4820 C.2    65  ASP65       0.3668
     36  OD1      -21.4480   10.9850    8.0280 O.co2  65  ASP65      -0.2456
     37  OD2      -20.5970   12.9880    7.7450 O.co2  65  ASP65      -0.2456
     38  N        -16.7800    8.8680    6.5840 N.am   66  PHE66      -0.1962
     39  CA       -15.7350    8.3240    5.7680 C.3    66  PHE66       0.1771
     40  C        -15.2070    6.9920    6.2700 C.2    66  PHE66       0.2619
     41  O        -15.6030    5.9670    5.7210 O.2    66  PHE66      -0.2715
     42  CB       -14.6190    9.4100    5.5960 C.3    66  PHE66       0.0574
     43  CG       -13.4190    9.0280    4.7790 C.ar   66  PHE66      -0.0200
     44  CD1      -13.4880    8.0220    3.7890 C.ar   66  PHE66      -0.0042
     45  CD2      -12.1550    9.6830    5.0430 C.ar   66  PHE66      -0.0042
     46  CE1      -12.3260    7.6810    3.1110 C.ar   66  PHE66      -0.0003
     47  CE2      -11.0520    9.2870    4.3380 C.ar   66  PHE66      -0.0003
     48  CZ       -11.1520    8.2800    3.3600 C.ar   66  PHE66      -0.0000
     49  N        -14.3290    7.0530    7.2860 N.am   67  MET67      -0.1977
     50  CA       -13.6770    5.7990    7.7440 C.3    67  MET67       0.1605
     51  C        -13.0280    6.0470    9.0780 C.2    67  MET67       0.2287
     52  O        -12.8520    7.2040    9.5340 O.2    67  MET67      -0.2864
     53  CB       -12.7260    5.2630    6.6900 C.3    67  MET67       0.0413
     54  CG       -11.5610    6.1950    6.2860 C.3    67  MET67       0.0598
     55  SD       -10.1930    6.2240    7.5270 S.3    67  MET67      -0.1393
     56  CE       -10.0390    7.9750    7.9470 C.3    67  MET67       0.0692
     57  N         -9.3680    4.9200   10.8830 N.3    69  GLN69      -0.1245
     58  CA        -8.0270    4.4470   10.4950 C.3    69  GLN69       0.1566
     59  C         -7.2220    4.1580   11.7480 C.2    69  GLN69       0.2260
     60  O         -7.1510    4.9970   12.6950 O.2    69  GLN69      -0.2867
     61  CB        -7.3060    5.4800    9.6440 C.3    69  GLN69       0.0367
     62  CG        -5.8780    5.1020    9.2750 C.3    69  GLN69       0.0905
     63  CD        -5.2200    6.1440    8.3990 C.2    69  GLN69       0.2608
     64  OE1       -5.8220    7.1850    8.0520 O.2    69  GLN69      -0.2717
     65  NE2       -3.9620    5.8800    8.0160 N.am   69  GLN69      -0.0878
     66  N          0.7760    7.7650   14.9270 N.3    77  ASN77      -0.1225
     67  CA         0.2680    9.0060   14.2990 C.3    77  ASN77       0.1785
     68  C          0.0890    8.9470   12.8240 C.2    77  ASN77       0.2598
     69  O         -0.2330    9.9410   12.1710 O.2    77  ASN77      -0.2718
     70  CB         1.1770   10.2120   14.6530 C.3    77  ASN77       0.1169
     71  CG         2.5610   10.1030   14.0810 C.2    77  ASN77       0.2627
     72  OD1        2.8960    9.1500   13.4130 O.2    77  ASN77      -0.2716
     73  ND2        3.4280   11.1510   14.3130 N.am   77  ASN77      -0.0877
     74  N          0.2720    7.7530   12.2450 N.am   78  GLY78      -0.1942
     75  CA         0.1600    7.5790   10.8280 C.3    78  GLY78       0.2014
     76  C          1.4730    7.5220   10.0750 C.2    78  GLY78       0.2640
     77  O          1.5110    7.0790    8.9290 O.2    78  GLY78      -0.2714
     78  N          2.5630    7.9020   10.7550 N.am   79  THR79      -0.1936
     79  CA         3.8750    7.8520   10.1060 C.3    79  THR79       0.2028
     80  C          4.6000    6.5640   10.3100 C.2    79  THR79       0.2642
     81  O          5.6600    6.3980    9.6150 O.2    79  THR79      -0.2714
     82  CB         4.8000    8.9870   10.5940 C.3    79  THR79       0.1808
     83  OG1        5.1420    8.7410   11.9160 O.3    79  THR79      -0.2208
     84  CG2        4.1760   10.3960   10.3700 C.3    79  THR79       0.0379
     85  N          4.0450    5.5850   11.0090 N.am   80  GLY80      -0.1954
     86  CA         4.7620    4.3310   11.2150 C.3    80  GLY80       0.1869
     87  C          3.9320    3.1800   10.6760 C.2    80  GLY80       0.2309
     88  O          3.2320    3.2760    9.7290 O.2    80  GLY80      -0.2863
     89  N          7.3140   -2.8870    4.3780 N.3    88  LYS88      -0.1245
     90  CA         6.2380   -2.7630    3.4460 C.3    88  LYS88       0.1565
     91  C          6.0500   -4.0210    2.6250 C.2    88  LYS88       0.2260
     92  O          7.0810   -4.7430    2.3860 O.2    88  LYS88      -0.2867
     93  CB         6.4880   -1.5680    2.5350 C.3    88  LYS88       0.0317
     94  CG         6.5500   -0.2180    3.2980 C.3    88  LYS88       0.0294
     95  CD         5.4380   -0.0950    4.4200 C.2    88  LYS88      -0.0067
     96  CE         5.5450    1.1700    5.3390 C.2    88  LYS88       0.1012
     97  NZ         6.5560    2.3090    5.0770 N.pl3  88  LYS88      -0.1270
     98  N         -4.5650    0.7520    4.6040 N.3   107  ALA107     -0.1231
     99  CA        -4.0130    2.0970    4.3660 C.3   107  ALA107      0.1694
    100  C         -2.6180    1.9390    3.6990 C.2   107  ALA107      0.2592
    101  O         -1.9910    0.8780    3.7990 O.2   107  ALA107     -0.2718
    102  CB        -3.8900    2.8630    5.6870 C.3   107  ALA107      0.0304
    103  N         -2.1460    2.9440    2.9930 N.am  108  ASN108     -0.1960
    104  CA        -0.8320    2.8540    2.4120 C.3   108  ASN108      0.1819
    105  C         -0.2800    4.2380    2.1220 C.2   108  ASN108      0.2621
    106  O         -0.8780    5.2430    2.5010 O.2   108  ASN108     -0.2715
    107  CB        -0.8450    1.9520    1.1720 C.3   108  ASN108      0.1195
    108  CG        -1.7940    2.4700    0.1010 C.2   108  ASN108      0.2630
    109  OD1       -1.7300    3.6900   -0.2190 O.2   108  ASN108     -0.2716
    110  ND2       -2.6380    1.6440   -0.4750 N.am  108  ASN108     -0.0877
    111  N          0.8810    4.3020    1.5290 N.am  109  ALA109     -0.1963
    112  CA         1.4870    5.5660    1.0590 C.3   109  ALA109      0.1728
    113  C          1.7760    5.4630   -0.4390 C.2   109  ALA109      0.2616
    114  O          2.7940    5.9400   -0.9260 O.2   109  ALA109     -0.2715
    115  CB         2.7380    5.9680    1.8910 C.3   109  ALA109      0.0334
    116  N          0.8390    4.9140   -1.2000 N.am  110  GLY110     -0.1955
    117  CA         1.0110    4.7120   -2.6300 C.3   110  GLY110      0.1869
    118  C          1.1590    3.2290   -2.9470 C.2   110  GLY110      0.2309
    119  O          0.9880    2.3700   -2.0170 O.2   110  GLY110     -0.2863
    120  N          2.9360   -0.3580   -0.6770 N.3   113  THR113     -0.1218
    121  CA         3.4590    0.1450    0.5810 C.3   113  THR113      0.1862
    122  C          2.6070   -0.2850    1.7490 C.2   113  THR113      0.2287
    123  O          2.5000    0.4330    2.7200 O.2   113  THR113     -0.2866
    124  CB         3.6200    1.6940    0.5120 C.3   113  THR113      0.1770
    125  OG1        2.3840    2.3250    0.2920 O.3   113  THR113     -0.2211
    126  CG2        4.7120    2.1080   -0.5410 C.3   113  THR113      0.0375
    127  N         -1.0980   -0.3910    8.9670 N.3   117  GLN117     -0.1245
    128  CA        -2.2840    0.4810    9.0830 C.3   117  GLN117      0.1566
    129  C         -3.4040    0.0250    8.1930 C.2   117  GLN117      0.2260
    130  O         -3.1830   -0.5010    7.0810 O.2   117  GLN117     -0.2867
    131  CB        -1.8480    1.9230    8.7430 C.3   117  GLN117      0.0367
    132  CG        -0.9460    2.5260    9.7760 C.3   117  GLN117      0.0905
    133  CD        -0.7050    3.9770    9.4930 C.2   117  GLN117      0.2608
    134  OE1       -1.6470    4.7620    9.3660 O.2   117  GLN117     -0.2717
    135  NE2        0.5680    4.3160    9.3400 N.am  117  GLN117     -0.0878
    136  N         -8.0570    0.5690    7.5940 N.3   119  PHE119     -0.1241
    137  CA        -9.2050    1.3710    7.8800 C.3   119  PHE119      0.1605
    138  C        -10.4270    0.5400    7.7280 C.2   119  PHE119      0.2264
    139  O        -10.4890   -0.4740    7.0030 O.2   119  PHE119     -0.2867
    140  CB        -9.2690    2.6860    7.0050 C.3   119  PHE119      0.0534
    141  CG        -9.3080    2.4280    5.5220 C.ar  119  PHE119     -0.0203
    142  CD1       -8.1320    2.1100    4.8210 C.ar  119  PHE119     -0.0042
    143  CD2      -10.5280    2.5840    4.8090 C.ar  119  PHE119     -0.0042
    144  CE1       -8.1950    1.9580    3.4260 C.ar  119  PHE119     -0.0003
    145  CE2      -10.5980    2.3790    3.4410 C.ar  119  PHE119     -0.0003
    146  CZ        -9.4250    2.0870    2.7290 C.ar  119  PHE119     -0.0000
    147  N        -13.8690    5.7880   -4.6160 N.3   127  TRP127     -0.1227
    148  CA       -12.7440    6.4590   -5.0930 C.3   127  TRP127      0.1737
    149  C        -11.4440    5.7910   -4.5930 C.2   127  TRP127      0.2595
    150  O        -10.3470    6.0810   -5.0390 O.2   127  TRP127     -0.2718
    151  CB       -12.7170    7.9090   -4.6710 C.3   127  TRP127      0.0564
    152  CG       -12.8010    8.1560   -3.1600 C.ar  127  TRP127      0.0003
    153  CD1      -11.7450    8.4110   -2.2890 C.ar  127  TRP127      0.0946
    154  CD2      -13.9740    8.1440   -2.3520 C.ar  127  TRP127      0.0152
    155  NE1      -12.1930    8.5340   -1.0110 N.ar  127  TRP127     -0.2442
    156  CE2      -13.5480    8.4070   -0.9830 C.ar  127  TRP127      0.0810
    157  CE3      -15.3240    8.0330   -2.5890 C.ar  127  TRP127      0.0012
    158  CZ2      -14.4480    8.4820    0.0770 C.ar  127  TRP127      0.0191
    159  CZ3      -16.2520    8.1580   -1.5420 C.ar  127  TRP127      0.0001
    160  CH2      -15.8150    8.3980   -0.1920 C.ar  127  TRP127      0.0015
    161  N        -11.6020    4.8660   -3.5930 N.am  128  LEU128     -0.1980
    162  CA       -10.4530    4.0780   -3.0950 C.3   128  LEU128      0.1596
    163  C        -10.1960    2.7880   -3.8600 C.2   128  LEU128      0.2287
    164  O         -9.1720    2.1230   -3.6950 O.2   128  LEU128     -0.2864
    165  CB       -10.5480    3.8600   -1.5920 C.3   128  LEU128      0.0297
    166  CG       -10.7130    5.1460   -0.7470 C.3   128  LEU128      0.0022
    167  CD1      -10.7940    4.7420    0.7120 C.3   128  LEU128      0.0001
    168  CD2       -9.4840    5.9890   -0.9890 C.3   128  LEU128      0.0001
    169  N         -6.8340    1.2440   -5.3350 N.3   131  LYS131     -0.1231
    170  CA        -5.6860    1.9230   -4.6400 C.3   131  LYS131      0.1693
    171  C         -5.4020    1.2910   -3.2520 C.2   131  LYS131      0.2592
    172  O         -4.2970    1.4310   -2.7830 O.2   131  LYS131     -0.2718
    173  CB        -5.9120    3.4070   -4.5040 C.3   131  LYS131      0.0285
    174  CG        -5.9380    4.1330   -5.8810 C.3   131  LYS131      0.0035
    175  CD        -6.4760    5.5770   -5.7410 C.3   131  LYS131      0.0206
    176  CE        -7.0920    6.2340   -6.9780 C.3   131  LYS131      0.1093
    177  NZ        -8.4840    5.7300   -7.1820 N.3   131  LYS131     -0.1314
    178  N         -6.4050    0.6680   -2.6650 N.am  132  HIS132     -0.1976
    179  CA        -6.2620    0.0320   -1.3310 C.3   132  HIS132      0.1656
    180  C         -6.8170   -1.3590   -1.3890 C.2   132  HIS132      0.2291
    181  O         -7.8950   -1.5850   -1.9740 O.2   132  HIS132     -0.2864
    182  CB        -7.1060    0.8450   -0.2790 C.3   132  HIS132      0.0771
    183  CG        -6.5420    2.2420   -0.1750 C.ar  132  HIS132      0.0820
    184  ND1       -5.5570    2.5550    0.6640 N.ar  132  HIS132     -0.2267
    185  CD2       -6.7450    3.3580   -0.9650 C.ar  132  HIS132      0.1154
    186  CE1       -5.1150    3.8430    0.4240 C.ar  132  HIS132      0.1986
    187  NE2       -5.9060    4.3400   -0.5730 N.ar  132  HIS132     -0.2212
@<TRIPOS>BOND
     1   177   176    1
     2   176   175    1
     3   174   175    1
     4   174   173    1
     5   169   170    1
     6   148   151    1
     7   148   147    1
     8   148   149    1
     9   150   149    2
    10   151   152    1
    11   170   173    1
    12   170   171    1
    13   149   161   am
    14   163   164    2
    15   163   162    1
    16   161   162    1
    17   171   172    2
    18   171   178   am
    19   152   154   ar
    20   152   153   ar
    21   162   165    1
    22   118   117    1
    23   118   119    2
    24   178   179    1
    25   117   116    1
    26   157   154   ar
    27   157   159   ar
    28   154   156   ar
    29   153   155   ar
    30   181   180    2
    31   165   166    1
    32   159   160   ar
    33   180   179    1
    34   179   182    1
    35   116   113   am
    36   155   156   ar
    37   168   166    1
    38   156   158   ar
    39   185   187   ar
    40   185   183   ar
    41   114   113    2
    42   166   167    1
    43   120   121    1
    44   187   186   ar
    45   126   124    1
    46   110   108   am
    47   113   112    1
    48   182   183    1
    49   109   108    2
    50   160   158   ar
    51   183   184   ar
    52   108   107    1
    53   125   124    1
    54   186   184   ar
    55   124   121    1
    56   121   122    1
    57   112   111    1
    58   112   115    1
    59   107   104    1
    60   111   105   am
    61   122   123    2
    62   105   104    1
    63   105   106    2
    64    92    91    2
    65   104   103    1
    66    93    94    1
    67    93    90    1
    68    91    90    1
    69   146   144   ar
    70   146   145   ar
    71   103   100   am
    72    46    48   ar
    73    46    44   ar
    74    94    95    1
    75    48    47   ar
    76   144   142   ar
    77   145   143   ar
    78    90    89    1
    79   100   101    2
    80   100    99    1
    81    44    43   ar
    82    47    45   ar
    83    99    98    1
    84    99   102    1
    85    95    96    2
    86    43    45   ar
    87    43    42    1
    88   143   141   ar
    89   142   141   ar
    90    33    32    2
    91    97    96    1
    92   141   140    1
    93    42    39    1
    94    21    19    1
    95    41    40    2
    96    39    40    1
    97    39    38    1
    98    32    38   am
    99    32    31    1
   100    40    49   am
   101    54    53    1
   102    54    55    1
   103    34    31    1
   104    34    35    1
   105    20    19    1
   106    53    50    1
   107    19    18    2
   108   139   138    2
   109   140   137    1
   110    31    30    1
   111   130   129    2
   112    49    50    1
   113    35    37   ar
   114    35    36   ar
   115    55    56    1
   116   136   137    1
   117    29    27    1
   118   138   137    1
   119    50    51    1
   120    28    26    1
   121    18    17    1
   122    65    63   am
   123    64    63    2
   124   129   128    1
   125    63    62    1
   126    26    27    1
   127    26    23    1
   128   131   128    1
   129   131   132    1
   130    77    76    2
   131   127   128    1
   132    17    16    1
   133    25    24    2
   134    51    52    2
   135    62    61    1
   136   135   133   am
   137   134   133    2
   138   133   132    1
   139    81    80    2
   140    61    58    1
   141    24    23    1
   142    88    87    2
   143    23    22    1
   144    16    15    1
   145    76    78   am
   146    76    75    1
   147    79    80    1
   148    79    82    1
   149    79    78    1
   150    80    85   am
   151    84    82    1
   152    58    57    1
   153    58    59    1
   154    82    83    1
   155    87    86    1
   156    75    74    1
   157    85    86    1
   158    15    12    1
   159    10     9   ar
   160    10     8   ar
   161    14    13    2
   162    59    60    2
   163     9     7   ar
   164    13    12    1
   165    69    68    2
   166    74    68   am
   167    12    11    1
   168     8     6   ar
   169    68    67    1
   170     7     6   ar
   171    11     3   am
   172    72    71    2
   173     6     5    1
   174    71    73   am
   175    71    70    1
   176    67    70    1
   177    67    66    1
   178     3     4    2
   179     3     2    1
   180     5     2    1
   181     1     2    1
