@<TRIPOS>MOLECULE
tmp/4hy9A00.pdb
 195 185 0 0 0
SMALL
GASTEIGER

@<TRIPOS>ATOM
      1  N        -31.6220   33.3140  -20.7080 N.3    13  ILE13      -0.1231
      2  CA       -31.8430   33.8030  -19.3680 C.3    13  ILE13       0.1692
      3  C        -32.2490   32.6580  -18.4350 C.2    13  ILE13       0.2592
      4  O        -32.6840   31.6320  -18.8630 O.2    13  ILE13      -0.2718
      5  CB       -32.9360   34.9300  -19.3010 C.3    13  ILE13       0.0266
      6  CG1      -34.3410   34.4420  -19.6930 C.3    13  ILE13       0.0019
      7  CG2      -32.4410   36.1520  -20.0440 C.3    13  ILE13       0.0020
      8  CD1      -35.3280   35.3710  -18.9230 C.3    13  ILE13       0.0001
      9  N        -32.0960   32.8450  -17.1310 N.am   14  GLU14      -0.1966
     10  CA       -32.6040   31.8350  -16.1710 C.3    14  GLU14       0.1733
     11  C        -34.1200   31.9760  -15.9930 C.2    14  GLU14       0.2617
     12  O        -34.6510   33.0870  -15.8190 O.2    14  GLU14      -0.2715
     13  CB       -31.9080   32.0780  -14.8020 C.3    14  GLU14       0.0429
     14  CG       -32.3230   31.0410  -13.7710 C.3    14  GLU14       0.1163
     15  CD       -31.2160   30.8350  -12.7410 C.2    14  GLU14       0.3649
     16  OE1      -30.1220   31.4720  -12.7970 O.co2  14  GLU14      -0.2457
     17  OE2      -31.3900   29.9310  -11.8720 O.co2  14  GLU14      -0.2457
     18  N        -34.8250   30.8710  -16.0870 N.am   15  THR15      -0.1937
     19  CA       -36.2830   30.9180  -15.8190 C.3    15  THR15       0.2028
     20  C        -36.6030   29.9990  -14.6470 C.2    15  THR15       0.2642
     21  O        -35.7450   29.3280  -14.1390 O.2    15  THR15      -0.2714
     22  CB       -37.0420   30.5590  -17.0570 C.3    15  THR15       0.1808
     23  OG1      -36.5690   29.2640  -17.5550 O.3    15  THR15      -0.2208
     24  CG2      -36.7770   31.6030  -18.1610 C.3    15  THR15       0.0379
     25  N        -37.8710   30.0780  -14.1930 N.am   16  MET16      -0.1962
     26  CA       -38.3930   29.3850  -12.9330 C.3    16  MET16       0.1736
     27  C        -37.8670   27.9890  -12.8800 C.2    16  MET16       0.2617
     28  O        -37.9590   27.2530  -13.9190 O.2    16  MET16      -0.2715
     29  CB       -39.9400   29.3490  -13.0600 C.3    16  MET16       0.0427
     30  CG       -40.5680   28.7940  -11.7720 C.3    16  MET16       0.0599
     31  SD       -42.3120   28.5590  -12.0660 S.3    16  MET16      -0.1393
     32  CE       -42.7150   27.9070  -10.4490 C.3    16  MET16       0.0692
     33  N        -37.3430   27.6480  -11.7210 N.am   17  GLY17      -0.1955
     34  CA       -36.8950   26.2860  -11.5610 C.3    17  GLY17       0.1869
     35  C        -35.4620   26.0760  -11.8900 C.2    17  GLY17       0.2309
     36  O        -34.9890   24.9340  -11.7050 O.2    17  GLY17      -0.2863
     37  N        -33.2860   29.2140  -20.3890 N.3    21  THR21      -0.1203
     38  CA       -34.1130   29.4000  -21.6080 C.3    21  THR21       0.1994
     39  C        -33.3890   30.2540  -22.6610 C.2    21  THR21       0.2618
     40  O        -32.9550   31.3540  -22.4070 O.2    21  THR21      -0.2717
     41  CB       -35.4500   30.0700  -21.2250 C.3    21  THR21       0.1784
     42  OG1      -36.1660   29.1750  -20.3380 O.3    21  THR21      -0.2211
     43  CG2      -36.3110   30.2620  -22.4780 C.3    21  THR21       0.0376
     44  N        -33.1860   29.5920  -23.7820 N.am   22  THR22      -0.1952
     45  CA       -32.4660   30.2180  -24.9500 C.3    22  THR22       0.1897
     46  C        -33.2430   31.3140  -25.7170 C.2    22  THR22       0.2313
     47  O        -34.4150   31.1000  -26.0910 O.2    22  THR22      -0.2863
     48  CB       -32.0040   29.1310  -25.9580 C.3    22  THR22       0.1794
     49  OG1      -31.0730   28.2390  -25.3020 O.3    22  THR22      -0.2208
     50  CG2      -31.3170   29.8390  -27.1160 C.3    22  THR22       0.0378
     51  N        -38.5600   37.8460  -26.6780 N.3    36  GLN36      -0.1231
     52  CA       -39.5480   36.8770  -26.1720 C.3    36  GLN36       0.1698
     53  C        -40.2550   37.5010  -24.9510 C.2    36  GLN36       0.2592
     54  O        -39.5920   38.1090  -24.0830 O.2    36  GLN36      -0.2718
     55  CB       -38.8310   35.6190  -25.6790 C.3    36  GLN36       0.0381
     56  CG       -39.7140   34.5480  -25.0830 C.3    36  GLN36       0.0905
     57  CD       -40.9070   34.1120  -25.8880 C.2    36  GLN36       0.2608
     58  OE1      -40.7310   33.6490  -27.0650 O.2    36  GLN36      -0.2717
     59  NE2      -42.1520   34.2130  -25.3070 N.am   36  GLN36      -0.0878
     60  N        -41.6050   37.3240  -24.8490 N.am   37  VAL37      -0.1966
     61  CA       -42.3170   37.8140  -23.6610 C.3    37  VAL37       0.1727
     62  C        -42.2990   36.7380  -22.5400 C.2    37  VAL37       0.2616
     63  O        -42.4850   35.5380  -22.7670 O.2    37  VAL37      -0.2715
     64  CB       -43.7410   38.1400  -24.1090 C.3    37  VAL37       0.0290
     65  CG1      -44.4960   38.5130  -22.8010 C.3    37  VAL37       0.0023
     66  CG2      -43.7680   39.2760  -25.0640 C.3    37  VAL37       0.0023
     67  N        -42.0010   37.1920  -21.3770 N.am   38  PHE38      -0.1960
     68  CA       -42.0030   36.3350  -20.2200 C.3    38  PHE38       0.1771
     69  C        -43.0120   36.9040  -19.2150 C.2    38  PHE38       0.2620
     70  O        -43.4520   38.0340  -19.3160 O.2    38  PHE38      -0.2715
     71  CB       -40.5990   36.2910  -19.5030 C.3    38  PHE38       0.0574
     72  CG       -39.5230   35.6230  -20.3570 C.ar   38  PHE38      -0.0200
     73  CD1      -38.9150   36.2650  -21.4580 C.ar   38  PHE38      -0.0042
     74  CD2      -39.2090   34.2740  -20.1490 C.ar   38  PHE38      -0.0042
     75  CE1      -37.9900   35.5920  -22.2680 C.ar   38  PHE38      -0.0003
     76  CE2      -38.2380   33.5880  -20.8590 C.ar   38  PHE38      -0.0003
     77  CZ       -37.6630   34.2600  -22.0080 C.ar   38  PHE38      -0.0000
     78  N        -43.3900   36.0790  -18.2930 N.am   39  SER39      -0.1936
     79  CA       -44.2720   36.5350  -17.2140 C.3    39  SER39       0.2055
     80  C        -43.7900   36.0560  -15.8640 C.2    39  SER39       0.2644
     81  O        -42.7140   35.4840  -15.6720 O.2    39  SER39      -0.2714
     82  CB       -45.7150   36.0650  -17.4070 C.3    39  SER39       0.2130
     83  OG       -46.6200   36.7800  -16.5930 O.3    39  SER39      -0.2179
     84  N        -44.6620   36.2930  -14.9430 N.am   40  THR40      -0.1936
     85  CA       -44.3790   35.9330  -13.5130 C.3    40  THR40       0.2028
     86  C        -45.1220   34.6040  -13.1000 C.2    40  THR40       0.2642
     87  O        -46.2820   34.3110  -13.5350 O.2    40  THR40      -0.2714
     88  CB       -44.7920   37.0690  -12.5070 C.3    40  THR40       0.1808
     89  OG1      -46.1650   37.3740  -12.8040 O.3    40  THR40      -0.2208
     90  CG2      -43.8430   38.3200  -12.5950 C.3    40  THR40       0.0379
     91  N        -44.4560   33.8140  -12.2130 N.am   41  ALA41      -0.1963
     92  CA       -45.0700   32.5350  -11.7260 C.3    41  ALA41       0.1728
     93  C        -46.0020   32.5380  -10.6060 C.2    41  ALA41       0.2616
     94  O        -46.7510   31.5630  -10.3880 O.2    41  ALA41      -0.2715
     95  CB       -44.0060   31.5050  -11.4190 C.3    41  ALA41       0.0334
     96  N        -45.9450   33.6040   -9.7940 N.am   42  GLU42      -0.1977
     97  CA       -46.7910   33.6850   -8.6660 C.3    42  GLU42       0.1602
     98  C        -47.4650   35.0420   -8.6590 C.2    42  GLU42       0.2287
     99  O        -46.9920   35.9930   -9.2590 O.2    42  GLU42      -0.2864
    100  CB       -46.0540   33.4800   -7.3070 C.3    42  GLU42       0.0415
    101  CG       -45.0320   34.6000   -7.0150 C.3    42  GLU42       0.1163
    102  CD       -44.3320   34.3430   -5.6600 C.2    42  GLU42       0.3649
    103  OE1      -44.0860   33.1720   -5.3730 O.co2  42  GLU42      -0.2457
    104  OE2      -44.0260   35.2760   -4.9220 O.co2  42  GLU42      -0.2457
    105  N        -46.0530   39.5460   -7.8680 N.3    45  GLN45      -0.1245
    106  CA       -44.6130   39.7490   -7.9920 C.3    45  GLN45       0.1566
    107  C        -44.3170   41.0820   -8.6030 C.2    45  GLN45       0.2260
    108  O        -44.7140   41.2710   -9.7860 O.2    45  GLN45      -0.2867
    109  CB       -44.0000   38.5970   -8.8370 C.3    45  GLN45       0.0367
    110  CG       -42.4930   38.6930   -8.9020 C.3    45  GLN45       0.0905
    111  CD       -41.8000   37.3970   -9.2460 C.2    45  GLN45       0.2608
    112  OE1      -42.4290   36.3530   -9.4840 O.2    45  GLN45      -0.2717
    113  NE2      -40.4430   37.4840   -9.3700 N.am   45  GLN45      -0.0878
    114  N        -41.1600   42.6150   -8.7460 N.3    47  ALA47      -0.1231
    115  CA       -39.7190   42.7670   -9.0740 C.3    47  ALA47       0.1694
    116  C        -39.2700   41.4530   -9.6380 C.2    47  ALA47       0.2592
    117  O        -39.6410   40.3960   -9.1670 O.2    47  ALA47      -0.2718
    118  CB       -38.9210   43.1650   -7.8240 C.3    47  ALA47       0.0304
    119  N        -38.4860   41.5490  -10.6890 N.am   48  VAL48      -0.1966
    120  CA       -37.9630   40.3580  -11.3370 C.3    48  VAL48       0.1727
    121  C        -36.5120   40.5730  -11.6160 C.2    48  VAL48       0.2617
    122  O        -35.9900   41.7200  -11.6170 O.2    48  VAL48      -0.2715
    123  CB       -38.6870   40.0680  -12.6570 C.3    48  VAL48       0.0290
    124  CG1      -40.1450   39.7360  -12.3300 C.3    48  VAL48       0.0023
    125  CG2      -38.5680   41.2100  -13.6960 C.3    48  VAL48       0.0023
    126  N        -35.8120   39.4610  -11.8380 N.am   49  THR49      -0.1937
    127  CA       -34.3570   39.5440  -12.1460 C.3    49  THR49       0.2028
    128  C        -34.0990   38.8320  -13.4790 C.2    49  THR49       0.2642
    129  O        -34.5890   37.7280  -13.6700 O.2    49  THR49      -0.2714
    130  CB       -33.5590   38.8720  -10.9970 C.3    49  THR49       0.1808
    131  OG1      -33.8060   39.6560   -9.8220 O.3    49  THR49      -0.2208
    132  CG2      -32.0190   38.9220  -11.1890 C.3    49  THR49       0.0379
    133  N        -33.3390   39.4610  -14.3700 N.am   50  ILE50      -0.1977
    134  CA       -32.9390   38.8870  -15.7080 C.3    50  ILE50       0.1596
    135  C        -31.4440   38.4840  -15.5590 C.2    50  ILE50       0.2287
    136  O        -30.5670   39.3850  -15.3750 O.2    50  ILE50      -0.2864
    137  CB       -33.0330   39.9810  -16.7850 C.3    50  ILE50       0.0276
    138  CG1      -34.5170   40.4260  -16.9960 C.3    50  ILE50       0.0022
    139  CG2      -32.4460   39.4410  -18.0790 C.3    50  ILE50       0.0022
    140  CD1      -34.9950   41.3920  -15.9360 C.3    50  ILE50       0.0001
    141  N        -50.3790   35.7750  -11.3040 N.3    79  ARG79      -0.1231
    142  CA       -49.4600   34.9480  -12.0120 C.3    79  ARG79       0.1694
    143  C        -49.8110   34.9130  -13.5280 C.2    79  ARG79       0.2592
    144  O        -51.0080   34.7800  -13.8180 O.2    79  ARG79      -0.2718
    145  CB       -49.6590   33.5410  -11.4070 C.3    79  ARG79       0.0321
    146  CG       -49.2870   32.4630  -12.3920 C.3    79  ARG79       0.0489
    147  CD       -49.5280   31.1000  -11.7120 C.3    79  ARG79       0.2205
    148  NE       -49.5140   30.0090  -12.7140 N.pl3  79  ARG79      -0.0865
    149  CZ       -48.5250   29.1180  -12.7970 C.cat  79  ARG79       0.5346
    150  NH1      -47.4690   29.1960  -11.9810 N.pl3  79  ARG79       0.1354
    151  NH2      -48.5780   28.0910  -13.6850 N.pl3  79  ARG79       0.1354
    152  N        -48.8350   35.1970  -14.3560 N.am   80  GLY80      -0.1957
    153  CA       -49.0110   35.0350  -15.8080 C.3    80  GLY80       0.1869
    154  C        -49.5770   36.2780  -16.4840 C.2    80  GLY80       0.2309
    155  O        -49.6010   36.3790  -17.7360 O.2    80  GLY80      -0.2863
    156  N        -43.5310   40.8190  -19.8860 N.3    84  ILE84      -0.1245
    157  CA       -42.2740   41.4860  -19.8030 C.3    84  ILE84       0.1561
    158  C        -41.5060   41.0370  -21.0630 C.2    84  ILE84       0.2260
    159  O        -41.1520   39.8660  -21.1770 O.2    84  ILE84      -0.2867
    160  CB       -41.5200   41.0950  -18.5530 C.3    84  ILE84       0.0252
    161  CG1      -42.3290   41.5900  -17.3780 C.3    84  ILE84       0.0019
    162  CG2      -40.1380   41.7600  -18.5890 C.3    84  ILE84       0.0019
    163  CD1      -42.2870   40.6800  -16.1870 C.3    84  ILE84       0.0001
    164  N        -38.3560   40.5320  -23.3340 N.3    86  VAL86      -0.1245
    165  CA       -36.8700   40.4610  -23.1730 C.3    86  VAL86       0.1561
    166  C        -36.2990   40.4220  -24.5660 C.2    86  VAL86       0.2260
    167  O        -36.7340   39.6040  -25.2780 O.2    86  VAL86      -0.2867
    168  CB       -36.5530   39.2220  -22.3340 C.3    86  VAL86       0.0252
    169  CG1      -35.0030   39.0360  -22.2270 C.3    86  VAL86       0.0019
    170  CG2      -37.1260   39.3920  -20.9270 C.3    86  VAL86       0.0019
    171  N        -40.3570   21.1540  -15.4140 N.3   146  GLN146     -0.1245
    172  CA       -41.7210   21.4030  -15.8400 C.3   146  GLN146      0.1566
    173  C        -42.7740   20.7920  -14.9010 C.2   146  GLN146      0.2260
    174  O        -43.8140   21.4400  -14.5890 O.2   146  GLN146     -0.2867
    175  CB       -41.8940   20.9450  -17.2750 C.3   146  GLN146      0.0367
    176  CG       -41.0890   21.8740  -18.1470 C.3   146  GLN146      0.0905
    177  CD       -40.8550   21.3420  -19.5490 C.2   146  GLN146      0.2608
    178  OE1      -41.0870   20.1570  -19.8220 O.2   146  GLN146     -0.2717
    179  NE2      -40.3900   22.2300  -20.4750 N.am  146  GLN146     -0.0878
    180  N        -42.8590   22.8030  -11.5860 N.3   149  ASN149     -0.1240
    181  CA       -43.4840   24.1140  -11.6520 C.3   149  ASN149      0.1653
    182  C        -44.9820   23.9060  -11.7420 C.2   149  ASN149      0.2266
    183  O        -45.7290   24.7200  -11.2260 O.2   149  ASN149     -0.2867
    184  CB       -42.9760   24.9540  -12.8020 C.3   149  ASN149      0.1155
    185  CG       -41.4640   25.2600  -12.7330 C.2   149  ASN149      0.2627
    186  OD1      -40.8310   25.1050  -11.6910 O.2   149  ASN149     -0.2716
    187  ND2      -40.8800   25.7180  -13.8760 N.am  149  ASN149     -0.0877
    188  N        -46.1690   22.9590   -8.2260 N.3   152  ASP152     -0.1239
    189  CA       -46.1410   24.1380   -7.3710 C.3   152  ASP152      0.1674
    190  C        -47.4310   24.9220   -7.5610 C.2   152  ASP152      0.2266
    191  O        -48.0540   25.3670   -6.5840 O.2   152  ASP152     -0.2867
    192  CB       -44.9610   25.0270   -7.7290 C.3   152  ASP152      0.1410
    193  CG       -43.6310   24.4520   -7.2080 C.2   152  ASP152      0.3668
    194  OD1      -43.6520   23.5010   -6.3840 O.co2 152  ASP152     -0.2456
    195  OD2      -42.5360   24.9360   -7.5960 O.co2 152  ASP152     -0.2456
@<TRIPOS>BOND
     1    50    48    1
     2    58    57    2
     3    51    52    1
     4    52    55    1
     5    52    53    1
     6    47    46    2
     7    48    49    1
     8    48    45    1
     9    57    59   am
    10    57    56    1
    11    46    45    1
    12    55    56    1
    13   167   166    2
    14    66    64    1
    15    53    60   am
    16    53    54    2
    17    45    44    1
    18    60    61    1
    19   166   165    1
    20    64    61    1
    21    64    65    1
    22    44    39   am
    23    61    62    1
    24   164   165    1
    25   165   168    1
    26    63    62    2
    27    39    40    2
    28    39    38    1
    29    62    67   am
    30    43    41    1
    31   168   169    1
    32   168   170    1
    33    75    77   ar
    34    75    73   ar
    35    77    76   ar
    36    38    41    1
    37    38    37    1
    38    73    72   ar
    39    67    68    1
    40    41    42    1
    41   159   158    2
    42   158   157    1
    43    76    74   ar
    44     1     2    1
    45   179   177   am
    46    72    74   ar
    47    72    71    1
    48    68    71    1
    49    68    69    1
    50     7     5    1
    51   156   157    1
    52   178   177    2
    53   157   160    1
    54     6     5    1
    55     6     8    1
    56   177   176    1
    57     2     5    1
    58     2     3    1
    59    70    69    2
    60    69    78   am
    61     4     3    2
    62   162   160    1
    63   160   161    1
    64     3     9   am
    65    78    79    1
    66    24    22    1
    67   176   175    1
    68   139   137    1
    69   155   154    2
    70    23    22    1
    71    82    79    1
    72    82    83    1
    73   161   163    1
    74   175   172    1
    75    79    80    1
    76     9    10    1
    77    22    19    1
    78   138   137    1
    79   138   140    1
    80   137   134    1
    81   154   153    1
    82    10    11    1
    83    10    13    1
    84    18    11   am
    85    18    19    1
    86    11    12    2
    87    80    81    2
    88    80    84   am
    89   172   171    1
    90   172   173    1
    91    19    20    1
    92   153   152    1
    93   134   135    1
    94   134   133    1
    95   135   136    2
    96    84    85    1
    97   173   174    2
    98    13    14    1
    99    20    25   am
   100    20    21    2
   101   133   128   am
   102   152   143   am
   103    25    26    1
   104    28    27    2
   105   187   185   am
   106   144   143    2
   107    14    15    1
   108   125   123    1
   109   151   149    1
   110   129   128    2
   111    87    86    2
   112   143   142    1
   113    85    86    1
   114    85    88    1
   115   128   127    1
   116    86    91   am
   117    29    26    1
   118    29    30    1
   119    26    27    1
   120    27    33   am
   121    89    88    1
   122   184   185    1
   123   184   181    1
   124   149   148    2
   125   149   150    1
   126    16    15   ar
   127    15    17   ar
   128   185   186    2
   129   148   147    1
   130   123   124    1
   131   123   120    1
   132    90    88    1
   133   146   147    1
   134   146   145    1
   135    91    92    1
   136   127   126    1
   137   127   130    1
   138    31    30    1
   139    31    32    1
   140   142   145    1
   141   142   141    1
   142    35    36    2
   143    35    34    1
   144   126   121   am
   145   182   181    1
   146   182   183    2
   147    92    95    1
   148    92    93    1
   149    33    34    1
   150   181   180    1
   151   122   121    2
   152   121   120    1
   153   120   119    1
   154   132   130    1
   155   130   131    1
   156   119   116   am
   157    93    94    2
   158    93    96   am
   159    96    97    1
   160   108   107    2
   161   116   117    2
   162   116   115    1
   163   112   111    2
   164   113   111   am
   165    99    98    2
   166   111   110    1
   167   115   114    1
   168   115   118    1
   169   110   109    1
   170   109   106    1
   171    97    98    1
   172    97   100    1
   173   107   106    1
   174   188   189    1
   175   106   105    1
   176   192   189    1
   177   192   193    1
   178   195   193   ar
   179   190   189    1
   180   190   191    2
   181   100   101    1
   182   193   194   ar
   183   101   102    1
   184   102   103   ar
   185   102   104   ar
