@<TRIPOS>MOLECULE
tmp/4hybB00.pdb
 216 206 0 0 0
SMALL
GASTEIGER

@<TRIPOS>ATOM
      1  N        -14.8390   17.7160   -5.4270 N.3    13  ILE13      -0.1231
      2  CA       -14.7350   17.4050   -6.8910 C.3    13  ILE13       0.1692
      3  C        -15.7120   16.2600   -7.2000 C.2    13  ILE13       0.2592
      4  O        -16.2720   15.6090   -6.2950 O.2    13  ILE13      -0.2718
      5  CB       -13.2930   16.9560   -7.2910 C.3    13  ILE13       0.0266
      6  CG1      -12.8460   15.6930   -6.5430 C.3    13  ILE13       0.0019
      7  CG2      -12.3020   18.0910   -6.9980 C.3    13  ILE13       0.0020
      8  CD1      -11.6520   14.9320   -7.2390 C.3    13  ILE13       0.0001
      9  N        -15.9120   16.0460   -8.5020 N.am   14  GLU14      -0.1966
     10  CA       -16.8260   14.9800   -8.9560 C.3    14  GLU14       0.1733
     11  C        -15.9800   13.7120   -9.0160 C.2    14  GLU14       0.2617
     12  O        -14.8220   13.7270   -9.5130 O.2    14  GLU14      -0.2715
     13  CB       -17.3790   15.3690  -10.3470 C.3    14  GLU14       0.0429
     14  CG       -18.2820   14.2540  -10.8950 C.3    14  GLU14       0.1163
     15  CD       -19.0550   14.6070  -12.1290 C.2    14  GLU14       0.3649
     16  OE1      -18.8570   15.6900  -12.7000 O.co2  14  GLU14      -0.2457
     17  OE2      -19.9470   13.7780  -12.4980 O.co2  14  GLU14      -0.2457
     18  N        -16.5530   12.6040   -8.5320 N.am   15  THR15      -0.1937
     19  CA       -15.9160   11.3000   -8.5780 C.3    15  THR15       0.2028
     20  C        -16.9150   10.3370   -9.2300 C.2    15  THR15       0.2642
     21  O        -18.0650   10.7310   -9.5830 O.2    15  THR15      -0.2714
     22  CB       -15.4820   10.8210   -7.1550 C.3    15  THR15       0.1808
     23  OG1      -16.6040   10.7940   -6.2260 O.3    15  THR15      -0.2208
     24  CG2      -14.4390   11.8030   -6.6040 C.3    15  THR15       0.0379
     25  N        -16.3880    9.1630   -9.5430 N.am   16  MET16      -0.1962
     26  CA       -17.1120    8.1620  -10.3520 C.3    16  MET16       0.1736
     27  C        -18.5290    7.9120   -9.9170 C.2    16  MET16       0.2617
     28  O        -18.8240    7.7240   -8.7280 O.2    16  MET16      -0.2715
     29  CB       -16.3200    6.8580  -10.3630 C.3    16  MET16       0.0427
     30  CG       -16.7330    5.9390  -11.5270 C.3    16  MET16       0.0599
     31  SD       -16.0360    4.2780  -11.2590 S.3    16  MET16      -0.1393
     32  CE       -16.8750    3.4100  -12.6110 C.3    16  MET16       0.0692
     33  N        -19.4030    7.9980  -10.9060 N.am   17  GLY17      -0.1955
     34  CA       -20.8490    7.7940  -10.6450 C.3    17  GLY17       0.1869
     35  C        -21.5980    9.1120  -10.4230 C.2    17  GLY17       0.2309
     36  O        -22.8060    9.0590  -10.0420 O.2    17  GLY17      -0.2863
     37  N        -20.7460   11.6990   -8.3190 N.3    19  VAL19      -0.1245
     38  CA       -20.8170   11.8980   -6.8690 C.3    19  VAL19       0.1561
     39  C        -20.0180   13.1750   -6.5440 C.2    19  VAL19       0.2260
     40  O        -18.9620   13.3550   -7.1480 O.2    19  VAL19      -0.2867
     41  CB       -20.2130   10.6730   -6.1430 C.3    19  VAL19       0.0252
     42  CG1      -19.9450   11.0340   -4.6680 C.3    19  VAL19       0.0019
     43  CG2      -21.1190    9.4510   -6.2430 C.3    19  VAL19       0.0019
     44  N        -17.4720   14.5820   -3.9320 N.3    21  THR21      -0.1218
     45  CA       -16.6420   14.1750   -2.8320 C.3    21  THR21       0.1862
     46  C        -16.0050   15.4700   -2.3090 C.2    21  THR21       0.2287
     47  O        -15.2910   16.1560   -3.0350 O.2    21  THR21      -0.2866
     48  CB       -15.5980   13.1570   -3.3660 C.3    21  THR21       0.1770
     49  OG1      -16.3620   11.9980   -3.8430 O.3    21  THR21      -0.2211
     50  CG2      -14.6080   12.7400   -2.1480 C.3    21  THR21       0.0375
     51  N         -6.3070   15.3160   -0.5730 N.3    36  GLN36      -0.1231
     52  CA        -6.8340   13.9480   -0.5150 C.3    36  GLN36       0.1698
     53  C         -6.3310   13.2650   -1.7670 C.2    36  GLN36       0.2592
     54  O         -6.2700   13.8970   -2.8340 O.2    36  GLN36      -0.2718
     55  CB        -8.3590   13.9100   -0.4090 C.3    36  GLN36       0.0381
     56  CG        -8.8820   12.4810   -0.2610 C.3    36  GLN36       0.0905
     57  CD       -10.3490   12.4610    0.1350 C.2    36  GLN36       0.2608
     58  OE1      -11.1720   11.8130   -0.5150 O.2    36  GLN36      -0.2717
     59  NE2      -10.6780   13.1860    1.1870 N.am   36  GLN36      -0.0878
     60  N         -5.9920   11.9860   -1.6510 N.am   37  VAL37      -0.1966
     61  CA        -5.5270   11.2020   -2.8350 C.3    37  VAL37       0.1727
     62  C         -6.6680   10.4850   -3.5240 C.2    37  VAL37       0.2616
     63  O         -7.5210    9.8450   -2.8290 O.2    37  VAL37      -0.2715
     64  CB        -4.3910   10.2050   -2.4120 C.3    37  VAL37       0.0290
     65  CG1       -3.9460    9.3850   -3.6130 C.3    37  VAL37       0.0023
     66  CG2       -3.2260   11.0410   -1.9130 C.3    37  VAL37       0.0023
     67  N         -6.7190   10.6000   -4.8490 N.am   38  PHE38      -0.1960
     68  CA        -7.7870    9.9410   -5.6520 C.3    38  PHE38       0.1771
     69  C         -7.0930    9.0080   -6.6620 C.2    38  PHE38       0.2620
     70  O         -5.8410    8.9890   -6.7670 O.2    38  PHE38      -0.2715
     71  CB        -8.6820   10.9690   -6.3670 C.3    38  PHE38       0.0574
     72  CG        -9.4610   11.8260   -5.4390 C.ar   38  PHE38      -0.0200
     73  CD1       -8.8890   12.9490   -4.8600 C.ar   38  PHE38      -0.0042
     74  CD2      -10.7900   11.5260   -5.1730 C.ar   38  PHE38      -0.0042
     75  CE1       -9.6120   13.7670   -4.0170 C.ar   38  PHE38      -0.0003
     76  CE2      -11.5310   12.3480   -4.2870 C.ar   38  PHE38      -0.0003
     77  CZ       -10.9340   13.4640   -3.7300 C.ar   38  PHE38      -0.0000
     78  N         -7.8830    8.2210   -7.3770 N.am   39  SER39      -0.1936
     79  CA        -7.3040    7.3560   -8.4310 C.3    39  SER39       0.2055
     80  C         -8.1810    7.3890   -9.6670 C.2    39  SER39       0.2644
     81  O         -9.0910    8.2460   -9.8180 O.2    39  SER39      -0.2714
     82  CB        -6.9960    5.9490   -7.9100 C.3    39  SER39       0.2130
     83  OG        -6.2060    5.1960   -8.8270 O.3    39  SER39      -0.2179
     84  N         -7.8060    6.5600  -10.6060 N.am   40  THR40      -0.1936
     85  CA        -8.4940    6.4450  -11.8850 C.3    40  THR40       0.2028
     86  C         -9.6790    5.4450  -11.7870 C.2    40  THR40       0.2642
     87  O         -9.6580    4.3970  -11.0900 O.2    40  THR40      -0.2714
     88  CB        -7.4850    5.9140  -12.9160 C.3    40  THR40       0.1808
     89  OG1       -6.8170    4.7540  -12.3440 O.3    40  THR40      -0.2208
     90  CG2       -6.4260    7.0550  -13.3320 C.3    40  THR40       0.0379
     91  N        -10.7410    5.7650  -12.5360 N.am   41  ALA41      -0.1963
     92  CA       -11.9510    4.9390  -12.5770 C.3    41  ALA41       0.1728
     93  C        -11.8850    3.7100  -13.4730 C.2    41  ALA41       0.2616
     94  O        -12.6380    2.7870  -13.2250 O.2    41  ALA41      -0.2715
     95  CB       -13.1040    5.8280  -12.9830 C.3    41  ALA41       0.0334
     96  N        -10.9770    3.6710  -14.4750 N.am   42  GLU42      -0.1977
     97  CA       -10.8610    2.5390  -15.3840 C.3    42  GLU42       0.1602
     98  C         -9.4260    2.1970  -15.6470 C.2    42  GLU42       0.2287
     99  O         -8.5300    3.0810  -15.6740 O.2    42  GLU42      -0.2864
    100  CB       -11.4960    2.7800  -16.7880 C.3    42  GLU42       0.0415
    101  CG       -12.9920    3.1540  -16.8280 C.3    42  GLU42       0.1163
    102  CD       -13.9450    2.1150  -16.1610 C.2    42  GLU42       0.3649
    103  OE1      -13.6220    0.9230  -15.9750 O.co2  42  GLU42      -0.2457
    104  OE2      -15.0660    2.5020  -15.7600 O.co2  42  GLU42      -0.2457
    105  N         -6.4690    4.2200  -17.8060 N.3    45  GLN45      -0.1245
    106  CA        -6.9330    5.5900  -17.9670 C.3    45  GLN45       0.1566
    107  C         -5.7090    6.5300  -18.0410 C.2    45  GLN45       0.2260
    108  O         -4.8320    6.4800  -17.1760 O.2    45  GLN45      -0.2867
    109  CB        -7.7540    5.9720  -16.7340 C.3    45  GLN45       0.0367
    110  CG        -8.6380    7.1740  -16.9680 C.3    45  GLN45       0.0905
    111  CD        -9.6350    7.3760  -15.8320 C.2    45  GLN45       0.2608
    112  OE1      -10.3860    6.4660  -15.4860 O.2    45  GLN45      -0.2717
    113  NE2       -9.6520    8.5680  -15.2750 N.am   45  GLN45      -0.0878
    114  N         -5.9510   10.0250  -18.3800 N.3    47  ALA47      -0.1231
    115  CA        -6.2190   11.3950  -17.9310 C.3    47  ALA47       0.1694
    116  C         -7.4100   11.3700  -16.9960 C.2    47  ALA47       0.2592
    117  O         -8.2470   10.4790  -17.0620 O.2    47  ALA47      -0.2718
    118  CB        -6.5500   12.3060  -19.0840 C.3    47  ALA47       0.0304
    119  N         -7.4840   12.3910  -16.1710 N.am   48  VAL48      -0.1966
    120  CA        -8.6710   12.6800  -15.2940 C.3    48  VAL48       0.1727
    121  C         -9.1850   14.0870  -15.5780 C.2    48  VAL48       0.2617
    122  O         -8.4280   14.9550  -16.0270 O.2    48  VAL48      -0.2715
    123  CB        -8.3540   12.5200  -13.7890 C.3    48  VAL48       0.0290
    124  CG1       -8.1190   11.0670  -13.4390 C.3    48  VAL48       0.0023
    125  CG2       -7.2020   13.4360  -13.3150 C.3    48  VAL48       0.0023
    126  N        -10.4670   14.3620  -15.3590 N.am   49  THR49      -0.1937
    127  CA       -10.9470   15.7430  -15.3250 C.3    49  THR49       0.2028
    128  C        -11.2150   16.0220  -13.8510 C.2    49  THR49       0.2642
    129  O        -11.9740   15.2730  -13.1930 O.2    49  THR49      -0.2714
    130  CB       -12.2510   15.9280  -16.1290 C.3    49  THR49       0.1808
    131  OG1      -11.9090   15.8340  -17.5190 O.3    49  THR49      -0.2208
    132  CG2      -12.8880   17.3040  -15.9520 C.3    49  THR49       0.0379
    133  N        -10.6750   17.1340  -13.3940 N.am   50  ILE50      -0.1977
    134  CA       -10.9280   17.5990  -12.0410 C.3    50  ILE50       0.1596
    135  C        -12.0790   18.6190  -12.1970 C.2    50  ILE50       0.2287
    136  O        -11.8730   19.7200  -12.7410 O.2    50  ILE50      -0.2864
    137  CB        -9.7040   18.2490  -11.4340 C.3    50  ILE50       0.0276
    138  CG1       -8.4960   17.2840  -11.3120 C.3    50  ILE50       0.0022
    139  CG2       -9.9530   18.7780  -10.0190 C.3    50  ILE50       0.0022
    140  CD1       -8.8090   15.9310  -10.6440 C.3    50  ILE50       0.0001
    141  N         -8.0300   19.4060  -16.8340 N.3    70  ASN70      -0.1240
    142  CA        -7.6090   18.0210  -16.9870 C.3    70  ASN70       0.1653
    143  C         -6.1900   17.8010  -16.5440 C.2    70  ASN70       0.2266
    144  O         -5.3740   18.7250  -16.6320 O.2    70  ASN70      -0.2867
    145  CB        -7.6880   17.5800  -18.4560 C.3    70  ASN70       0.1155
    146  CG        -9.0760   17.7510  -19.0600 C.2    70  ASN70       0.2627
    147  OD1      -10.0630   17.6020  -18.3940 O.2    70  ASN70      -0.2716
    148  ND2       -9.1220   18.0170  -20.3460 N.am   70  ASN70      -0.0877
    149  N         -7.0150    0.1890  -12.8430 N.3    79  ARG79      -0.1231
    150  CA        -7.7650    1.1910  -12.1080 C.3    79  ARG79       0.1694
    151  C         -7.5180    1.1410  -10.6270 C.2    79  ARG79       0.2592
    152  O         -7.3140    0.0580   -9.9930 O.2    79  ARG79      -0.2718
    153  CB        -9.3040    1.0920  -12.4370 C.3    79  ARG79       0.0321
    154  CG        -9.9830   -0.1540  -11.8260 C.3    79  ARG79       0.0489
    155  CD       -11.2650   -0.5570  -12.5330 C.3    79  ARG79       0.2205
    156  NE       -11.8290   -1.8800  -12.1080 N.pl3  79  ARG79      -0.0865
    157  CZ       -12.3990   -2.8060  -12.8800 C.cat  79  ARG79       0.5346
    158  NH1      -12.6380   -2.6390  -14.1970 N.pl3  79  ARG79       0.1354
    159  NH2      -12.8010   -3.9410  -12.3180 N.pl3  79  ARG79       0.1354
    160  N         -7.4820    2.3300  -10.0440 N.am   80  GLY80      -0.1957
    161  CA        -7.3530    2.4020   -8.5890 C.3    80  GLY80       0.1869
    162  C         -5.9260    2.4360   -8.0930 C.2    80  GLY80       0.2309
    163  O         -5.7180    2.6990   -6.9030 O.2    80  GLY80      -0.2863
    164  N         -1.8710    7.3810   -8.0920 N.3    83  GLN83      -0.1231
    165  CA        -2.1620    8.2320   -6.9360 C.3    83  GLN83       0.1698
    166  C         -2.1960    9.6520   -7.4370 C.2    83  GLN83       0.2592
    167  O         -1.1350   10.2170   -7.7920 O.2    83  GLN83      -0.2718
    168  CB        -1.0480    8.0890   -5.8590 C.3    83  GLN83       0.0381
    169  CG        -0.7520    6.6280   -5.4970 C.3    83  GLN83       0.0905
    170  CD        -1.8800    6.0310   -4.6820 C.2    83  GLN83       0.2608
    171  OE1       -2.1410    6.4850   -3.5540 O.2    83  GLN83      -0.2717
    172  NE2       -2.5620    5.0030   -5.2380 N.am   83  GLN83      -0.0878
    173  N         -3.3840   10.2660   -7.4520 N.am   84  ILE84      -0.1980
    174  CA        -3.5760   11.5950   -7.9580 C.3    84  ILE84       0.1595
    175  C         -3.8990   12.4390   -6.7180 C.2    84  ILE84       0.2287
    176  O         -5.0500   12.3790   -6.2050 O.2    84  ILE84      -0.2864
    177  CB        -4.7830   11.6910   -8.9850 C.3    84  ILE84       0.0276
    178  CG1       -4.5780   10.7680  -10.2590 C.3    84  ILE84       0.0022
    179  CG2       -4.9990   13.1810   -9.4440 C.3    84  ILE84       0.0022
    180  CD1       -3.1830   10.8780  -10.9240 C.3    84  ILE84       0.0001
    181  N         -5.0890   15.5650   -4.8370 N.3    86  VAL86      -0.1245
    182  CA        -5.8720   16.7870   -5.1050 C.3    86  VAL86       0.1561
    183  C         -5.8120   17.7280   -3.9310 C.2    86  VAL86       0.2260
    184  O         -6.0810   17.3160   -2.8160 O.2    86  VAL86      -0.2867
    185  CB        -7.3070   16.4030   -5.4470 C.3    86  VAL86       0.0252
    186  CG1       -8.1720   17.6770   -5.5780 C.3    86  VAL86       0.0019
    187  CG2       -7.3040   15.6950   -6.7650 C.3    86  VAL86       0.0019
    188  N        -22.5120    2.7830   -5.8190 N.3   146  GLN146     -0.1245
    189  CA       -21.6190    1.6270   -5.5640 C.3   146  GLN146      0.1566
    190  C        -21.9090    0.5000   -6.5580 C.2   146  GLN146      0.2260
    191  O        -20.9700   -0.1000   -7.1550 O.2   146  GLN146     -0.2867
    192  CB       -21.7790    1.1080   -4.1260 C.3   146  GLN146      0.0367
    193  CG       -21.4520    2.1070   -3.0100 C.3   146  GLN146      0.0905
    194  CD       -19.9350    2.2840   -2.8370 C.2   146  GLN146      0.2608
    195  OE1      -19.2390    2.8640   -3.7020 O.2   146  GLN146     -0.2717
    196  NE2      -19.4040    1.7780   -1.7050 N.am  146  GLN146     -0.0878
    197  N        -17.5940   -0.9890  -14.1910 N.3   153  HIS153     -0.1241
    198  CA       -16.3090   -1.7270  -14.2750 C.3   153  HIS153      0.1621
    199  C        -16.3970   -3.0230  -15.0590 C.2   153  HIS153      0.2264
    200  O        -15.4630   -3.3540  -15.8180 O.2   153  HIS153     -0.2867
    201  CB       -15.7880   -1.9460  -12.8770 C.3   153  HIS153      0.0745
    202  CG       -15.2600   -0.6860  -12.2710 C.ar  153  HIS153      0.0817
    203  ND1      -15.3510   -0.3940  -10.9170 N.ar  153  HIS153     -0.2268
    204  CD2      -14.6610    0.3890  -12.8490 C.ar  153  HIS153      0.1154
    205  CE1      -14.7790    0.7840  -10.6890 C.ar  153  HIS153      0.1986
    206  NE2      -14.3100    1.2560  -11.8340 N.ar  153  HIS153     -0.2212
    207  N        -16.6370   -2.4070  -18.7460 N.3   156  HIS156     -0.1241
    208  CA       -15.3190   -2.1010  -19.2820 C.3   156  HIS156      0.1621
    209  C        -14.3760   -3.2980  -19.3670 C.2   156  HIS156      0.2264
    210  O        -13.7590   -3.4970  -20.4040 O.2   156  HIS156     -0.2867
    211  CB       -14.6920   -0.9380  -18.5230 C.3   156  HIS156      0.0745
    212  CG       -15.2740    0.3810  -18.9210 C.ar  156  HIS156      0.0817
    213  ND1      -16.5740    0.7340  -18.6290 N.ar  156  HIS156     -0.2268
    214  CD2      -14.7400    1.4270  -19.6010 C.ar  156  HIS156      0.1154
    215  CE1      -16.8130    1.9460  -19.1030 C.ar  156  HIS156      0.1986
    216  NE2      -15.7160    2.3900  -19.6850 N.ar  156  HIS156     -0.2212
@<TRIPOS>BOND
     1   210   209    2
     2   148   146   am
     3   216   214   ar
     4   216   215   ar
     5   214   212   ar
     6   209   208    1
     7   208   207    1
     8   208   211    1
     9   215   213   ar
    10   118   115    1
    11   146   145    1
    12   146   147    2
    13   212   213   ar
    14   212   211    1
    15   145   142    1
    16   114   115    1
    17   107   106    1
    18   107   108    2
    19   106   105    1
    20   106   109    1
    21   115   116    1
    22   131   130    1
    23   117   116    2
    24   116   119   am
    25   142   141    1
    26   142   143    1
    27   110   109    1
    28   110   111    1
    29   101   100    1
    30   101   102    1
    31   100    97    1
    32   144   143    2
    33   119   120    1
    34   102   103   ar
    35   102   104   ar
    36   130   132    1
    37   130   127    1
    38   122   121    2
    39   111   112    2
    40   111   113   am
    41   200   199    2
    42    99    98    2
    43    98    97    1
    44   121   126   am
    45   121   120    1
    46    97    96    1
    47   126   127    1
    48   127   128    1
    49   120   123    1
    50   199   198    1
    51    96    93   am
    52   198   197    1
    53   198   201    1
    54   158   157    1
    55   128   133   am
    56   128   129    2
    57   123   124    1
    58   123   125    1
    59    93    94    2
    60    93    92    1
    61   133   134    1
    62    90    88    1
    63    95    92    1
    64    88    89    1
    65    88    85    1
    66   157   159    1
    67   157   156    2
    68   201   202    1
    69   204   202   ar
    70   204   206   ar
    71   149   150    1
    72   136   135    2
    73    16    15   ar
    74    32    31    1
    75    92    91    1
    76    91    86   am
    77   155   156    1
    78   155   154    1
    79    17    15   ar
    80   153   150    1
    81   153   154    1
    82   202   203   ar
    83   135   134    1
    84    15    14    1
    85   150   151    1
    86   134   137    1
    87    85    86    1
    88    85    84    1
    89   206   205   ar
    90    86    87    2
    91    30    31    1
    92    30    29    1
    93   137   138    1
    94   137   139    1
    95   138   140    1
    96   180   178    1
    97   203   205   ar
    98    33    34    1
    99    33    27   am
   100    14    13    1
   101    34    35    1
   102   151   160   am
   103   151   152    2
   104    84    80   am
   105    35    36    2
   106    29    26    1
   107    26    27    1
   108    26    25    1
   109    13    10    1
   110   178   177    1
   111   160   161    1
   112    27    28    2
   113    81    80    2
   114    80    79    1
   115    21    20    2
   116    25    20   am
   117    12    11    2
   118   179   177    1
   119    20    19    1
   120    11    10    1
   121    11    18   am
   122   177   174    1
   123    10     9    1
   124    83    82    1
   125   161   162    1
   126    19    18    1
   127    19    22    1
   128     9     3   am
   129    79    82    1
   130    79    78    1
   131    37    38    1
   132   162   163    2
   133   164   165    1
   134   174   173    1
   135   174   175    1
   136   167   166    2
   137   173   166   am
   138   166   165    1
   139    78    69   am
   140     5     7    1
   141     5     2    1
   142     5     6    1
   143     8     6    1
   144     3     2    1
   145     3     4    2
   146    22    24    1
   147    22    23    1
   148   191   190    2
   149    40    39    2
   150   165   168    1
   151     2     1    1
   152    38    39    1
   153    38    41    1
   154    70    69    2
   155   187   185    1
   156   175   176    2
   157    69    68    1
   158   190   189    1
   159    71    68    1
   160    71    72    1
   161    43    41    1
   162    41    42    1
   163   168   169    1
   164   188   189    1
   165    68    67    1
   166   186   185    1
   167   189   192    1
   168   169   170    1
   169   185   182    1
   170    72    74   ar
   171    72    73   ar
   172   172   170   am
   173    74    76   ar
   174   182   181    1
   175   182   183    1
   176    73    75   ar
   177    67    62   am
   178   170   171    2
   179    76    77   ar
   180   192   193    1
   181    75    77   ar
   182    44    45    1
   183   183   184    2
   184    49    48    1
   185   195   194    2
   186    65    64    1
   187    62    61    1
   188    62    63    2
   189    48    45    1
   190    48    50    1
   191    47    46    2
   192   193   194    1
   193   194   196   am
   194    61    64    1
   195    61    60    1
   196    54    53    2
   197    45    46    1
   198    64    66    1
   199    53    60   am
   200    53    52    1
   201    51    52    1
   202    58    57    2
   203    52    55    1
   204    55    56    1
   205    56    57    1
   206    57    59   am
