@<TRIPOS>MOLECULE
tmp/4hyfC00.pdb
 174 173 0 0 0
SMALL
GASTEIGER

@<TRIPOS>ATOM
      1  N        -18.6990   23.5200   27.3790 N.3    96  HIS96      -0.1226
      2  CA       -18.8790   22.5370   28.4400 C.3    96  HIS96       0.1752
      3  C        -19.8330   21.4240   28.0220 C.2    96  HIS96       0.2597
      4  O        -20.8880   21.6820   27.4430 O.2    96  HIS96      -0.2718
      5  CB       -19.3910   23.1930   29.7220 C.3    96  HIS96       0.0759
      6  CG       -19.6830   22.2130   30.8150 C.ar   96  HIS96       0.0818
      7  ND1      -18.6900   21.5650   31.5180 N.ar   96  HIS96      -0.2268
      8  CD2      -20.8560   21.7510   31.3090 C.ar   96  HIS96       0.1154
      9  CE1      -19.2380   20.7550   32.4060 C.ar   96  HIS96       0.1986
     10  NE2      -20.5520   20.8490   32.3000 N.ar   96  HIS96      -0.2212
     11  N        -19.4560   20.1870   28.3270 N.am   97  GLY97      -0.1942
     12  CA       -20.2990   19.0390   28.0560 C.3    97  GLY97       0.2014
     13  C        -20.4660   18.1650   29.2840 C.2    97  GLY97       0.2640
     14  O        -19.4930   17.8660   29.9760 O.2    97  GLY97      -0.2714
     15  N        -21.7030   17.7600   29.5520 N.am   98  SER98      -0.1936
     16  CA       -22.0210   16.9040   30.6910 C.3    98  SER98       0.2040
     17  C        -23.4620   16.4240   30.5580 C.2    98  SER98       0.2485
     18  O        -24.2470   17.0250   29.8240 O.2    98  SER98      -0.2729
     19  CB       -21.8480   17.6710   32.0050 C.3    98  SER98       0.2129
     20  OG       -22.9890   18.4600   32.2870 O.3    98  SER98      -0.2179
     21  N        -23.8200   15.3370   31.2620 N.am   99  PRO99      -0.2715
     22  CA       -25.2150   14.8860   31.2480 C.3    99  PRO99       0.1536
     23  C        -26.0570   15.6090   32.2940 C.2    99  PRO99       0.2598
     24  O        -27.0700   15.0730   32.7410 O.2    99  PRO99      -0.2715
     25  CB       -25.1120   13.3960   31.6080 C.3    99  PRO99       0.0310
     26  CG       -23.6430   13.1190   31.8660 C.3    99  PRO99       0.0237
     27  CD       -22.9660   14.4300   32.0430 C.3    99  PRO99       0.0939
     28  N        -25.6390   16.8120   32.6750 N.am  100  PHE100     -0.1974
     29  CA       -26.3250   17.5660   33.7160 C.3   100  PHE100      0.1639
     30  C        -26.7490   18.9450   33.2210 C.2   100  PHE100      0.2290
     31  O        -26.9350   19.8620   34.0180 O.2   100  PHE100     -0.2864
     32  CB       -25.4280   17.7100   34.9480 C.3   100  PHE100      0.0560
     33  CG       -24.7260   16.4400   35.3400 C.ar  100  PHE100     -0.0200
     34  CD1      -25.4360   15.3730   35.8700 C.ar  100  PHE100     -0.0042
     35  CD2      -23.3550   16.3130   35.1810 C.ar  100  PHE100     -0.0042
     36  CE1      -24.7920   14.2030   36.2310 C.ar  100  PHE100     -0.0003
     37  CE2      -22.7060   15.1460   35.5410 C.ar  100  PHE100     -0.0003
     38  CZ       -23.4250   14.0900   36.0650 C.ar  100  PHE100     -0.0000
     39  N        -29.9060   20.3960   34.8310 N.3   103  ALA103     -0.1231
     40  CA       -29.6780   20.7850   36.2160 C.3   103  ALA103      0.1694
     41  C        -28.7770   22.0130   36.3120 C.2   103  ALA103      0.2591
     42  O        -28.8700   22.7890   37.2640 O.2   103  ALA103     -0.2718
     43  CB       -29.0820   19.6270   36.9990 C.3   103  ALA103      0.0304
     44  N        -27.9090   22.1870   35.3190 N.am  104  ILE104     -0.1980
     45  CA       -26.9610   23.2990   35.3200 C.3   104  ILE104      0.1595
     46  C        -27.6160   24.6260   34.9320 C.2   104  ILE104      0.2287
     47  O        -27.3440   25.6610   35.5410 O.2   104  ILE104     -0.2864
     48  CB       -25.7330   23.0090   34.4210 C.3   104  ILE104      0.0276
     49  CG1      -24.8710   21.9080   35.0400 C.3   104  ILE104      0.0022
     50  CG2      -24.8880   24.2570   34.2380 C.3   104  ILE104      0.0022
     51  CD1      -23.7080   21.4840   34.1730 C.3   104  ILE104      0.0001
     52  N        -27.2890   26.0420   38.3310 N.3   108  GLY108     -0.1210
     53  CA       -25.9160   26.4770   38.1450 C.3   108  GLY108      0.1956
     54  C        -24.9310   25.3280   38.2210 C.2   108  GLY108      0.2612
     55  O        -25.3110   24.1940   38.5080 O.2   108  GLY108     -0.2717
     56  N        -23.6610   25.6190   37.9560 N.am  109  PHE109     -0.1962
     57  CA       -22.6130   24.6140   38.0840 C.3   109  PHE109      0.1771
     58  C        -22.4000   24.2610   39.5530 C.2   109  PHE109      0.2619
     59  O        -22.3770   25.1410   40.4130 O.2   109  PHE109     -0.2715
     60  CB       -21.3080   25.1070   37.4570 C.3   109  PHE109      0.0574
     61  CG       -21.3380   25.1650   35.9540 C.ar  109  PHE109     -0.0200
     62  CD1      -21.0790   24.0320   35.2000 C.ar  109  PHE109     -0.0042
     63  CD2      -21.6190   26.3530   35.2970 C.ar  109  PHE109     -0.0042
     64  CE1      -21.1020   24.0800   33.8190 C.ar  109  PHE109     -0.0003
     65  CE2      -21.6430   26.4080   33.9150 C.ar  109  PHE109     -0.0003
     66  CZ       -21.3840   25.2690   33.1760 C.ar  109  PHE109     -0.0000
     67  N        -22.2470   22.9720   39.8330 N.am  110  ASP110     -0.1971
     68  CA       -22.1480   22.4890   41.2060 C.3   110  ASP110      0.1709
     69  C        -20.8470   21.7100   41.4150 C.2   110  ASP110      0.2293
     70  O        -20.7070   20.5870   40.9310 O.2   110  ASP110     -0.2864
     71  CB       -23.3590   21.6050   41.5290 C.3   110  ASP110      0.1436
     72  CG       -23.5960   21.4510   43.0190 C.2   110  ASP110      0.3671
     73  OD1      -24.7620   21.2310   43.4130 O.co2 110  ASP110     -0.2456
     74  OD2      -22.6240   21.5500   43.7960 O.co2 110  ASP110     -0.2456
     75  N        -20.5920   17.9900   42.7950 N.3   113  HIS113     -0.1226
     76  CA       -20.7670   16.8340   41.9230 C.3   113  HIS113      0.1752
     77  C        -19.5970   16.6930   40.9560 C.2   113  HIS113      0.2596
     78  O        -19.7940   16.4290   39.7710 O.2   113  HIS113     -0.2718
     79  CB       -22.0640   16.9570   41.1220 C.3   113  HIS113      0.0759
     80  CG       -23.3060   16.8210   41.9460 C.ar  113  HIS113      0.0818
     81  ND1      -23.9210   15.6070   42.1700 N.ar  113  HIS113     -0.2268
     82  CD2      -24.0590   17.7470   42.5870 C.ar  113  HIS113      0.1154
     83  CE1      -24.9930   15.7910   42.9200 C.ar  113  HIS113      0.1986
     84  NE2      -25.0990   17.0800   43.1870 N.ar  113  HIS113     -0.2212
     85  N        -18.3810   16.8670   41.4600 N.am  114  ALA114     -0.1966
     86  CA       -17.1930   16.8150   40.6130 C.3   114  ALA114      0.1728
     87  C        -16.8020   15.3870   40.2320 C.2   114  ALA114      0.2616
     88  O        -17.5440   14.7030   39.5290 O.2   114  ALA114     -0.2715
     89  CB       -16.0410   17.5220   41.2840 C.3   114  ALA114      0.0334
     90  N        -15.6360   14.9430   40.6960 N.am  115  TYR115     -0.1974
     91  CA       -15.1260   13.6180   40.3460 C.3   115  TYR115      0.1639
     92  C        -14.0190   13.1710   41.3050 C.2   115  TYR115      0.2290
     93  O        -14.0920   12.0760   41.8590 O.2   115  TYR115     -0.2864
     94  CB       -14.6140   13.6170   38.8970 C.3   115  TYR115      0.0560
     95  CG       -14.4320   12.2510   38.2480 C.ar  115  TYR115     -0.0198
     96  CD1      -14.3880   12.1260   36.8650 C.ar  115  TYR115     -0.0009
     97  CD2      -14.2970   11.0930   39.0080 C.ar  115  TYR115     -0.0009
     98  CE1      -14.2180   10.8920   36.2590 C.ar  115  TYR115      0.0417
     99  CE2      -14.1250    9.8550   38.4100 C.ar  115  TYR115      0.0417
    100  CZ       -14.0870    9.7610   37.0360 C.ar  115  TYR115      0.1957
    101  OH       -13.9180    8.5320   36.4360 O.3   115  TYR115     -0.2866
    102  N        -11.4040   11.9590   40.5540 N.3   117  GLY117     -0.1210
    103  CA       -10.6280   11.0260   39.7600 C.3   117  GLY117      0.1956
    104  C        -10.1280   11.6660   38.4790 C.2   117  GLY117      0.2612
    105  O         -9.3310   11.0760   37.7510 O.2   117  GLY117     -0.2717
    106  N        -10.5970   12.8810   38.2100 N.am  118  GLY118     -0.1942
    107  CA       -10.2220   13.6020   37.0070 C.3   118  GLY118      0.2014
    108  C         -8.7470   13.9540   36.9620 C.2   118  GLY118      0.2638
    109  O         -8.0330   13.7920   37.9510 O.2   118  GLY118     -0.2714
    110  N         -8.2930   14.4410   35.8110 N.am  119  MET119     -0.1976
    111  CA        -6.8840   14.7670   35.6120 C.3   119  MET119      0.1605
    112  C         -6.4040   15.8790   36.5430 C.2   119  MET119      0.2287
    113  O         -5.2780   15.8390   37.0410 O.2   119  MET119     -0.2864
    114  CB        -6.6260   15.1600   34.1560 C.3   119  MET119      0.0413
    115  CG        -5.1680   15.4690   33.8520 C.3   119  MET119      0.0598
    116  SD        -4.9010   16.0170   32.1560 S.3   119  MET119     -0.1393
    117  CE        -3.1180   16.1870   32.1330 C.3   119  MET119      0.0692
    118  N        -12.9790   19.4860   39.8650 N.3   123  GLY123     -0.1210
    119  CA       -13.3640   20.7560   39.2820 C.3   123  GLY123      0.1956
    120  C        -14.3260   20.5980   38.1210 C.2   123  GLY123      0.2612
    121  O        -14.5640   19.4860   37.6500 O.2   123  GLY123     -0.2717
    122  N        -14.8890   21.7150   37.6690 N.am  124  ILE124     -0.1965
    123  CA       -15.7260   21.7210   36.4740 C.3   124  ILE124      0.1727
    124  C        -14.8640   22.0480   35.2580 C.2   124  ILE124      0.2616
    125  O        -14.1650   23.0620   35.2340 O.2   124  ILE124     -0.2715
    126  CB       -16.8890   22.7280   36.5770 C.3   124  ILE124      0.0290
    127  CG1      -17.8510   22.3350   37.7030 C.3   124  ILE124      0.0022
    128  CG2      -17.6460   22.7910   35.2640 C.3   124  ILE124      0.0023
    129  CD1      -17.5540   22.9850   39.0390 C.3   124  ILE124      0.0001
    130  N        -14.9200   21.1840   34.2500 N.am  125  TYR125     -0.1974
    131  CA       -14.0030   21.2590   33.1170 C.3   125  TYR125      0.1639
    132  C        -14.6020   21.9710   31.9050 C.2   125  TYR125      0.2290
    133  O        -15.7930   21.8440   31.6230 O.2   125  TYR125     -0.2864
    134  CB       -13.5420   19.8540   32.7240 C.3   125  TYR125      0.0560
    135  CG       -12.6160   19.1970   33.7290 C.ar  125  TYR125     -0.0198
    136  CD1      -11.3210   18.8380   33.3770 C.ar  125  TYR125     -0.0009
    137  CD2      -13.0370   18.9370   35.0270 C.ar  125  TYR125     -0.0009
    138  CE1      -10.4720   18.2350   34.2890 C.ar  125  TYR125      0.0417
    139  CE2      -12.1950   18.3380   35.9460 C.ar  125  TYR125      0.0417
    140  CZ       -10.9150   17.9900   35.5730 C.ar  125  TYR125      0.1957
    141  OH       -10.0780   17.3930   36.4880 O.3   125  TYR125     -0.2866
    142  N        -18.0250   14.3570   26.2940 N.3   136  TYR136     -0.1241
    143  CA       -18.5300   14.1800   27.6500 C.3   136  TYR136      0.1605
    144  C        -20.0320   14.4420   27.7630 C.2   136  TYR136      0.2264
    145  O        -20.5690   14.5290   28.8680 O.2   136  TYR136     -0.2867
    146  CB       -17.7660   15.0890   28.6180 C.3   136  TYR136      0.0534
    147  CG       -16.2650   14.8910   28.5990 C.ar  136  TYR136     -0.0201
    148  CD1      -15.6350   14.1050   29.5540 C.ar  136  TYR136     -0.0009
    149  CD2      -15.4780   15.4950   27.6260 C.ar  136  TYR136     -0.0009
    150  CE1      -14.2610   13.9240   29.5400 C.ar  136  TYR136      0.0417
    151  CE2      -14.1050   15.3170   27.6010 C.ar  136  TYR136      0.0417
    152  CZ       -13.5020   14.5330   28.5610 C.ar  136  TYR136      0.1957
    153  OH       -12.1360   14.3580   28.5390 O.3   136  TYR136     -0.2866
    154  N        -21.7110   11.4800   29.4150 N.3   139  GLY139     -0.1210
    155  CA       -20.9460   10.9660   30.5380 C.3   139  GLY139      0.1956
    156  C        -19.4600   10.8800   30.2510 C.2   139  GLY139      0.2611
    157  O        -19.0190   11.1550   29.1350 O.2   139  GLY139     -0.2717
    158  N        -18.6870   10.4940   31.2620 N.am  140  ILE140     -0.1979
    159  CA       -17.2360   10.3860   31.1300 C.3   140  ILE140      0.1595
    160  C        -16.8260    9.3640   30.0710 C.2   140  ILE140      0.2287
    161  O        -17.2250    8.1990   30.1290 O.2   140  ILE140     -0.2864
    162  CB       -16.5780    9.9930   32.4650 C.3   140  ILE140      0.0276
    163  CG1      -16.8910   11.0290   33.5440 C.3   140  ILE140      0.0022
    164  CG2      -15.0730    9.8490   32.2930 C.3   140  ILE140      0.0022
    165  CD1      -16.2270   12.3660   33.3100 C.3   140  ILE140      0.0001
    166  N         -7.5470   22.3270   28.1550 N.3   203  GLU203     -0.1245
    167  CA        -8.7210   22.2880   29.0230 C.3   203  GLU203      0.1567
    168  C         -8.5620   23.2220   30.2230 C.2   203  GLU203      0.2260
    169  O         -7.4450   23.5330   30.6360 O.2   203  GLU203     -0.2867
    170  CB        -9.0230   20.8570   29.4780 C.3   203  GLU203      0.0388
    171  CG        -7.8950   20.1780   30.2330 C.3   203  GLU203      0.1160
    172  CD        -8.1760   18.7110   30.4960 C.2   203  GLU203      0.3649
    173  OE1       -8.1770   18.3060   31.6770 O.co2 203  GLU203     -0.2457
    174  OE2       -8.3920   17.9610   29.5210 O.co2 203  GLU203     -0.2457
@<TRIPOS>BOND
     1   142   143    1
     2     1     2    1
     3     4     3    2
     4   151   149   ar
     5   151   152   ar
     6   149   147   ar
     7   143   144    1
     8   143   146    1
     9   144   145    2
    10     3    11   am
    11     3     2    1
    12    12    11    1
    13    12    13    1
    14   166   167    1
    15     2     5    1
    16   153   152    1
    17   152   150   ar
    18   147   146    1
    19   147   148   ar
    20   167   170    1
    21   167   168    1
    22   157   156    2
    23    13    15   am
    24    13    14    2
    25   154   155    1
    26   170   171    1
    27   174   172   ar
    28   150   148   ar
    29    15    16    1
    30     5     6    1
    31    18    17    2
    32   160   161    2
    33   160   159    1
    34   168   169    2
    35   171   172    1
    36   156   155    1
    37   156   158   am
    38   172   173   ar
    39    17    16    1
    40    17    21   am
    41    16    19    1
    42     6     8   ar
    43     6     7   ar
    44   159   158    1
    45   159   162    1
    46    22    21    1
    47    22    25    1
    48    22    23    1
    49    21    27    1
    50     8    10   ar
    51     7     9   ar
    52    25    26    1
    53   133   132    2
    54    26    27    1
    55   132   131    1
    56    19    20    1
    57   117   116    1
    58   116   115    1
    59   164   162    1
    60    23    28   am
    61    23    24    2
    62    10     9   ar
    63   162   163    1
    64    28    29    1
    65   134   131    1
    66   134   135    1
    67   131   130    1
    68    66    64   ar
    69    66    65   ar
    70    30    29    1
    71    30    31    2
    72   165   163    1
    73   136   135   ar
    74   136   138   ar
    75    29    32    1
    76   135   137   ar
    77    64    62   ar
    78   115   114    1
    79    65    63   ar
    80   114   111    1
    81    51    49    1
    82    50    48    1
    83   130   124   am
    84   138   140   ar
    85    48    49    1
    86    48    45    1
    87    39    40    1
    88    46    45    1
    89    46    47    2
    90    32    33    1
    91   137   139   ar
    92    35    33   ar
    93    35    37   ar
    94    62    61   ar
    95   125   124    2
    96   124   123    1
    97   128   126    1
    98    63    61   ar
    99    44    45    1
   100    44    41   am
   101    33    34   ar
   102    37    38   ar
   103   140   139   ar
   104   140   141    1
   105   111   110    1
   106   111   112    1
   107   110   108   am
   108    34    36   ar
   109    61    60    1
   110    38    36   ar
   111    40    41    1
   112    40    43    1
   113    98    96   ar
   114    98   100   ar
   115    41    42    2
   116   101   100    1
   117   123   126    1
   118   123   122    1
   119   112   113    2
   120   126   127    1
   121    96    95   ar
   122   108   107    1
   123   108   109    2
   124   107   106    1
   125   100    99   ar
   126    60    57    1
   127   121   120    2
   128   122   120   am
   129   127   129    1
   130   105   104    2
   131    56    57    1
   132    56    54   am
   133    57    58    1
   134   120   119    1
   135    53    54    1
   136    53    52    1
   137   106   104   am
   138    54    55    2
   139    95    94    1
   140    95    97   ar
   141    99    97   ar
   142   104   103    1
   143    94    91    1
   144   119   118    1
   145    88    87    2
   146    58    67   am
   147    58    59    2
   148   103   102    1
   149    78    77    2
   150    67    68    1
   151    87    86    1
   152    87    90   am
   153    91    90    1
   154    91    92    1
   155    86    89    1
   156    86    85    1
   157    70    69    2
   158    77    85   am
   159    77    76    1
   160    79    76    1
   161    79    80    1
   162    68    69    1
   163    68    71    1
   164    92    93    2
   165    71    72    1
   166    76    75    1
   167    80    81   ar
   168    80    82   ar
   169    81    83   ar
   170    82    84   ar
   171    83    84   ar
   172    72    73   ar
   173    72    74   ar
