@<TRIPOS>MOLECULE
tmp/4hyhA00.pdb
 175 164 0 0 0
SMALL
GASTEIGER

@<TRIPOS>ATOM
      1  N         14.3500   -6.7110   -2.0990 N.3    10  GLN10      -0.1245
      2  CA        15.2680   -7.1490   -1.0540 C.3    10  GLN10       0.1566
      3  C         14.6000   -7.3660    0.2960 C.2    10  GLN10       0.2260
      4  O         13.7160   -6.6070    0.6950 O.2    10  GLN10      -0.2867
      5  CB        16.4090   -6.1430   -0.9080 C.3    10  GLN10       0.0367
      6  CG        17.5620   -6.6200   -0.0530 C.3    10  GLN10       0.0905
      7  CD        18.7440   -5.6790   -0.1070 C.2    10  GLN10       0.2608
      8  OE1       19.7650   -5.9800   -0.7250 O.2    10  GLN10      -0.2717
      9  NE2       18.6020   -4.5150    0.5200 N.am   10  GLN10      -0.0878
     10  N         14.2520   -7.0890    4.1090 N.3    12  LEU12      -0.1231
     11  CA        14.7080   -6.1640    5.1340 C.3    12  LEU12       0.1693
     12  C         14.5280   -6.7620    6.5200 C.2    12  LEU12       0.2592
     13  O         14.8190   -6.1150    7.5300 O.2    12  LEU12      -0.2718
     14  CB        13.9630   -4.8320    5.0200 C.3    12  LEU12       0.0284
     15  CG        13.9950   -4.1930    3.6270 C.3    12  LEU12       0.0019
     16  CD1       13.0700   -2.9960    3.5530 C.3    12  LEU12       0.0001
     17  CD2       15.4110   -3.8120    3.2350 C.3    12  LEU12       0.0001
     18  N         14.0550   -8.0040    6.5670 N.am   13  GLY13      -0.1957
     19  CA        13.8580   -8.6900    7.8340 C.3    13  GLY13       0.1869
     20  C         12.7340   -9.7140    7.7690 C.2    13  GLY13       0.2309
     21  O         11.7700   -9.5610    7.0140 O.2    13  GLY13      -0.2863
     22  N          6.5740  -12.1130   12.6060 N.3    17  TYR17      -0.1241
     23  CA         5.7110  -11.0670   12.0710 C.3    17  TYR17       0.1605
     24  C          5.5480  -11.2510   10.5680 C.2    17  TYR17       0.2264
     25  O          4.7050  -10.6170    9.9390 O.2    17  TYR17      -0.2867
     26  CB         6.3180   -9.6960   12.3540 C.3    17  TYR17       0.0534
     27  CG         7.7440   -9.5500   11.8660 C.ar   17  TYR17      -0.0201
     28  CD1        8.0160   -9.2550   10.5340 C.ar   17  TYR17      -0.0009
     29  CD2        8.8100   -9.7220   12.7250 C.ar   17  TYR17      -0.0009
     30  CE1        9.3150   -9.1170   10.0850 C.ar   17  TYR17       0.0417
     31  CE2       10.1140   -9.5870   12.2860 C.ar   17  TYR17       0.0417
     32  CZ        10.3590   -9.2890   10.9620 C.ar   17  TYR17       0.1957
     33  OH        11.6520   -9.1550   10.5220 O.3    17  TYR17      -0.2866
     34  N          9.7070   -8.3410    5.8250 N.3    20  VAL20      -0.1245
     35  CA         9.6690   -6.9730    5.3240 C.3    20  VAL20       0.1561
     36  C         10.5590   -6.9050    4.1060 C.2    20  VAL20       0.2260
     37  O         11.7140   -7.3230    4.1510 O.2    20  VAL20      -0.2867
     38  CB        10.1320   -5.9510    6.3900 C.3    20  VAL20       0.0252
     39  CG1       10.2220   -4.5590    5.7790 C.3    20  VAL20       0.0019
     40  CG2        9.1940   -5.9580    7.5870 C.3    20  VAL20       0.0019
     41  N          8.7260    0.2590    1.9340 N.3    33  ALA33      -0.1245
     42  CA         8.9000   -1.0140    2.5960 C.3    33  ALA33       0.1562
     43  C          7.5670   -1.7310    2.5700 C.2    33  ALA33       0.2260
     44  O          6.5140   -1.1090    2.7200 O.2    33  ALA33      -0.2867
     45  CB         9.3660   -0.8070    4.0520 C.3    33  ALA33       0.0290
     46  N          5.5050   -4.9240    4.2970 N.3    35  LYS35      -0.1245
     47  CA         5.4310   -5.9510    5.3190 C.3    35  LYS35       0.1561
     48  C          4.4300   -6.9920    4.8330 C.2    35  LYS35       0.2260
     49  O          3.2660   -6.6740    4.5870 O.2    35  LYS35      -0.2867
     50  CB         4.9620   -5.3450    6.6490 C.3    35  LYS35       0.0271
     51  CG         4.8450   -6.3460    7.8010 C.3    35  LYS35       0.0035
     52  CD         4.0960   -5.7370    8.9830 C.3    35  LYS35       0.0206
     53  CE         4.2360   -6.5970   10.2380 C.3    35  LYS35       0.1093
     54  NZ         3.9890   -5.8170   11.4860 N.3    35  LYS35      -0.1314
     55  N         -3.2090   -3.5760   14.1940 N.3    46  GLU46      -0.1245
     56  CA        -1.9710   -2.9190   13.8080 C.3    46  GLU46       0.1567
     57  C         -2.2380   -1.9370   12.6850 C.2    46  GLU46       0.2260
     58  O         -1.6860   -0.8390   12.6570 O.2    46  GLU46      -0.2867
     59  CB        -0.9230   -3.9410   13.3680 C.3    46  GLU46       0.0388
     60  CG         0.2670   -3.3120   12.6510 C.3    46  GLU46       0.1160
     61  CD         1.4190   -4.2850   12.4480 C.2    46  GLU46       0.3649
     62  OE1        1.3610   -5.4100   12.9870 O.co2  46  GLU46      -0.2457
     63  OE2        2.3870   -3.9200   11.7540 O.co2  46  GLU46      -0.2457
     64  N          7.5880    5.5760   11.6290 N.3    59  VAL59      -0.1245
     65  CA         7.5300    5.0060   10.2750 C.3    59  VAL59       0.1561
     66  C          6.1380    5.2640    9.6970 C.2    59  VAL59       0.2260
     67  O          5.1340    4.9170   10.3090 O.2    59  VAL59      -0.2867
     68  CB         7.8820    3.4970   10.2860 C.3    59  VAL59       0.0252
     69  CG1        7.4480    2.8310    8.9730 C.3    59  VAL59       0.0019
     70  CG2        9.3890    3.2970   10.5140 C.3    59  VAL59       0.0019
     71  N          4.8210    0.6730    3.9470 N.3    75  LEU75      -0.1231
     72  CA         5.4220    1.5250    4.9560 C.3    75  LEU75       0.1693
     73  C          6.6290    2.3050    4.4730 C.2    75  LEU75       0.2592
     74  O          7.2930    1.9280    3.5070 O.2    75  LEU75      -0.2718
     75  CB         5.8310    0.6640    6.1490 C.3    75  LEU75       0.0284
     76  CG         4.7260   -0.2120    6.7370 C.3    75  LEU75       0.0019
     77  CD1        5.2930   -1.4910    7.3410 C.3    75  LEU75       0.0001
     78  CD2        3.9290    0.5620    7.7600 C.3    75  LEU75       0.0001
     79  N          6.9480    3.3590    5.2090 N.am   76  GLU76      -0.1966
     80  CA         8.0850    4.2110    4.9050 C.3    76  GLU76       0.1733
     81  C          9.4090    3.4500    4.9220 C.2    76  GLU76       0.2616
     82  O          9.7400    2.7710    5.9000 O.2    76  GLU76      -0.2715
     83  CB         8.1360    5.3760    5.9050 C.3    76  GLU76       0.0429
     84  CG         9.2050    6.4070    5.6160 C.3    76  GLU76       0.1163
     85  CD         9.2670    7.4920    6.6780 C.2    76  GLU76       0.3649
     86  OE1        8.4030    7.5000    7.5840 O.co2  76  GLU76      -0.2457
     87  OE2       10.1770    8.3410    6.6050 O.co2  76  GLU76      -0.2457
     88  N         10.1740    3.5750    3.8440 N.am   77  TYR77      -0.1960
     89  CA        11.4730    2.9190    3.7670 C.3    77  TYR77       0.1771
     90  C         12.5180    3.7930    4.4400 C.2    77  TYR77       0.2620
     91  O         12.5470    5.0120    4.2430 O.2    77  TYR77      -0.2715
     92  CB        11.8680    2.6550    2.3060 C.3    77  TYR77       0.0574
     93  CG        13.2590    2.0690    2.1440 C.ar   77  TYR77      -0.0198
     94  CD1       13.5790    0.8310    2.6850 C.ar   77  TYR77      -0.0009
     95  CD2       14.2540    2.7600    1.4580 C.ar   77  TYR77      -0.0009
     96  CE1       14.8380    0.2930    2.5370 C.ar   77  TYR77       0.0417
     97  CE2       15.5240    2.2300    1.3180 C.ar   77  TYR77       0.0417
     98  CZ        15.8080    0.9970    1.8520 C.ar   77  TYR77       0.1957
     99  OH        17.0740    0.4610    1.7150 O.3    77  TYR77      -0.2866
    100  N         13.3680    3.1690    5.2450 N.am   78  CYS78      -0.1954
    101  CA        14.4110    3.8800    5.9780 C.3    78  CYS78       0.1843
    102  C         15.7810    3.3690    5.5540 C.2    78  CYS78       0.2626
    103  O         16.2550    2.3550    6.0450 O.2    78  CYS78      -0.2714
    104  CB        14.1940    3.6980    7.4880 C.3    78  CYS78       0.0997
    105  SG        12.5780    4.2780    8.0340 S.3    78  CYS78      -0.0797
    106  N         16.3880    4.0610    4.5910 N.am   79  SER79      -0.1936
    107  CA        17.6690    3.6440    4.0180 C.3    79  SER79       0.2055
    108  C         18.8460    3.5670    4.9880 C.2    79  SER79       0.2644
    109  O         19.8560    2.9240    4.6890 O.2    79  SER79      -0.2714
    110  CB        18.0300    4.5040    2.7930 C.3    79  SER79       0.2130
    111  OG        18.1770    5.8750    3.1380 O.3    79  SER79      -0.2179
    112  N         18.7140    4.2160    6.1450 N.am   80  GLY80      -0.1939
    113  CA        19.7810    4.2240    7.1510 C.3    80  GLY80       0.2014
    114  C         19.8630    2.9190    7.9500 C.2    80  GLY80       0.2639
    115  O         20.8320    2.6840    8.6770 O.2    80  GLY80      -0.2714
    116  N         18.8470    2.0780    7.8200 N.am   81  GLY81      -0.1939
    117  CA        18.8300    0.7960    8.5070 C.3    81  GLY81       0.2014
    118  C         18.4090    0.9000    9.9670 C.2    81  GLY81       0.2638
    119  O         17.7690    1.8660   10.3670 O.2    81  GLY81      -0.2714
    120  N         18.7790   -0.1110   10.7490 N.am   82  GLU82      -0.1977
    121  CA        18.4130   -0.1850   12.1660 C.3    82  GLU82       0.1602
    122  C         19.4220    0.4840   13.0790 C.2    82  GLU82       0.2287
    123  O         20.6230    0.4300   12.8440 O.2    82  GLU82      -0.2864
    124  CB        18.1920   -1.6520   12.5860 C.3    82  GLU82       0.0415
    125  CG        16.9700   -2.2880   11.9120 C.3    82  GLU82       0.1163
    126  CD        16.8620   -3.7930   12.1230 C.2    82  GLU82       0.3649
    127  OE1       17.5830   -4.3520   12.9810 O.co2  82  GLU82      -0.2457
    128  OE2       16.0140   -4.4100   11.4500 O.co2  82  GLU82      -0.2457
    129  N         22.4300   -1.4650   14.4200 N.3    85  ASP85      -0.1239
    130  CA        23.6990   -1.5580   13.7010 C.3    85  ASP85       0.1674
    131  C         24.6430   -0.3790   13.8520 C.2    85  ASP85       0.2266
    132  O         25.7610   -0.4140   13.3540 O.2    85  ASP85      -0.2867
    133  CB        23.4640   -1.9040   12.2380 C.3    85  ASP85       0.1410
    134  CG        22.7290   -3.2170   12.0720 C.2    85  ASP85       0.3668
    135  OD1       23.1080   -4.2000   12.7490 O.co2  85  ASP85      -0.2456
    136  OD2       21.7360   -3.2510   11.3170 O.co2  85  ASP85      -0.2456
    137  N         16.4660   -2.5840   17.5970 N.3   125  GLU125     -0.1231
    138  CA        16.0860   -3.3000   16.3680 C.3   125  GLU125      0.1699
    139  C         14.8410   -2.7120   15.6890 C.2   125  GLU125      0.2592
    140  O         14.6410   -2.8860   14.4760 O.2   125  GLU125     -0.2718
    141  CB        15.8700   -4.7910   16.6750 C.3   125  GLU125      0.0402
    142  CG        17.1290   -5.4790   17.2130 C.3   125  GLU125      0.1161
    143  CD        17.1780   -5.5690   18.7390 C.2   125  GLU125      0.3649
    144  OE1       16.8220   -4.5930   19.4230 O.co2 125  GLU125     -0.2457
    145  OE2       17.6420   -6.6050   19.2560 O.co2 125  GLU125     -0.2457
    146  N         14.0100   -2.0120   16.4670 N.am  126  ASN126     -0.1974
    147  CA        12.7780   -1.4160   15.9510 C.3   126  ASN126      0.1688
    148  C         12.8830    0.0800   15.6580 C.2   126  ASN126      0.2292
    149  O         11.9180    0.6910   15.2000 O.2   126  ASN126     -0.2864
    150  CB        11.6190   -1.6660   16.9380 C.3   126  ASN126      0.1181
    151  CG        11.1570   -3.1040   16.9260 C.2   126  ASN126      0.2629
    152  OD1       11.3460   -3.8150   15.9370 O.2   126  ASN126     -0.2716
    153  ND2       10.5630   -3.5480   18.0220 N.am  126  ASN126     -0.0877
    154  N         14.5060    2.7580   13.3870 N.3   128  LEU128     -0.1245
    155  CA        15.1300    2.8580   12.0670 C.3   128  LEU128      0.1561
    156  C         15.6420    4.2520   11.7600 C.2   128  LEU128      0.2260
    157  O         15.2880    5.2230   12.4240 O.2   128  LEU128     -0.2867
    158  CB        14.1310    2.4250   11.0050 C.3   128  LEU128      0.0270
    159  CG        13.3540    1.1490   11.3330 C.3   128  LEU128      0.0019
    160  CD1       12.3730    0.8250   10.2140 C.3   128  LEU128      0.0001
    161  CD2       14.3120   -0.0190   11.5700 C.3   128  LEU128      0.0001
    162  N          9.3740    1.9810   14.5590 N.3   138  SER138     -0.1202
    163  CA         8.7060    1.0070   13.7020 C.3   138  SER138      0.2020
    164  C          8.1330   -0.1810   14.4730 C.2   138  SER138      0.2618
    165  O          8.4630   -0.4000   15.6540 O.2   138  SER138     -0.2717
    166  CB         9.6910    0.5080   12.6400 C.3   138  SER138      0.2103
    167  OG        10.4590   -0.5700   13.1430 O.3   138  SER138     -0.2182
    168  N          7.2810   -0.9540   13.7850 N.am  139  ASP139     -0.1973
    169  CA         6.6340   -2.1530   14.3270 C.3   139  ASP139      0.1709
    170  C          5.5940   -1.8780   15.4020 C.2   139  ASP139      0.2293
    171  O          5.8910   -1.9270   16.5920 O.2   139  ASP139     -0.2864
    172  CB         7.6490   -3.1900   14.8230 C.3   139  ASP139      0.1436
    173  CG         6.9900   -4.5300   15.1930 C.2   139  ASP139      0.3671
    174  OD1        5.7450   -4.6480   15.0830 O.co2 139  ASP139     -0.2456
    175  OD2        7.7160   -5.4530   15.5910 O.co2 139  ASP139     -0.2456
@<TRIPOS>BOND
     1     1     2    1
     2     2     5    1
     3     2     3    1
     4     5     6    1
     5     8     7    2
     6     7     6    1
     7     7     9   am
     8     3     4    2
     9    97    95   ar
    10    97    98   ar
    11    95    93   ar
    12    99    98    1
    13    98    96   ar
    14    41    42    1
    15    93    92    1
    16    93    94   ar
    17    92    89    1
    18    96    94   ar
    19    43    42    1
    20    43    44    2
    21    42    45    1
    22   110   111    1
    23   110   107    1
    24    17    15    1
    25    74    73    2
    26    16    15    1
    27    15    14    1
    28    89    88    1
    29    89    90    1
    30    88    81   am
    31    71    72    1
    32   107   106    1
    33   107   108    1
    34    36    37    2
    35    36    35    1
    36    10    11    1
    37    91    90    2
    38    46    47    1
    39    90   100   am
    40    73    72    1
    41    73    79   am
    42    49    48    2
    43   106   102   am
    44   109   108    2
    45    48    47    1
    46    80    81    1
    47    80    79    1
    48    80    83    1
    49    81    82    2
    50    72    75    1
    51   108   112   am
    52    14    11    1
    53    11    12    1
    54   100   101    1
    55    47    50    1
    56    35    34    1
    57    35    38    1
    58   102   101    1
    59   102   103    2
    60    84    83    1
    61    84    85    1
    62    39    38    1
    63   101   104    1
    64   112   113    1
    65    75    76    1
    66    38    40    1
    67    12    18   am
    68    12    13    2
    69    18    19    1
    70    87    85   ar
    71    50    51    1
    72    85    86   ar
    73    76    77    1
    74    76    78    1
    75    21    20    2
    76   113   114    1
    77   104   105    1
    78    20    19    1
    79    51    52    1
    80   116   114   am
    81   116   117    1
    82   114   115    2
    83   117   118    1
    84    69    68    1
    85    52    53    1
    86    66    65    1
    87    66    67    2
    88    25    24    2
    89   118   119    2
    90   118   120   am
    91    30    28   ar
    92    30    32   ar
    93   160   159    1
    94    53    54    1
    95    65    68    1
    96    65    64    1
    97    68    70    1
    98    33    32    1
    99    28    27   ar
   100    24    23    1
   101   120   121    1
   102    32    31   ar
   103   158   159    1
   104   158   155    1
   105   136   134   ar
   106   159   161    1
   107   128   126   ar
   108    63    61   ar
   109   156   155    1
   110   156   157    2
   111    27    26    1
   112    27    29   ar
   113   125   126    1
   114   125   124    1
   115   155   154    1
   116    23    26    1
   117    23    22    1
   118   134   133    1
   119   134   135   ar
   120   126   127   ar
   121   121   124    1
   122   121   122    1
   123   133   130    1
   124    31    29   ar
   125    61    60    1
   126    61    62   ar
   127   166   167    1
   128   166   163    1
   129    60    59    1
   130    58    57    2
   131    57    56    1
   132   123   122    2
   133   132   131    2
   134    59    56    1
   135   130   131    1
   136   130   129    1
   137   163   164    1
   138   163   162    1
   139   168   169    1
   140   168   164   am
   141    56    55    1
   142   169   172    1
   143   169   170    1
   144   164   165    2
   145   140   139    2
   146   172   173    1
   147   174   173   ar
   148   173   175   ar
   149   149   148    2
   150   170   171    2
   151   148   147    1
   152   139   138    1
   153   139   146   am
   154   152   151    2
   155   147   146    1
   156   147   150    1
   157   138   141    1
   158   138   137    1
   159   141   142    1
   160   151   150    1
   161   151   153   am
   162   142   143    1
   163   143   145   ar
   164   143   144   ar
