@<TRIPOS>MOLECULE
tmp/4hyiA00.pdb
 154 144 0 0 0
SMALL
GASTEIGER

@<TRIPOS>ATOM
      1  N         18.6220   -7.1100    5.8380 N.3    13  LEU13      -0.1231
      2  CA        19.1950   -6.2580    6.8660 C.3    13  LEU13       0.1693
      3  C         19.3530   -7.0230    8.1740 C.2    13  LEU13       0.2592
      4  O         20.3430   -6.8410    8.8870 O.2    13  LEU13      -0.2718
      5  CB        18.3340   -5.0140    7.0600 C.3    13  LEU13       0.0284
      6  CG        18.3460   -4.0620    5.8520 C.3    13  LEU13       0.0019
      7  CD1       17.3070   -2.9320    5.9910 C.3    13  LEU13       0.0001
      8  CD2       19.7500   -3.5130    5.6140 C.3    13  LEU13       0.0001
      9  N         18.3900   -7.8930    8.4740 N.am   14  GLY14      -0.1957
     10  CA        18.4530   -8.7090    9.6920 C.3    14  GLY14       0.1869
     11  C         17.3830   -9.8010    9.7330 C.2    14  GLY14       0.2309
     12  O         16.3470   -9.7020    9.0680 O.2    14  GLY14      -0.2863
     13  N         11.2180  -11.8390   15.0470 N.3    18  TYR18      -0.1241
     14  CA        10.1870  -10.9790   14.4400 C.3    18  TYR18       0.1605
     15  C          9.9810  -11.3220   12.9620 C.2    18  TYR18       0.2264
     16  O          8.9940  -10.9030   12.3480 O.2    18  TYR18      -0.2867
     17  CB        10.6300   -9.5220   14.5390 C.3    18  TYR18       0.0534
     18  CG        12.0230   -9.3230   14.0100 C.ar   18  TYR18      -0.0201
     19  CD1       12.2460   -9.1080   12.6490 C.ar   18  TYR18      -0.0009
     20  CD2       13.1250   -9.4750   14.8380 C.ar   18  TYR18      -0.0009
     21  CE1       13.5170   -8.9840   12.1520 C.ar   18  TYR18       0.0417
     22  CE2       14.4050   -9.3480   14.3500 C.ar   18  TYR18       0.0417
     23  CZ        14.5950   -9.1040   12.9950 C.ar   18  TYR18       0.1957
     24  OH        15.8660   -8.9680   12.4920 O.3    18  TYR18      -0.2866
     25  N         14.0620   -8.3380    8.1890 N.3    21  VAL21      -0.1245
     26  CA        13.9480   -6.9660    7.7310 C.3    21  VAL21       0.1561
     27  C         14.8220   -6.8810    6.4940 C.2    21  VAL21       0.2260
     28  O         15.9850   -7.2570    6.5250 O.2    21  VAL21      -0.2867
     29  CB        14.3980   -5.9380    8.8140 C.3    21  VAL21       0.0252
     30  CG1       14.2200   -4.4990    8.2840 C.3    21  VAL21       0.0019
     31  CG2       13.6060   -6.1280   10.0890 C.3    21  VAL21       0.0019
     32  N         12.7580    0.1530    4.4670 N.3    34  ALA34      -0.1245
     33  CA        12.9670   -1.1320    5.0930 C.3    34  ALA34       0.1562
     34  C         11.6330   -1.8450    5.0710 C.2    34  ALA34       0.2260
     35  O         10.5740   -1.2170    5.1370 O.2    34  ALA34      -0.2867
     36  CB        13.4660   -0.9480    6.5650 C.3    34  ALA34       0.0290
     37  N          9.6440   -5.0980    6.8720 N.3    36  LYS36      -0.1245
     38  CA         9.6180   -6.1760    7.8410 C.3    36  LYS36       0.1561
     39  C          8.6690   -7.2160    7.2810 C.2    36  LYS36       0.2260
     40  O          7.4980   -6.9260    7.0210 O.2    36  LYS36      -0.2867
     41  CB         9.1110   -5.6740    9.2010 C.3    36  LYS36       0.0271
     42  CG         9.1750   -6.7130   10.3170 C.3    36  LYS36       0.0035
     43  CD         8.1420   -6.4090   11.4010 C.3    36  LYS36       0.0206
     44  CE         8.0910   -7.5120   12.4320 C.3    36  LYS36       0.1093
     45  NZ         6.7020   -7.7590   12.9000 N.3    36  LYS36      -0.1314
     46  N          0.9140   -3.9770   16.3450 N.3    50  GLU50      -0.1245
     47  CA         2.1300   -3.3000   15.9120 C.3    50  GLU50       0.1567
     48  C          1.8160   -2.2730   14.8340 C.2    50  GLU50       0.2260
     49  O          2.3470   -1.1630   14.8510 O.2    50  GLU50      -0.2867
     50  CB         3.1650   -4.3040   15.4070 C.3    50  GLU50       0.0388
     51  CG         4.4360   -3.6690   14.8130 C.3    50  GLU50       0.1160
     52  CD         5.4400   -4.7080   14.3540 C.2    50  GLU50       0.3649
     53  OE1        5.0150   -5.8460   14.0550 O.co2  50  GLU50      -0.2457
     54  OE2        6.6510   -4.3950   14.2760 O.co2  50  GLU50      -0.2457
     55  N         11.2930    5.5340   14.0950 N.3    63  VAL63      -0.1245
     56  CA        11.2110    4.9850   12.7340 C.3    63  VAL63       0.1561
     57  C          9.7770    5.1950   12.1930 C.2    63  VAL63       0.2260
     58  O          8.7980    4.7600   12.8160 O.2    63  VAL63      -0.2867
     59  CB        11.5920    3.4990   12.7340 C.3    63  VAL63       0.0252
     60  CG1       11.1190    2.8200   11.4370 C.3    63  VAL63       0.0019
     61  CG2       13.0830    3.3230   12.9410 C.3    63  VAL63       0.0019
     62  N          8.7730    0.4780    6.4130 N.3    79  LEU79      -0.1231
     63  CA         9.3340    1.3400    7.4350 C.3    79  LEU79       0.1693
     64  C         10.4870    2.1990    6.9600 C.2    79  LEU79       0.2592
     65  O         11.1900    1.8600    6.0120 O.2    79  LEU79      -0.2718
     66  CB         9.8180    0.4490    8.5750 C.3    79  LEU79       0.0284
     67  CG         8.7180   -0.4180    9.2060 C.3    79  LEU79       0.0019
     68  CD1        9.2760   -1.7450    9.7140 C.3    79  LEU79       0.0001
     69  CD2        8.0370    0.3690   10.3390 C.3    79  LEU79       0.0001
     70  N         10.7320    3.2880    7.6810 N.am   80  GLU80      -0.1966
     71  CA        11.8360    4.1840    7.3720 C.3    80  GLU80       0.1733
     72  C         13.1770    3.4430    7.4210 C.2    80  GLU80       0.2616
     73  O         13.5030    2.7660    8.4200 O.2    80  GLU80      -0.2715
     74  CB        11.8360    5.3350    8.3860 C.3    80  GLU80       0.0429
     75  CG        12.9340    6.3130    8.2290 C.3    80  GLU80       0.1163
     76  CD        12.8720    7.4060    9.2730 C.2    80  GLU80       0.3649
     77  OE1       11.9520    7.3760   10.1450 O.co2  80  GLU80      -0.2457
     78  OE2       13.7570    8.2780    9.2470 O.co2  80  GLU80      -0.2457
     79  N         13.9460    3.5360    6.3430 N.am   81  TYR81      -0.1960
     80  CA        15.2360    2.9000    6.2820 C.3    81  TYR81       0.1771
     81  C         16.2790    3.7570    6.9950 C.2    81  TYR81       0.2620
     82  O         16.2720    4.9740    6.8680 O.2    81  TYR81      -0.2715
     83  CB        15.6400    2.6630    4.7960 C.3    81  TYR81       0.0574
     84  CG        17.0400    2.1350    4.6170 C.ar   81  TYR81      -0.0198
     85  CD1       17.4420    0.9700    5.2450 C.ar   81  TYR81      -0.0009
     86  CD2       17.9740    2.8040    3.8030 C.ar   81  TYR81      -0.0009
     87  CE1       18.7270    0.4890    5.1010 C.ar   81  TYR81       0.0417
     88  CE2       19.2450    2.3260    3.6350 C.ar   81  TYR81       0.0417
     89  CZ        19.6290    1.1630    4.2750 C.ar   81  TYR81       0.1957
     90  OH        20.9120    0.6820    4.0940 O.3    81  TYR81      -0.2866
     91  N         17.1630    3.1090    7.7580 N.am   82  CYS82      -0.1954
     92  CA        18.1860    3.8130    8.5330 C.3    82  CYS82       0.1843
     93  C         19.5510    3.2720    8.1310 C.2    82  CYS82       0.2626
     94  O         20.0270    2.2690    8.6630 O.2    82  CYS82      -0.2714
     95  CB        17.9120    3.5920   10.0320 C.3    82  CYS82       0.0997
     96  SG        16.3100    4.2580   10.5850 S.3    82  CYS82      -0.0797
     97  N         20.1680    3.9240    7.1420 N.am   83  SER83      -0.1950
     98  CA        21.4000    3.4170    6.5620 C.3    83  SER83       0.1924
     99  C         22.5800    3.3050    7.4980 C.2    83  SER83       0.2314
    100  O         23.5460    2.5850    7.2140 O.2    83  SER83      -0.2863
    101  CB        21.7810    4.2180    5.3230 C.3    83  SER83       0.2116
    102  OG        22.0860    5.5600    5.6610 O.3    83  SER83      -0.2180
    103  N         22.4990    1.9060   10.3560 N.3    85  GLY85      -0.1210
    104  CA        22.4080    0.6320   11.0640 C.3    85  GLY85       0.1956
    105  C         22.0830    0.7750   12.5400 C.2    85  GLY85       0.2611
    106  O         21.5340    1.7890   12.9620 O.2    85  GLY85      -0.2717
    107  N         22.3980   -0.2630   13.3010 N.am   86  GLU86      -0.1979
    108  CA        22.0700   -0.3150   14.7350 C.3    86  GLU86       0.1602
    109  C         23.0740    0.3770   15.6030 C.2    86  GLU86       0.2287
    110  O         24.2700    0.2290   15.4110 O.2    86  GLU86      -0.2864
    111  CB        21.9210   -1.7730   15.1980 C.3    86  GLU86       0.0415
    112  CG        20.7480   -2.5020   14.5970 C.3    86  GLU86       0.1163
    113  CD        20.7050   -3.9840   14.9790 C.2    86  GLU86       0.3649
    114  OE1       21.5590   -4.4280   15.7870 O.co2  86  GLU86      -0.2457
    115  OE2       19.7890   -4.6800   14.4910 O.co2  86  GLU86      -0.2457
    116  N         20.1810   -2.5070   20.0580 N.3   129  GLU129     -0.1231
    117  CA        19.8380   -3.2540   18.8520 C.3   129  GLU129      0.1699
    118  C         18.6080   -2.6540   18.1950 C.2   129  GLU129      0.2592
    119  O         18.3940   -2.8260   16.9750 O.2   129  GLU129     -0.2718
    120  CB        19.5170   -4.7110   19.2260 C.3   129  GLU129      0.0402
    121  CG        20.6960   -5.5390   19.7790 C.3   129  GLU129      0.1161
    122  CD        20.8180   -5.4970   21.3120 C.2   129  GLU129      0.3649
    123  OE1       20.5100   -4.4570   21.9230 O.co2 129  GLU129     -0.2457
    124  OE2       21.2950   -6.4980   21.9110 O.co2 129  GLU129     -0.2457
    125  N         17.7700   -1.9630   19.0000 N.am  130  ASN130     -0.1974
    126  CA        16.5180   -1.3580   18.5180 C.3   130  ASN130      0.1688
    127  C         16.6070    0.1390   18.2180 C.2   130  ASN130      0.2292
    128  O         15.6010    0.7520   17.8320 O.2   130  ASN130     -0.2864
    129  CB        15.3660   -1.6040   19.5060 C.3   130  ASN130      0.1181
    130  CG        14.9550   -3.0200   19.5470 C.2   130  ASN130      0.2629
    131  OD1       15.1030   -3.7430   18.5650 O.2   130  ASN130     -0.2716
    132  ND2       14.4150   -3.4390   20.6560 N.am  130  ASN130     -0.0877
    133  N         18.2080    2.8260   15.8750 N.3   132  LEU132     -0.1245
    134  CA        18.8390    2.8660   14.5490 C.3   132  LEU132      0.1561
    135  C         19.3520    4.2340   14.1910 C.2   132  LEU132      0.2260
    136  O         18.9550    5.2230   14.7720 O.2   132  LEU132     -0.2867
    137  CB        17.8530    2.3760   13.4910 C.3   132  LEU132      0.0270
    138  CG        17.2200    1.0160   13.8230 C.3   132  LEU132      0.0019
    139  CD1       16.1820    0.6000   12.7730 C.3   132  LEU132      0.0001
    140  CD2       18.2410   -0.0540   14.0890 C.3   132  LEU132      0.0001
    141  N         13.0580    1.9370   17.0900 N.3   142  SER142     -0.1202
    142  CA        12.3800    0.9360   16.2410 C.3   142  SER142      0.2020
    143  C         11.8930   -0.2360   17.0360 C.2   142  SER142      0.2618
    144  O         12.2570   -0.4140   18.2240 O.2   142  SER142     -0.2717
    145  CB        13.3570    0.4120   15.1760 C.3   142  SER142      0.2103
    146  OG        14.3200   -0.4690   15.7350 O.3   142  SER142     -0.2182
    147  N         11.0960   -1.0700   16.3550 N.am  143  ASP143     -0.1973
    148  CA        10.4970   -2.2900   16.8980 C.3   143  ASP143      0.1709
    149  C          9.4680   -2.0180   17.9680 C.2   143  ASP143      0.2293
    150  O          9.7850   -2.0350   19.1700 O.2   143  ASP143     -0.2864
    151  CB        11.5330   -3.2900   17.3800 C.3   143  ASP143      0.1436
    152  CG        10.9230   -4.6630   17.6840 C.2   143  ASP143      0.3671
    153  OD1        9.6930   -4.7700   17.6690 O.co2 143  ASP143     -0.2456
    154  OD2       11.6930   -5.6000   17.9540 O.co2 143  ASP143     -0.2456
@<TRIPOS>BOND
     1    88    86   ar
     2    88    89   ar
     3    86    84   ar
     4    90    89    1
     5    89    87   ar
     6    32    33    1
     7    84    83    1
     8    84    85   ar
     9    83    80    1
    10    34    33    1
    11    34    35    2
    12    33    36    1
    13    87    85   ar
    14   101   102    1
    15   101    98    1
    16     8     6    1
    17     1     2    1
    18     6     7    1
    19     6     5    1
    20    65    64    2
    21    80    79    1
    22    80    81    1
    23    79    72   am
    24    62    63    1
    25    27    28    2
    26    27    26    1
    27    98    97    1
    28    98    99    1
    29     2     5    1
    30     2     3    1
    31    82    81    2
    32    37    38    1
    33    64    63    1
    34    64    70   am
    35    81    91   am
    36    40    39    2
    37    97    93   am
    38   100    99    2
    39    39    38    1
    40    71    72    1
    41    71    70    1
    42    71    74    1
    43    72    73    2
    44    63    66    1
    45    26    25    1
    46    26    29    1
    47    91    92    1
    48    38    41    1
    49    93    92    1
    50    93    94    2
    51     3     9   am
    52     3     4    2
    53    75    74    1
    54    75    76    1
    55    30    29    1
    56     9    10    1
    57    92    95    1
    58    66    67    1
    59    29    31    1
    60    12    11    2
    61    41    42    1
    62    67    68    1
    63    67    69    1
    64    78    76   ar
    65    76    77   ar
    66    10    11    1
    67    95    96    1
    68    42    43    1
    69   103   104    1
    70   104   105    1
    71    43    44    1
    72    60    59    1
    73    21    19   ar
    74    21    23   ar
    75    57    56    1
    76    57    58    2
    77    16    15    2
    78    44    45    1
    79    24    23    1
    80   105   106    2
    81   105   107   am
    82    19    18   ar
    83    56    59    1
    84    56    55    1
    85    59    61    1
    86   139   138    1
    87    15    14    1
    88    23    22   ar
    89   107   108    1
    90   137   138    1
    91   137   134    1
    92   138   140    1
    93    18    17    1
    94    18    20   ar
    95    53    52   ar
    96   135   134    1
    97   135   136    2
    98    54    52   ar
    99    22    20   ar
   100    52    51    1
   101    14    17    1
   102    14    13    1
   103   115   113   ar
   104   134   133    1
   105   112   113    1
   106   112   111    1
   107   108   111    1
   108   108   109    1
   109    51    50    1
   110    48    49    2
   111    48    47    1
   112   113   114   ar
   113   145   146    1
   114   145   142    1
   115    50    47    1
   116   110   109    2
   117    47    46    1
   118   142   143    1
   119   142   141    1
   120   147   148    1
   121   147   143   am
   122   148   151    1
   123   148   149    1
   124   119   118    2
   125   143   144    2
   126   151   152    1
   127   153   152   ar
   128   152   154   ar
   129   128   127    2
   130   149   150    2
   131   118   117    1
   132   118   125   am
   133   127   126    1
   134   126   125    1
   135   126   129    1
   136   131   130    2
   137   117   120    1
   138   117   116    1
   139   120   121    1
   140   129   130    1
   141   130   132   am
   142   121   122    1
   143   122   124   ar
   144   122   123   ar
