@<TRIPOS>MOLECULE
tmp/4hyjA11.pdb
 90 84 0 0 0
SMALL
GASTEIGER

@<TRIPOS>ATOM
      1  N         -0.8740  -27.1240  -47.5930 N.3     5  LEU5       -0.1245
      2  CA        -1.9620  -27.1840  -46.6050 C.3     5  LEU5        0.1561
      3  C         -2.5340  -28.6010  -46.4970 C.2     5  LEU5        0.2260
      4  O         -2.8140  -29.0690  -45.4000 O.2     5  LEU5       -0.2867
      5  CB        -3.0780  -26.1830  -46.9190 C.3     5  LEU5        0.0270
      6  CG        -4.3010  -26.1880  -45.9870 C.3     5  LEU5        0.0019
      7  CD1       -3.9120  -25.8300  -44.5610 C.3     5  LEU5        0.0001
      8  CD2       -5.3940  -25.2300  -46.4850 C.3     5  LEU5        0.0001
      9  N        -16.4730  -23.8080  -30.3650 N.3   188  ILE188     -0.1245
     10  CA       -15.6820  -23.8870  -31.5850 C.3   188  ILE188      0.1561
     11  C        -16.4550  -24.5470  -32.7360 C.2   188  ILE188      0.2260
     12  O        -16.4230  -24.0610  -33.8800 O.2   188  ILE188     -0.2867
     13  CB       -14.3430  -24.6150  -31.3040 C.3   188  ILE188      0.0252
     14  CG1      -13.5080  -23.7670  -30.3340 C.3   188  ILE188      0.0019
     15  CG2      -13.5840  -24.8490  -32.5850 C.3   188  ILE188      0.0019
     16  CD1      -12.3840  -24.5110  -29.6680 C.3   188  ILE188      0.0001
     17  N        -19.2420  -22.4560  -34.3640 N.3   191  ILE191     -0.1231
     18  CA       -18.5590  -21.3640  -35.0730 C.3   191  ILE191      0.1692
     19  C        -18.0440  -21.8690  -36.4240 C.2   191  ILE191      0.2592
     20  O        -18.2810  -21.2410  -37.4660 O.2   191  ILE191     -0.2718
     21  CB       -17.3980  -20.7510  -34.2480 C.3   191  ILE191      0.0266
     22  CG1      -17.9480  -20.0620  -33.0000 C.3   191  ILE191      0.0019
     23  CG2      -16.6170  -19.7180  -35.0730 C.3   191  ILE191      0.0020
     24  CD1      -16.8670  -19.6050  -32.0310 C.3   191  ILE191      0.0001
     25  N        -17.3730  -23.0220  -36.4030 N.am  192  GLY192     -0.1957
     26  CA       -16.8900  -23.6440  -37.6220 C.3   192  GLY192      0.1869
     27  C        -18.0150  -23.9280  -38.6000 C.2   192  GLY192      0.2309
     28  O        -17.8400  -23.7860  -39.8190 O.2   192  GLY192     -0.2863
     29  N        -19.0760  -20.5980  -40.4060 N.3   195  VAL195     -0.1245
     30  CA       -18.1540  -20.3310  -41.5090 C.3   195  VAL195      0.1561
     31  C        -18.4610  -21.2040  -42.7340 C.2   195  VAL195      0.2260
     32  O        -18.4760  -20.7310  -43.8680 O.2   195  VAL195     -0.2867
     33  CB       -16.6920  -20.5730  -41.0820 C.3   195  VAL195      0.0252
     34  CG1      -15.7590  -20.2570  -42.2210 C.3   195  VAL195      0.0019
     35  CG2      -16.3510  -19.7220  -39.8660 C.3   195  VAL195      0.0019
     36  N        -10.4140  -25.4630  -48.9960 N.3   203  GLU203     -0.1231
     37  CA        -9.3380  -25.0290  -48.1110 C.3   203  GLU203      0.1699
     38  C         -9.8320  -24.5950  -46.7380 C.2   203  GLU203      0.2592
     39  O         -9.2700  -25.0020  -45.7190 O.2   203  GLU203     -0.2718
     40  CB        -8.5300  -23.9030  -48.7560 C.3   203  GLU203      0.0402
     41  CG        -7.9330  -24.2680  -50.1400 C.3   203  GLU203      0.1161
     42  CD        -7.1840  -23.2000  -50.8760 C.2   203  GLU203      0.3649
     43  OE1       -7.1390  -22.0430  -50.5600 O.co2 203  GLU203     -0.2457
     44  OE2       -6.5780  -23.5950  -51.8880 O.co2 203  GLU203     -0.2457
     45  N        -10.8780  -23.7730  -46.7040 N.am  204  ILE204     -0.1980
     46  CA       -11.4500  -23.3670  -45.4210 C.3   204  ILE204      0.1595
     47  C        -11.9540  -24.5910  -44.6410 C.2   204  ILE204      0.2287
     48  O        -11.8250  -24.6410  -43.4150 O.2   204  ILE204     -0.2864
     49  CB       -12.5260  -22.2270  -45.5600 C.3   204  ILE204      0.0276
     50  CG1      -13.9150  -22.7080  -45.1890 C.3   204  ILE204      0.0022
     51  CG2      -12.4710  -21.5720  -46.9320 C.3   204  ILE204      0.0022
     52  CD1      -14.2580  -22.3870  -43.7720 C.3   204  ILE204      0.0001
     53  N         -9.0140  -26.0210  -42.8400 N.3   207  VAL207     -0.1231
     54  CA        -8.7250  -25.2000  -41.6740 C.3   207  VAL207      0.1692
     55  C         -9.6860  -25.4840  -40.5130 C.2   207  VAL207      0.2591
     56  O         -9.2460  -25.6360  -39.3700 O.2   207  VAL207     -0.2718
     57  CB        -8.7290  -23.7020  -42.0410 C.3   207  VAL207      0.0266
     58  CG1       -8.5640  -22.8450  -40.7960 C.3   207  VAL207      0.0020
     59  CG2       -7.6120  -23.4230  -43.0300 C.3   207  VAL207      0.0020
     60  N        -10.9880  -25.5570  -40.8040 N.am  208  ARG208     -0.1980
     61  CA       -11.9660  -25.9640  -39.7980 C.3   208  ARG208      0.1597
     62  C        -11.5970  -27.3290  -39.1860 C.2   208  ARG208      0.2287
     63  O        -11.6610  -27.5240  -37.9670 O.2   208  ARG208     -0.2864
     64  CB       -13.3910  -26.0160  -40.3860 C.3   208  ARG208      0.0334
     65  CG       -14.3820  -26.7490  -39.4660 C.3   208  ARG208      0.0492
     66  CD       -15.8720  -26.4330  -39.7290 C.3   208  ARG208      0.2205
     67  NE       -16.4310  -27.1850  -40.8450 N.pl3 208  ARG208     -0.0865
     68  CZ       -17.6260  -27.7710  -40.8450 C.cat 208  ARG208      0.5346
     69  NH1      -18.4140  -27.7040  -39.7690 N.pl3 208  ARG208      0.1354
     70  NH2      -18.0320  -28.4180  -41.9340 N.pl3 208  ARG208      0.1354
     71  N         -8.7730  -26.8290  -36.7520 N.3   211  ILE211     -0.1231
     72  CA        -9.1910  -26.2220  -35.5050 C.3   211  ILE211      0.1692
     73  C         -9.9920  -27.2260  -34.6840 C.2   211  ILE211      0.2592
     74  O         -9.7850  -27.3500  -33.4640 O.2   211  ILE211     -0.2718
     75  CB        -9.9740  -24.9200  -35.7650 C.3   211  ILE211      0.0266
     76  CG1       -9.0570  -23.9110  -36.4800 C.3   211  ILE211      0.0019
     77  CG2      -10.4740  -24.3370  -34.4670 C.3   211  ILE211      0.0020
     78  CD1       -9.6730  -22.5420  -36.6880 C.3   211  ILE211      0.0001
     79  N        -10.8790  -27.9620  -35.3580 N.am  212  TYR212     -0.1976
     80  CA       -11.6420  -29.0240  -34.7030 C.3   212  TYR212      0.1639
     81  C        -10.6960  -30.0260  -34.0480 C.2   212  TYR212      0.2290
     82  O        -10.9810  -30.5700  -32.9700 O.2   212  TYR212     -0.2864
     83  CB       -12.5370  -29.7620  -35.7070 C.3   212  TYR212      0.0560
     84  CG       -13.8240  -29.0500  -36.0350 C.ar  212  TYR212     -0.0198
     85  CD1      -14.8810  -29.7280  -36.6390 C.ar  212  TYR212     -0.0009
     86  CD2      -13.9840  -27.6950  -35.7520 C.ar  212  TYR212     -0.0009
     87  CE1      -16.0760  -29.0760  -36.9430 C.ar  212  TYR212      0.0417
     88  CE2      -15.1650  -27.0390  -36.0510 C.ar  212  TYR212      0.0417
     89  CZ       -16.2110  -27.7340  -36.6450 C.ar  212  TYR212      0.1957
     90  OH       -17.3810  -27.0640  -36.9520 O.3   212  TYR212     -0.2866
@<TRIPOS>BOND
     1    44    42   ar
     2    42    43   ar
     3    42    41    1
     4    41    40    1
     5    36    37    1
     6    40    37    1
     7    37    38    1
     8     1     2    1
     9    51    49    1
    10     5     2    1
    11     5     6    1
    12    38    45   am
    13    38    39    2
    14    45    46    1
    15     2     3    1
    16     3     4    2
    17     8     6    1
    18     6     7    1
    19    49    46    1
    20    49    50    1
    21    46    47    1
    22    50    52    1
    23    47    48    2
    24    32    31    2
    25    59    57    1
    26    53    54    1
    27    31    30    1
    28    34    33    1
    29    57    54    1
    30    57    58    1
    31    70    68    1
    32    54    55    1
    33    30    33    1
    34    30    29    1
    35    33    35    1
    36    68    67    2
    37    68    69    1
    38    67    66    1
    39    60    55   am
    40    60    61    1
    41    55    56    2
    42    64    61    1
    43    64    65    1
    44    28    27    2
    45    61    62    1
    46    66    65    1
    47    62    63    2
    48    27    26    1
    49    26    25    1
    50    20    19    2
    51    90    89    1
    52    87    89   ar
    53    87    85   ar
    54    71    72    1
    55    78    76    1
    56    89    88   ar
    57    85    84   ar
    58    76    75    1
    59    19    25   am
    60    19    18    1
    61    88    86   ar
    62    84    86   ar
    63    84    83    1
    64    75    72    1
    65    75    77    1
    66    83    80    1
    67    72    73    1
    68    79    80    1
    69    79    73   am
    70    23    21    1
    71    18    17    1
    72    18    21    1
    73    80    81    1
    74    73    74    2
    75    21    22    1
    76    81    82    2
    77    12    11    2
    78    22    24    1
    79    11    10    1
    80    15    13    1
    81    10    13    1
    82    10     9    1
    83    13    14    1
    84    14    16    1
