@<TRIPOS>MOLECULE
tmp/4hyjA01.pdb
 81 73 0 0 0
SMALL
GASTEIGER

@<TRIPOS>ATOM
      1  N        -15.1030  -46.0210  -13.1690 N.3    40  SER40      -0.1217
      2  CA       -15.9610  -45.7610  -14.3120 C.3    40  SER40       0.1889
      3  C        -15.6300  -44.4070  -14.9350 C.2    40  SER40       0.2288
      4  O        -15.7520  -44.2320  -16.1470 O.2    40  SER40      -0.2866
      5  CB       -17.4370  -45.8180  -13.8970 C.3    40  SER40       0.2089
      6  OG       -17.7820  -44.7010  -13.0970 O.3    40  SER40      -0.2183
      7  N        -15.0130  -44.3350  -18.9920 N.3    44  VAL44      -0.1245
      8  CA       -15.8240  -43.5400  -19.8920 C.3    44  VAL44       0.1561
      9  C        -14.9310  -42.5560  -20.6360 C.2    44  VAL44       0.2260
     10  O        -15.0640  -42.4100  -21.8510 O.2    44  VAL44      -0.2867
     11  CB       -17.0010  -42.8450  -19.1480 C.3    44  VAL44       0.0252
     12  CG1      -17.7800  -41.9560  -20.0830 C.3    44  VAL44       0.0019
     13  CG2      -17.9380  -43.8960  -18.5780 C.3    44  VAL44       0.0019
     14  N        -13.0170  -44.3990  -23.2690 N.3    47  LEU47      -0.1245
     15  CA       -13.8660  -44.8470  -24.3730 C.3    47  LEU47       0.1561
     16  C        -14.0390  -43.7120  -25.3880 C.2    47  LEU47       0.2260
     17  O        -14.0350  -43.9330  -26.6030 O.2    47  LEU47      -0.2867
     18  CB       -15.2340  -45.2980  -23.8440 C.3    47  LEU47       0.0270
     19  CG       -16.2340  -45.7380  -24.9230 C.3    47  LEU47       0.0019
     20  CD1      -15.6140  -46.8130  -25.7860 C.3    47  LEU47       0.0001
     21  CD2      -17.5470  -46.2270  -24.3130 C.3    47  LEU47       0.0001
     22  N        -22.5220  -37.5250  -25.8450 N.3    89  PRO89      -0.2102
     23  CA       -23.2900  -38.0000  -24.6820 C.3    89  PRO89       0.1504
     24  C        -22.3780  -38.5950  -23.6170 C.2    89  PRO89       0.2575
     25  O        -22.6260  -38.4430  -22.4150 O.2    89  PRO89      -0.2718
     26  CB       -24.1590  -39.1360  -25.2560 C.3    89  PRO89       0.0282
     27  CG       -24.1870  -38.9130  -26.7230 C.3    89  PRO89       0.0208
     28  CD       -22.8510  -38.2850  -27.0670 C.3    89  PRO89       0.0893
     29  N        -21.3350  -39.2920  -24.0510 N.am   90  LEU90      -0.1980
     30  CA       -20.4440  -39.9400  -23.0950 C.3    90  LEU90       0.1596
     31  C        -19.6410  -38.9000  -22.3290 C.2    90  LEU90       0.2287
     32  O        -19.2190  -39.1360  -21.2000 O.2    90  LEU90      -0.2864
     33  CB       -19.5150  -40.9350  -23.7870 C.3    90  LEU90       0.0297
     34  CG       -20.1070  -42.2490  -24.2940 C.3    90  LEU90       0.0022
     35  CD1      -19.0570  -42.9810  -25.1300 C.3    90  LEU90       0.0001
     36  CD2      -20.5510  -43.1340  -23.1460 C.3    90  LEU90       0.0001
     37  N        -22.3130  -37.3400  -19.6720 N.3    93  VAL93      -0.1245
     38  CA       -22.5860  -38.1880  -18.5010 C.3    93  VAL93       0.1561
     39  C        -21.5660  -37.9750  -17.3780 C.2    93  VAL93       0.2260
     40  O        -21.8590  -38.2500  -16.2200 O.2    93  VAL93      -0.2867
     41  CB       -22.6620  -39.6950  -18.8540 C.3    93  VAL93       0.0252
     42  CG1      -23.2070  -40.4970  -17.6820 C.3    93  VAL93       0.0019
     43  CG2      -23.5750  -39.8990  -20.0130 C.3    93  VAL93       0.0019
     44  N        -22.2600  -38.3500  -13.3590 N.3    97  LEU97      -0.1245
     45  CA       -21.4100  -39.4130  -12.8410 C.3    97  LEU97       0.1561
     46  C        -20.6240  -38.9150  -11.6260 C.2    97  LEU97       0.2260
     47  O        -20.4380  -39.6540  -10.6580 O.2    97  LEU97      -0.2867
     48  CB       -20.4770  -39.9460  -13.9280 C.3    97  LEU97       0.0270
     49  CG       -19.8770  -41.3270  -13.6730 C.3    97  LEU97       0.0019
     50  CD1      -20.9820  -42.3360  -13.4710 C.3    97  LEU97       0.0001
     51  CD2      -18.9890  -41.7510  -14.8330 C.3    97  LEU97       0.0001
     52  N        -29.3770  -36.4300  -16.4600 N.3   107  LEU107     -0.1245
     53  CA       -28.7110  -37.1420  -17.5470 C.3   107  LEU107      0.1561
     54  C        -29.6200  -37.2220  -18.7730 C.2   107  LEU107      0.2260
     55  O        -29.2130  -36.9340  -19.9010 O.2   107  LEU107     -0.2867
     56  CB       -28.3260  -38.5510  -17.0790 C.3   107  LEU107      0.0270
     57  CG       -27.8590  -39.4920  -18.1920 C.3   107  LEU107      0.0019
     58  CD1      -26.7160  -38.8360  -18.9270 C.3   107  LEU107      0.0001
     59  CD2      -27.4250  -40.8560  -17.6610 C.3   107  LEU107      0.0001
     60  N        -28.8980  -35.6600  -22.5890 N.3   111  VAL111     -0.1231
     61  CA       -28.6780  -36.4460  -23.8010 C.3   111  VAL111      0.1692
     62  C        -29.7050  -36.2400  -24.9010 C.2   111  VAL111      0.2591
     63  O        -29.3550  -36.3000  -26.0780 O.2   111  VAL111     -0.2718
     64  CB       -28.4080  -37.9660  -23.5340 C.3   111  VAL111      0.0266
     65  CG1      -27.4780  -38.1430  -22.3390 C.3   111  VAL111      0.0020
     66  CG2      -29.6940  -38.7250  -23.3430 C.3   111  VAL111      0.0020
     67  N        -30.9600  -35.9940  -24.5450 N.am  112  ILE112     -0.1980
     68  CA       -31.9430  -35.6510  -25.5700 C.3   112  ILE112      0.1595
     69  C        -31.4900  -34.3800  -26.2730 C.2   112  ILE112      0.2287
     70  O        -31.4310  -34.3210  -27.5050 O.2   112  ILE112     -0.2864
     71  CB       -33.3210  -35.3470  -24.9630 C.3   112  ILE112      0.0276
     72  CG1      -33.8610  -36.5450  -24.2040 C.3   112  ILE112      0.0022
     73  CG2      -34.3200  -34.9460  -26.0290 C.3   112  ILE112      0.0022
     74  CD1      -34.8880  -36.0850  -23.2160 C.3   112  ILE112      0.0001
     75  N        -28.5230  -35.0480  -28.4850 N.3   115  VAL115     -0.1245
     76  CA       -28.8710  -35.7780  -29.6820 C.3   115  VAL115      0.1561
     77  C        -29.5190  -34.8400  -30.7090 C.2   115  VAL115      0.2260
     78  O        -29.1900  -34.9020  -31.8990 O.2   115  VAL115     -0.2867
     79  CB       -29.7540  -37.0000  -29.3460 C.3   115  VAL115      0.0252
     80  CG1      -30.3760  -37.5670  -30.6160 C.3   115  VAL115      0.0019
     81  CG2      -28.8920  -38.0790  -28.6350 C.3   115  VAL115      0.0019
@<TRIPOS>BOND
     1    78    77    2
     2    77    76    1
     3    80    79    1
     4    76    79    1
     5    76    75    1
     6    79    81    1
     7    70    69    2
     8    28    27    1
     9    28    22    1
    10    27    26    1
    11    17    16    2
    12    69    68    1
    13    63    62    2
    14    73    71    1
    15    22    23    1
    16    20    19    1
    17    68    71    1
    18    68    67    1
    19    16    15    1
    20    26    23    1
    21    35    34    1
    22    71    72    1
    23    19    21    1
    24    19    18    1
    25    62    67   am
    26    62    61    1
    27    23    24    1
    28    15    18    1
    29    15    14    1
    30    34    33    1
    31    34    36    1
    32    72    74    1
    33    29    24   am
    34    29    30    1
    35    61    64    1
    36    61    60    1
    37    33    30    1
    38    24    25    2
    39    64    66    1
    40    64    65    1
    41    30    31    1
    42    31    32    2
    43    10     9    2
    44     9     8    1
    45    12    11    1
    46    43    41    1
    47    55    54    2
    48     8    11    1
    49     8     7    1
    50    37    38    1
    51    11    13    1
    52    58    57    1
    53    41    38    1
    54    41    42    1
    55    54    53    1
    56    38    39    1
    57    57    59    1
    58    57    56    1
    59    53    56    1
    60    53    52    1
    61    39    40    2
    62     4     3    2
    63     3     2    1
    64    51    49    1
    65     2     5    1
    66     2     1    1
    67    48    49    1
    68    48    45    1
    69     5     6    1
    70    49    50    1
    71    44    45    1
    72    45    46    1
    73    46    47    2
