@<TRIPOS>MOLECULE
tmp/4hyjA09.pdb
 80 76 0 0 0
SMALL
GASTEIGER

@<TRIPOS>ATOM
      1  N        -32.4870  -37.9580  -13.8330 N.3   105  PRO105     -0.2116
      2  CA       -33.2920  -37.0230  -14.6320 C.3   105  PRO105      0.1372
      3  C        -32.4170  -36.0010  -15.3650 C.2   105  PRO105      0.2244
      4  O        -32.7070  -35.6650  -16.5170 O.2   105  PRO105     -0.2868
      5  CB       -34.1710  -36.3260  -13.5830 C.3   105  PRO105      0.0268
      6  CG       -34.2320  -37.2900  -12.4390 C.3   105  PRO105      0.0207
      7  CD       -32.8820  -37.9460  -12.4110 C.3   105  PRO105      0.0892
      8  N        -30.8590  -37.6120  -18.5260 N.3   108  THR108     -0.1203
      9  CA       -31.8510  -37.7460  -19.5690 C.3   108  THR108      0.1994
     10  C        -32.0730  -36.4420  -20.3290 C.2   108  THR108      0.2617
     11  O        -32.1690  -36.4420  -21.5590 O.2   108  THR108     -0.2717
     12  CB       -33.1600  -38.2530  -18.9630 C.3   108  THR108      0.1784
     13  OG1      -32.9860  -39.6350  -18.6140 O.3   108  THR108     -0.2211
     14  CG2      -34.3100  -38.1100  -19.9510 C.3   108  THR108      0.0376
     15  N        -32.1420  -35.3300  -19.6100 N.am  109  LYS109     -0.1979
     16  CA       -32.2930  -34.0450  -20.2760 C.3   109  LYS109      0.1596
     17  C        -31.0500  -33.7400  -21.1070 C.2   109  LYS109      0.2287
     18  O        -31.1580  -33.3160  -22.2580 O.2   109  LYS109     -0.2864
     19  CB       -32.5400  -32.9360  -19.2520 C.3   109  LYS109      0.0298
     20  CG       -33.8320  -33.1430  -18.5120 C.3   109  LYS109      0.0038
     21  CD       -33.9210  -32.2340  -17.3180 C.3   109  LYS109      0.0206
     22  CE       -35.2980  -32.2580  -16.6550 C.3   109  LYS109      0.1093
     23  NZ       -35.2790  -31.5370  -15.3630 N.3   109  LYS109     -0.1314
     24  N        -30.9600  -35.9940  -24.5450 N.3   112  ILE112     -0.1231
     25  CA       -31.9430  -35.6510  -25.5700 C.3   112  ILE112      0.1692
     26  C        -31.4900  -34.3800  -26.2730 C.2   112  ILE112      0.2591
     27  O        -31.4310  -34.3210  -27.5050 O.2   112  ILE112     -0.2718
     28  CB       -33.3210  -35.3470  -24.9630 C.3   112  ILE112      0.0266
     29  CG1      -33.8610  -36.5450  -24.2040 C.3   112  ILE112      0.0019
     30  CG2      -34.3200  -34.9460  -26.0290 C.3   112  ILE112      0.0020
     31  CD1      -34.8880  -36.0850  -23.2160 C.3   112  ILE112      0.0001
     32  N        -31.1750  -33.3580  -25.4820 N.am  113  ALA113     -0.1980
     33  CA       -30.7060  -32.1060  -26.0480 C.3   113  ALA113      0.1597
     34  C        -29.5040  -32.3740  -26.9640 C.2   113  ALA113      0.2287
     35  O        -29.4530  -31.9050  -28.1120 O.2   113  ALA113     -0.2864
     36  CB       -30.3320  -31.1370  -24.9310 C.3   113  ALA113      0.0319
     37  N        -30.4120  -33.9570  -30.2580 N.3   116  ILE116     -0.1245
     38  CA       -30.9810  -32.9510  -31.1640 C.3   116  ILE116      0.1561
     39  C        -29.8750  -32.0880  -31.7880 C.2   116  ILE116      0.2260
     40  O        -29.8270  -31.8970  -33.0100 O.2   116  ILE116     -0.2867
     41  CB       -32.0370  -32.0630  -30.4670 C.3   116  ILE116      0.0252
     42  CG1      -33.2910  -32.8970  -30.1610 C.3   116  ILE116      0.0019
     43  CG2      -32.4170  -30.8730  -31.3590 C.3   116  ILE116      0.0019
     44  CD1      -34.1700  -32.3020  -29.0590 C.3   116  ILE116      0.0001
     45  N        -31.7290  -24.6800  -34.5310 N.3   144  ILE144     -0.1245
     46  CA       -32.3000  -25.6850  -33.6310 C.3   144  ILE144      0.1561
     47  C        -31.1730  -26.3650  -32.8220 C.2   144  ILE144      0.2260
     48  O        -31.2440  -26.4760  -31.5800 O.2   144  ILE144     -0.2867
     49  CB       -33.1280  -26.7030  -34.4390 C.3   144  ILE144      0.0252
     50  CG1      -34.4480  -26.0430  -34.8620 C.3   144  ILE144      0.0019
     51  CG2      -33.3740  -27.9980  -33.6410 C.3   144  ILE144      0.0019
     52  CD1      -35.2260  -26.8320  -35.9030 C.3   144  ILE144      0.0001
     53  N        -29.9070  -24.0730  -30.1910 N.3   147  PHE147     -0.1227
     54  CA       -30.8970  -24.0260  -29.1180 C.3   147  PHE147      0.1736
     55  C        -30.6690  -25.1920  -28.1530 C.2   147  PHE147      0.2595
     56  O        -30.5700  -24.9840  -26.9380 O.2   147  PHE147     -0.2718
     57  CB       -32.3180  -24.0790  -29.6900 C.3   147  PHE147      0.0547
     58  CG       -33.3760  -23.5710  -28.7460 C.ar  147  PHE147     -0.0202
     59  CD1      -33.5700  -24.1700  -27.5050 C.ar  147  PHE147     -0.0042
     60  CD2      -34.1870  -22.5020  -29.0990 C.ar  147  PHE147     -0.0042
     61  CE1      -34.5430  -23.7020  -26.6290 C.ar  147  PHE147     -0.0003
     62  CE2      -35.1640  -22.0310  -28.2270 C.ar  147  PHE147     -0.0003
     63  CZ       -35.3410  -22.6340  -26.9940 C.ar  147  PHE147     -0.0000
     64  N        -30.5600  -26.4060  -28.6980 N.am  148  ALA148     -0.1980
     65  CA       -30.2690  -27.5920  -27.8800 C.3   148  ALA148      0.1597
     66  C        -28.9980  -27.3580  -27.0750 C.2   148  ALA148      0.2287
     67  O        -28.9680  -27.5710  -25.8570 O.2   148  ALA148     -0.2864
     68  CB       -30.1350  -28.8340  -28.7650 C.3   148  ALA148      0.0319
     69  N        -29.5280  -24.9680  -24.2770 N.3   151  TYR151     -0.1241
     70  CA       -30.2610  -25.7020  -23.2450 C.3   151  TYR151      0.1605
     71  C        -29.3030  -26.5190  -22.3730 C.2   151  TYR151      0.2264
     72  O        -29.4190  -26.5350  -21.1440 O.2   151  TYR151     -0.2867
     73  CB       -31.3340  -26.6130  -23.8640 C.3   151  TYR151      0.0534
     74  CG       -32.0730  -27.4500  -22.8440 C.ar  151  TYR151     -0.0201
     75  CD1      -33.1000  -26.9050  -22.0840 C.ar  151  TYR151     -0.0009
     76  CD2      -31.7430  -28.7880  -22.6340 C.ar  151  TYR151     -0.0009
     77  CE1      -33.7840  -27.6710  -21.1390 C.ar  151  TYR151      0.0417
     78  CE2      -32.4250  -29.5600  -21.6950 C.ar  151  TYR151      0.0417
     79  CZ       -33.4400  -28.9910  -20.9510 C.ar  151  TYR151      0.1957
     80  OH       -34.1070  -29.7360  -20.0180 O.3   151  TYR151     -0.2866
@<TRIPOS>BOND
     1    52    50    1
     2    50    49    1
     3    45    46    1
     4    49    51    1
     5    49    46    1
     6    46    47    1
     7    40    39    2
     8    47    48    2
     9    39    38    1
    10    43    41    1
    11    38    41    1
    12    38    37    1
    13    41    42    1
    14    53    54    1
    15    42    44    1
    16    57    54    1
    17    57    58    1
    18    54    55    1
    19    60    58   ar
    20    60    62   ar
    21    68    65    1
    22    58    59   ar
    23    64    55   am
    24    64    65    1
    25    62    63   ar
    26    55    56    2
    27    35    34    2
    28    65    66    1
    29    27    26    2
    30    59    61   ar
    31    66    67    2
    32    63    61   ar
    33    34    33    1
    34    26    25    1
    35    26    32   am
    36    33    32    1
    37    33    36    1
    38    30    28    1
    39    25    28    1
    40    25    24    1
    41    28    29    1
    42    69    70    1
    43    29    31    1
    44    73    70    1
    45    73    74    1
    46    70    71    1
    47    74    76   ar
    48    74    75   ar
    49    76    78   ar
    50    71    72    2
    51    18    17    2
    52    75    77   ar
    53    78    79   ar
    54    11    10    2
    55    77    79   ar
    56    17    16    1
    57    79    80    1
    58    10    15   am
    59    10     9    1
    60    16    15    1
    61    16    19    1
    62    14    12    1
    63     9    12    1
    64     9     8    1
    65    19    20    1
    66    12    13    1
    67    20    21    1
    68    21    22    1
    69    22    23    1
    70     4     3    2
    71     3     2    1
    72     2     1    1
    73     2     5    1
    74     1     7    1
    75     5     6    1
    76     6     7    1
