@<TRIPOS>MOLECULE
tmp/4hyjA02.pdb
 91 87 0 0 0
SMALL
GASTEIGER

@<TRIPOS>ATOM
      1  N        -15.7870  -39.9620  -46.7640 N.3    75  PHE75      -0.1241
      2  CA       -16.9890  -39.4950  -46.0900 C.3    75  PHE75       0.1605
      3  C        -16.6160  -38.8740  -44.7360 C.2    75  PHE75       0.2264
      4  O        -17.0240  -39.3670  -43.6770 O.2    75  PHE75      -0.2867
      5  CB       -17.9800  -40.6660  -45.9730 C.3    75  PHE75       0.0534
      6  CG       -18.2520  -41.3400  -47.2990 C.ar   75  PHE75      -0.0203
      7  CD1      -19.2610  -40.8740  -48.1370 C.ar   75  PHE75      -0.0042
      8  CD2      -17.4680  -42.4090  -47.7300 C.ar   75  PHE75      -0.0042
      9  CE1      -19.5000  -41.4710  -49.3700 C.ar   75  PHE75      -0.0003
     10  CE2      -17.7000  -43.0130  -48.9600 C.ar   75  PHE75      -0.0003
     11  CZ       -18.7180  -42.5450  -49.7810 C.ar   75  PHE75      -0.0000
     12  N        -19.6010  -37.8530  -42.3270 N.3    78  GLU78      -0.1245
     13  CA       -20.1870  -38.9940  -41.6000 C.3    78  GLU78       0.1567
     14  C        -19.2530  -39.4800  -40.5020 C.2    78  GLU78       0.2260
     15  O        -19.6920  -39.7870  -39.3900 O.2    78  GLU78      -0.2867
     16  CB       -20.4600  -40.1470  -42.5590 C.3    78  GLU78       0.0388
     17  CG       -21.7210  -40.0000  -43.3620 C.3    78  GLU78       0.1160
     18  CD       -21.6070  -38.9300  -44.4100 C.2    78  GLU78       0.3649
     19  OE1      -22.6580  -38.3630  -44.7730 O.co2  78  GLU78      -0.2457
     20  OE2      -20.4700  -38.6540  -44.8750 O.co2  78  GLU78      -0.2457
     21  N        -19.4380  -37.0910  -37.5880 N.3    81  TYR81      -0.1227
     22  CA       -20.7100  -37.0290  -36.8780 C.3    81  TYR81       0.1736
     23  C        -21.0120  -38.3090  -36.0930 C.2    81  TYR81       0.2595
     24  O        -21.6280  -38.2510  -35.0190 O.2    81  TYR81      -0.2718
     25  CB       -21.8520  -36.6270  -37.8180 C.3    81  TYR81       0.0548
     26  CG       -22.0260  -35.1330  -37.8640 C.ar   81  TYR81      -0.0200
     27  CD1      -22.8600  -34.4890  -36.9620 C.ar   81  TYR81      -0.0009
     28  CD2      -21.3410  -34.3540  -38.7950 C.ar   81  TYR81      -0.0009
     29  CE1      -23.0160  -33.1040  -36.9810 C.ar   81  TYR81       0.0417
     30  CE2      -21.4990  -32.9660  -38.8280 C.ar   81  TYR81       0.0417
     31  CZ       -22.3330  -32.3540  -37.9190 C.ar   81  TYR81       0.1957
     32  OH       -22.4790  -30.9850  -37.9470 O.3    81  TYR81      -0.2866
     33  N        -20.5610  -39.4510  -36.6140 N.am   82  ILE82      -0.1980
     34  CA       -20.7200  -40.7190  -35.9020 C.3    82  ILE82       0.1595
     35  C        -19.8800  -40.6680  -34.6270 C.2    82  ILE82       0.2287
     36  O        -20.3320  -41.0910  -33.5590 O.2    82  ILE82      -0.2864
     37  CB       -20.3480  -41.9310  -36.8110 C.3    82  ILE82       0.0276
     38  CG1      -21.4070  -42.0920  -37.9190 C.3    82  ILE82       0.0022
     39  CG2      -20.2180  -43.2160  -35.9910 C.3    82  ILE82       0.0022
     40  CD1      -20.9780  -43.0030  -39.0910 C.3    82  ILE82       0.0001
     41  N        -21.7710  -38.2810  -32.3270 N.3    85  LEU85      -0.1245
     42  CA       -23.0150  -38.8620  -31.8070 C.3    85  LEU85       0.1561
     43  C        -22.7330  -39.7600  -30.6120 C.2    85  LEU85       0.2260
     44  O        -23.5040  -39.8010  -29.6620 O.2    85  LEU85      -0.2867
     45  CB       -23.7320  -39.6520  -32.9020 C.3    85  LEU85       0.0270
     46  CG       -25.0970  -40.2820  -32.6170 C.3    85  LEU85       0.0019
     47  CD1      -26.1750  -39.2150  -32.3780 C.3    85  LEU85       0.0001
     48  CD2      -25.5060  -41.1780  -33.7920 C.3    85  LEU85       0.0001
     49  N        -26.5510  -32.7330  -32.2710 N.3   118  ILE118     -0.1231
     50  CA       -25.7240  -33.4810  -33.2210 C.3   118  ILE118      0.1692
     51  C        -26.4810  -33.8150  -34.5200 C.2   118  ILE118      0.2591
     52  O        -25.9780  -33.5580  -35.6200 O.2   118  ILE118     -0.2718
     53  CB       -25.1400  -34.7640  -32.5700 C.3   118  ILE118      0.0266
     54  CG1      -24.2660  -34.3820  -31.3720 C.3   118  ILE118      0.0019
     55  CG2      -24.3430  -35.6040  -33.5890 C.3   118  ILE118      0.0020
     56  CD1      -23.2220  -33.3270  -31.6950 C.3   118  ILE118      0.0001
     57  N        -27.6890  -34.3610  -34.4200 N.am  119  VAL119     -0.1980
     58  CA       -28.3410  -34.7750  -35.6560 C.3   119  VAL119      0.1595
     59  C        -28.8340  -33.5700  -36.4600 C.2   119  VAL119      0.2287
     60  O        -28.7680  -33.5870  -37.7000 O.2   119  VAL119     -0.2864
     61  CB       -29.4250  -35.8770  -35.4720 C.3   119  VAL119      0.0276
     62  CG1      -28.9770  -36.8930  -34.4190 C.3   119  VAL119      0.0022
     63  CG2      -30.7340  -35.2780  -35.1040 C.3   119  VAL119      0.0022
     64  N        -25.9560  -32.6590  -38.3250 N.3   122  TYR122     -0.1241
     65  CA       -25.6530  -33.5720  -39.4150 C.3   122  TYR122      0.1605
     66  C        -26.5300  -33.2710  -40.6060 C.2   122  TYR122      0.2264
     67  O        -26.0310  -33.1900  -41.7370 O.2   122  TYR122     -0.2867
     68  CB       -25.7930  -35.0540  -39.0140 C.3   122  TYR122      0.0534
     69  CG       -25.5950  -35.9570  -40.2120 C.ar  122  TYR122     -0.0201
     70  CD1      -24.3270  -36.1290  -40.7750 C.ar  122  TYR122     -0.0009
     71  CD2      -26.6670  -36.6200  -40.8000 C.ar  122  TYR122     -0.0009
     72  CE1      -24.1350  -36.9470  -41.8970 C.ar  122  TYR122      0.0417
     73  CE2      -26.4820  -37.4480  -41.9240 C.ar  122  TYR122      0.0417
     74  CZ       -25.2180  -37.5990  -42.4610 C.ar  122  TYR122      0.1957
     75  OH       -25.0360  -38.4020  -43.5640 O.3   122  TYR122     -0.2866
     76  N        -23.3180  -29.5360  -47.9630 N.3   129  ASN129     -0.1225
     77  CA       -22.3990  -30.2850  -48.8400 C.3   129  ASN129      0.1785
     78  C        -23.0230  -30.6660  -50.1800 C.2   129  ASN129      0.2597
     79  O        -22.4190  -30.4470  -51.2300 O.2   129  ASN129     -0.2718
     80  CB       -21.8760  -31.5610  -48.1660 C.3   129  ASN129      0.1169
     81  CG       -21.0870  -31.2860  -46.9050 C.2   129  ASN129      0.2627
     82  OD1      -20.5220  -30.2080  -46.7360 O.2   129  ASN129     -0.2716
     83  ND2      -21.0430  -32.2720  -46.0060 N.am  129  ASN129     -0.0877
     84  N        -24.2260  -31.2390  -50.1460 N.am  130  ILE130     -0.1980
     85  CA       -24.8960  -31.6580  -51.3770 C.3   130  ILE130      0.1595
     86  C        -25.1180  -30.4530  -52.3000 C.2   130  ILE130      0.2287
     87  O        -24.9060  -30.5380  -53.5130 O.2   130  ILE130     -0.2864
     88  CB       -26.2340  -32.4210  -51.1070 C.3   130  ILE130      0.0276
     89  CG1      -26.0030  -33.9310  -51.0220 C.3   130  ILE130      0.0022
     90  CG2      -27.2190  -32.2300  -52.2420 C.3   130  ILE130      0.0022
     91  CD1      -25.2670  -34.4040  -49.7910 C.3   130  ILE130      0.0001
@<TRIPOS>BOND
     1    87    86    2
     2    86    85    1
     3    90    88    1
     4    85    88    1
     5    85    84    1
     6    79    78    2
     7    88    89    1
     8    89    91    1
     9    78    84   am
    10    78    77    1
    11    11     9   ar
    12    11    10   ar
    13     9     7   ar
    14    10     8   ar
    15    77    80    1
    16    77    76    1
    17    80    81    1
    18     7     6   ar
    19     8     6   ar
    20     6     5    1
    21    81    82    2
    22    81    83   am
    23     1     2    1
    24     2     5    1
    25     2     3    1
    26    20    18   ar
    27    19    18   ar
    28     3     4    2
    29    18    17    1
    30    75    74    1
    31    17    16    1
    32    16    13    1
    33    74    73   ar
    34    74    72   ar
    35    12    13    1
    36    73    71   ar
    37    72    70   ar
    38    67    66    2
    39    13    14    1
    40    71    69   ar
    41    70    69   ar
    42    66    65    1
    43    14    15    2
    44    69    68    1
    45    65    68    1
    46    65    64    1
    47    40    38    1
    48    30    28   ar
    49    30    31   ar
    50    28    26   ar
    51    32    31    1
    52    31    29   ar
    53    38    37    1
    54    26    25    1
    55    26    27   ar
    56    25    22    1
    57    60    59    2
    58    21    22    1
    59    29    27   ar
    60    22    23    1
    61    37    39    1
    62    37    34    1
    63    33    23   am
    64    33    34    1
    65    59    58    1
    66    23    24    2
    67    34    35    1
    68    58    61    1
    69    58    57    1
    70    52    51    2
    71    61    63    1
    72    61    62    1
    73    35    36    2
    74    51    57   am
    75    51    50    1
    76    48    46    1
    77    55    53    1
    78    50    53    1
    79    50    49    1
    80    45    46    1
    81    45    42    1
    82    46    47    1
    83    53    54    1
    84    41    42    1
    85    42    43    1
    86    56    54    1
    87    43    44    2
