@<TRIPOS>MOLECULE
tmp/4hyjB05.pdb
 86 82 0 0 0
SMALL
GASTEIGER

@<TRIPOS>ATOM
      1  N        -19.7000  -51.5420  -32.6230 N.3    47  VAL47      -0.1245
      2  CA       -20.3810  -50.8880  -31.5120 C.3    47  VAL47       0.1561
      3  C        -21.0760  -51.9040  -30.5870 C.2    47  VAL47       0.2260
      4  O        -20.9910  -51.8100  -29.3540 O.2    47  VAL47      -0.2867
      5  CB       -21.4320  -49.8510  -32.0270 C.3    47  VAL47       0.0252
      6  CG1      -22.2080  -49.2600  -30.8660 C.3    47  VAL47       0.0019
      7  CG2      -20.7520  -48.7340  -32.8050 C.3    47  VAL47       0.0019
      8  N        -18.5690  -53.6540  -28.2480 N.3    50  ILE50      -0.1231
      9  CA       -18.1670  -52.8550  -27.0920 C.3    50  ILE50       0.1692
     10  C        -19.2710  -52.8760  -26.0210 C.2    50  ILE50       0.2592
     11  O        -18.9930  -53.0210  -24.8280 O.2    50  ILE50      -0.2718
     12  CB       -17.8160  -51.4050  -27.5090 C.3    50  ILE50       0.0266
     13  CG1      -16.5900  -51.3980  -28.4270 C.3    50  ILE50       0.0019
     14  CG2      -17.5090  -50.5400  -26.3000 C.3    50  ILE50       0.0020
     15  CD1      -16.4300  -50.0880  -29.1810 C.3    50  ILE50       0.0001
     16  N        -20.5190  -52.7650  -26.4650 N.am   51  HIS51      -0.1976
     17  CA       -21.6890  -52.8090  -25.5860 C.3    51  HIS51       0.1656
     18  C        -21.6700  -54.0960  -24.7660 C.2    51  HIS51       0.2291
     19  O        -21.7050  -54.0630  -23.5240 O.2    51  HIS51      -0.2864
     20  CB       -22.9600  -52.6730  -26.4640 C.3    51  HIS51       0.0771
     21  CG       -24.2380  -53.1370  -25.8310 C.ar   51  HIS51       0.0820
     22  ND1      -25.4090  -53.2540  -26.5560 N.ar   51  HIS51      -0.2267
     23  CD2      -24.5500  -53.4930  -24.5590 C.ar   51  HIS51       0.1154
     24  CE1      -26.3800  -53.6710  -25.7620 C.ar   51  HIS51       0.1986
     25  NE2      -25.8860  -53.8240  -24.5470 N.ar   51  HIS51      -0.2212
     26  N        -18.8620  -54.5210  -22.0670 N.3    54  PHE54      -0.1241
     27  CA       -19.0680  -53.8160  -20.8080 C.3    54  PHE54       0.1605
     28  C        -20.2040  -54.3900  -19.9680 C.2    54  PHE54       0.2264
     29  O        -20.2620  -54.1610  -18.7580 O.2    54  PHE54      -0.2867
     30  CB       -19.2420  -52.3190  -21.0540 C.3    54  PHE54       0.0534
     31  CG       -17.9500  -51.6150  -21.3640 C.ar   54  PHE54      -0.0203
     32  CD1      -16.9780  -51.4680  -20.3800 C.ar   54  PHE54      -0.0042
     33  CD2      -17.6990  -51.1100  -22.6320 C.ar   54  PHE54      -0.0042
     34  CE1      -15.7800  -50.8250  -20.6560 C.ar   54  PHE54      -0.0003
     35  CE2      -16.5070  -50.4640  -22.9140 C.ar   54  PHE54      -0.0003
     36  CZ       -15.5440  -50.3210  -21.9240 C.ar   54  PHE54      -0.0000
     37  N        -23.5670  -52.7250  -14.9600 N.3    57  ASP57      -0.1225
     38  CA       -23.6530  -51.3610  -14.4510 C.3    57  ASP57       0.1805
     39  C        -24.2540  -50.4640  -15.5480 C.2    57  ASP57       0.2597
     40  O        -23.7720  -50.3710  -16.6840 O.2    57  ASP57      -0.2718
     41  CB       -22.1070  -51.1390  -14.3170 C.3    57  ASP57       0.1424
     42  CG       -21.8540  -49.7420  -13.6940 C.2    57  ASP57       0.3668
     43  OD1      -22.4430  -49.5910  -12.5800 O.co2  57  ASP57      -0.2456
     44  OD2      -21.4170  -48.8030  -14.3790 O.co2  57  ASP57      -0.2456
     45  N        -25.3270  -49.7460  -15.2380 N.am   58  PHE58      -0.1976
     46  CA       -25.9740  -48.7640  -16.1580 C.3    58  PHE58       0.1639
     47  C        -26.3810  -49.4430  -17.4630 C.2    58  PHE58       0.2290
     48  O        -26.1880  -48.8820  -18.5490 O.2    58  PHE58      -0.2864
     49  CB       -25.0420  -47.5880  -16.4530 C.3    58  PHE58       0.0560
     50  CG       -24.8790  -46.6170  -15.2960 C.ar   58  PHE58      -0.0200
     51  CD1      -25.4610  -46.8630  -14.0540 C.ar   58  PHE58      -0.0042
     52  CD2      -24.0770  -45.4920  -15.4330 C.ar   58  PHE58      -0.0042
     53  CE1      -25.2400  -46.0090  -12.9570 C.ar   58  PHE58      -0.0003
     54  CE2      -23.8420  -44.6150  -14.3320 C.ar   58  PHE58      -0.0003
     55  CZ       -24.4260  -44.8810  -13.0920 C.ar   58  PHE58      -0.0000
     56  N        -26.1250  -48.1120  -21.4430 N.3    62  ILE62      -0.1245
     57  CA       -25.1640  -48.7960  -22.3090 C.3    62  ILE62       0.1561
     58  C        -25.8620  -49.3350  -23.5600 C.2    62  ILE62       0.2260
     59  O        -25.3940  -49.1300  -24.6870 O.2    62  ILE62      -0.2867
     60  CB       -24.4350  -49.9640  -21.6000 C.3    62  ILE62       0.0252
     61  CG1      -23.6370  -49.4540  -20.3820 C.3    62  ILE62       0.0019
     62  CG2      -23.5630  -50.7610  -22.5530 C.3    62  ILE62       0.0019
     63  CD1      -22.4130  -48.6420  -20.7760 C.3    62  ILE62       0.0001
     64  N        -27.0350  -46.2440  -25.9110 N.3    65  ILE65      -0.1231
     65  CA       -26.0120  -45.5460  -26.6800 C.3    65  ILE65       0.1692
     66  C        -25.6040  -46.3860  -27.8980 C.2    65  ILE65       0.2592
     67  O        -25.2590  -45.8500  -28.9560 O.2    65  ILE65      -0.2718
     68  CB       -24.8070  -45.1510  -25.7900 C.3    65  ILE65       0.0266
     69  CG1      -23.8240  -44.2670  -26.5560 C.3    65  ILE65       0.0019
     70  CG2      -24.1040  -46.3850  -25.2410 C.3    65  ILE65       0.0020
     71  CD1      -24.3420  -42.9010  -26.8290 C.3    65  ILE65       0.0001
     72  N        -25.6870  -47.7060  -27.7480 N.am   66  ASP66      -0.1974
     73  CA       -25.5080  -48.6470  -28.8580 C.3    66  ASP66       0.1709
     74  C        -26.6090  -48.4170  -29.9030 C.2    66  ASP66       0.2293
     75  O        -26.3260  -48.1040  -31.0690 O.2    66  ASP66      -0.2864
     76  CB       -25.5220  -50.0940  -28.3000 C.3    66  ASP66       0.1436
     77  CG       -25.7540  -51.1650  -29.3660 C.2    66  ASP66       0.3671
     78  OD1      -25.4860  -52.3540  -29.0540 O.co2  66  ASP66      -0.2456
     79  OD2      -26.2130  -50.8610  -30.5030 O.co2  66  ASP66      -0.2456
     80  N        -26.5840  -45.3420  -32.0930 N.3    69  VAL69      -0.1245
     81  CA       -25.7450  -45.3260  -33.2820 C.3    69  VAL69       0.1561
     82  C        -26.0310  -46.4620  -34.2610 C.2    69  VAL69       0.2260
     83  O        -25.9830  -46.2560  -35.4690 O.2    69  VAL69      -0.2867
     84  CB       -24.2310  -45.2040  -32.9520 C.3    69  VAL69       0.0252
     85  CG1      -23.7630  -46.3910  -32.1720 C.3    69  VAL69       0.0019
     86  CG2      -23.4270  -45.0990  -34.2350 C.3    69  VAL69       0.0019
@<TRIPOS>BOND
     1    83    82    2
     2    82    81    1
     3    86    84    1
     4    81    84    1
     5    81    80    1
     6    84    85    1
     7     7     5    1
     8     1     2    1
     9     5     2    1
    10     5     6    1
    11     2     3    1
    12    75    74    2
    13     3     4    2
    14    79    77   ar
    15    74    73    1
    16    77    78   ar
    17    77    76    1
    18    15    13    1
    19    67    66    2
    20    73    76    1
    21    73    72    1
    22    13    12    1
    23     8     9    1
    24    66    72   am
    25    66    65    1
    26    12     9    1
    27    12    14    1
    28     9    10    1
    29    71    69    1
    30    65    64    1
    31    65    68    1
    32    22    21   ar
    33    22    24   ar
    34    69    68    1
    35    16    10   am
    36    16    17    1
    37    20    21    1
    38    20    17    1
    39    10    11    2
    40    21    23   ar
    41    68    70    1
    42    24    25   ar
    43    17    18    1
    44    18    19    2
    45    59    58    2
    46    23    25   ar
    47    58    57    1
    48    35    33   ar
    49    35    36   ar
    50    33    31   ar
    51    62    60    1
    52    57    60    1
    53    57    56    1
    54    26    27    1
    55    36    34   ar
    56    60    61    1
    57    31    30    1
    58    31    32   ar
    59    30    27    1
    60    27    28    1
    61    63    61    1
    62    34    32   ar
    63    28    29    2
    64    48    47    2
    65    47    46    1
    66    40    39    2
    67    49    46    1
    68    49    50    1
    69    46    45    1
    70    39    45   am
    71    39    38    1
    72    52    50   ar
    73    52    54   ar
    74    50    51   ar
    75    37    38    1
    76    38    41    1
    77    44    42   ar
    78    54    55   ar
    79    41    42    1
    80    51    53   ar
    81    42    43   ar
    82    55    53   ar
