@<TRIPOS>MOLECULE
tmp/4hyjA04.pdb
 195 191 0 0 0
SMALL
GASTEIGER

@<TRIPOS>ATOM
      1  N        -19.4380  -37.0910  -37.5880 N.3    81  TYR81      -0.1241
      2  CA       -20.7100  -37.0290  -36.8780 C.3    81  TYR81       0.1605
      3  C        -21.0120  -38.3090  -36.0930 C.2    81  TYR81       0.2264
      4  O        -21.6280  -38.2510  -35.0190 O.2    81  TYR81      -0.2867
      5  CB       -21.8520  -36.6270  -37.8180 C.3    81  TYR81       0.0534
      6  CG       -22.0260  -35.1330  -37.8640 C.ar   81  TYR81      -0.0201
      7  CD1      -22.8600  -34.4890  -36.9620 C.ar   81  TYR81      -0.0009
      8  CD2      -21.3410  -34.3540  -38.7950 C.ar   81  TYR81      -0.0009
      9  CE1      -23.0160  -33.1040  -36.9810 C.ar   81  TYR81       0.0417
     10  CE2      -21.4990  -32.9660  -38.8280 C.ar   81  TYR81       0.0417
     11  CZ       -22.3330  -32.3540  -37.9190 C.ar   81  TYR81       0.1957
     12  OH       -22.4790  -30.9850  -37.9470 O.3    81  TYR81      -0.2866
     13  N        -19.0710  -37.7680  -33.0650 N.3    84  TRP84      -0.1241
     14  CA       -19.8360  -36.8160  -32.2430 C.3    84  TRP84       0.1605
     15  C        -21.0500  -37.4450  -31.5820 C.2    84  TRP84       0.2264
     16  O        -21.3140  -37.2000  -30.4030 O.2    84  TRP84      -0.2867
     17  CB       -20.2810  -35.6110  -33.0770 C.3    84  TRP84       0.0550
     18  CG       -19.1420  -34.6990  -33.4370 C.ar   84  TRP84       0.0003
     19  CD1      -17.8190  -34.9020  -33.1690 C.ar   84  TRP84       0.0946
     20  CD2      -19.2290  -33.4270  -34.0950 C.ar   84  TRP84       0.0152
     21  NE1      -17.0740  -33.8370  -33.6290 N.ar   84  TRP84      -0.2442
     22  CE2      -17.9120  -32.9210  -34.2040 C.ar   84  TRP84       0.0810
     23  CE3      -20.2890  -32.6730  -34.6110 C.ar   84  TRP84       0.0012
     24  CZ2      -17.6270  -31.6940  -34.8020 C.ar   84  TRP84       0.0191
     25  CZ3      -20.0110  -31.4570  -35.2110 C.ar   84  TRP84       0.0001
     26  CH2      -18.6860  -30.9740  -35.2990 C.ar   84  TRP84       0.0015
     27  N        -19.6100  -39.7070  -28.7650 N.3    87  THR87      -0.1203
     28  CA       -18.7580  -39.1290  -27.7240 C.3    87  THR87       0.1994
     29  C        -19.3960  -38.0110  -26.9340 C.2    87  THR87       0.2618
     30  O        -19.1380  -37.8880  -25.7270 O.2    87  THR87      -0.2717
     31  CB       -17.4130  -38.6240  -28.2560 C.3    87  THR87       0.1784
     32  OG1      -17.6470  -37.6420  -29.2640 O.3    87  THR87      -0.2211
     33  CG2      -16.5880  -39.7800  -28.8490 C.3    87  THR87       0.0376
     34  N        -20.1870  -37.1630  -27.5940 N.am   88  THR88      -0.1952
     35  CA       -20.8090  -36.0520  -26.8510 C.3    88  THR88       0.1897
     36  C        -21.6780  -36.4880  -25.6630 C.2    88  THR88       0.2313
     37  O        -21.5570  -35.9070  -24.5770 O.2    88  THR88      -0.2863
     38  CB       -21.5130  -34.9810  -27.7530 C.3    88  THR88       0.1794
     39  OG1      -22.5630  -35.5830  -28.5240 O.3    88  THR88      -0.2208
     40  CG2      -20.5000  -34.3840  -28.6940 C.3    88  THR88       0.0378
     41  N        -19.4280  -37.7440  -22.9460 N.3    91  LEU91      -0.1245
     42  CA       -18.7940  -36.6360  -22.2500 C.3    91  LEU91       0.1561
     43  C        -19.7920  -36.0100  -21.2680 C.2    91  LEU91       0.2260
     44  O        -19.4450  -35.7190  -20.1220 O.2    91  LEU91      -0.2867
     45  CB       -18.2820  -35.5970  -23.2490 C.3    91  LEU91       0.0270
     46  CG       -17.0410  -35.9670  -24.0730 C.3    91  LEU91       0.0019
     47  CD1      -16.9880  -35.1280  -25.3470 C.3    91  LEU91       0.0001
     48  CD2      -15.7610  -35.7410  -23.2600 C.3    91  LEU91       0.0001
     49  N        -28.9490  -31.6200  -30.9620 N.3   117  MET117     -0.1230
     50  CA       -27.8170  -30.8170  -31.4600 C.3   117  MET117      0.1702
     51  C        -27.0160  -31.5190  -32.5630 C.2   117  MET117      0.2592
     52  O        -26.8480  -30.9840  -33.6750 O.2   117  MET117     -0.2718
     53  CB       -26.9120  -30.4450  -30.2800 C.3   117  MET117      0.0401
     54  CG       -25.7520  -29.5000  -30.6120 C.3   117  MET117      0.0596
     55  SD       -24.7640  -29.3120  -29.1220 S.3   117  MET117     -0.1393
     56  CE       -23.8800  -30.8770  -29.1030 C.3   117  MET117      0.0692
     57  N        -26.5510  -32.7330  -32.2710 N.am  118  ILE118     -0.1980
     58  CA       -25.7240  -33.4810  -33.2210 C.3   118  ILE118      0.1595
     59  C        -26.4810  -33.8150  -34.5200 C.2   118  ILE118      0.2287
     60  O        -25.9780  -33.5580  -35.6200 O.2   118  ILE118     -0.2864
     61  CB       -25.1400  -34.7640  -32.5700 C.3   118  ILE118      0.0276
     62  CG1      -24.2660  -34.3820  -31.3720 C.3   118  ILE118      0.0022
     63  CG2      -24.3430  -35.6040  -33.5890 C.3   118  ILE118      0.0022
     64  CD1      -23.2220  -33.3270  -31.6950 C.3   118  ILE118      0.0001
     65  N        -27.1640  -30.8300  -36.5890 N.3   121  GLY121     -0.1225
     66  CA       -25.9420  -30.4700  -37.2770 C.3   121  GLY121      0.1811
     67  C        -25.7270  -31.3590  -38.4840 C.2   121  GLY121      0.2280
     68  O        -25.3740  -30.8730  -39.5590 O.2   121  GLY121     -0.2866
     69  N        -25.2800  -29.8510  -42.2020 N.3   125  GLU125     -0.1245
     70  CA       -24.0350  -30.0090  -42.9650 C.3   125  GLU125      0.1567
     71  C        -24.2330  -30.8120  -44.2420 C.2   125  GLU125      0.2260
     72  O        -23.7150  -30.4300  -45.2990 O.2   125  GLU125     -0.2867
     73  CB       -22.9390  -30.6590  -42.1150 C.3   125  GLU125      0.0388
     74  CG       -22.3980  -29.7730  -41.0440 C.3   125  GLU125      0.1160
     75  CD       -20.9200  -30.0140  -40.7750 C.2   125  GLU125      0.3649
     76  OE1      -20.1640  -30.2630  -41.7450 O.co2 125  GLU125     -0.2457
     77  OE2      -20.5160  -29.9560  -39.5890 O.co2 125  GLU125     -0.2457
     78  N        -29.2050  -25.7520  -37.9870 N.3   142  TYR142     -0.1241
     79  CA       -28.1750  -25.1210  -37.1780 C.3   142  TYR142      0.1605
     80  C        -28.7680  -24.4320  -35.9620 C.2   142  TYR142      0.2264
     81  O        -28.3260  -24.6630  -34.8250 O.2   142  TYR142     -0.2867
     82  CB       -27.4450  -24.0930  -38.0480 C.3   142  TYR142      0.0534
     83  CG       -26.3230  -23.3450  -37.3680 C.ar  142  TYR142     -0.0201
     84  CD1      -25.2190  -24.0220  -36.8680 C.ar  142  TYR142     -0.0009
     85  CD2      -26.3400  -21.9590  -37.2700 C.ar  142  TYR142     -0.0009
     86  CE1      -24.1620  -23.3440  -36.2690 C.ar  142  TYR142      0.0417
     87  CE2      -25.2890  -21.2710  -36.6610 C.ar  142  TYR142      0.0417
     88  CZ       -24.2030  -21.9730  -36.1690 C.ar  142  TYR142      0.1957
     89  OH       -23.1530  -21.3140  -35.5640 O.3   142  TYR142     -0.2866
     90  N        -30.1100  -26.7610  -33.5200 N.3   145  GLY145     -0.1210
     91  CA       -28.9330  -27.3300  -32.8690 C.3   145  GLY145      0.1956
     92  C        -28.3590  -26.4310  -31.7960 C.2   145  GLY145      0.2612
     93  O        -28.0360  -26.8990  -30.6870 O.2   145  GLY145     -0.2717
     94  N        -28.2320  -25.1420  -32.1200 N.am  146  CYS146     -0.1970
     95  CA       -27.7020  -24.1580  -31.1740 C.3   146  CYS146      0.1712
     96  C        -28.6030  -24.0180  -29.9500 C.2   146  CYS146      0.2296
     97  O        -28.1230  -23.8480  -28.8240 O.2   146  CYS146     -0.2864
     98  CB       -27.5670  -22.7870  -31.8540 C.3   146  CYS146      0.0983
     99  SG       -26.1890  -22.6650  -33.0140 S.3   146  CYS146     -0.0798
    100  N        -27.9570  -26.8830  -27.7540 N.3   149  TRP149     -0.1241
    101  CA       -26.6770  -26.5770  -27.0990 C.3   149  TRP149      0.1605
    102  C        -26.8350  -25.5940  -25.9280 C.2   149  TRP149      0.2264
    103  O        -26.3140  -25.8210  -24.8240 O.2   149  TRP149     -0.2867
    104  CB       -25.6970  -26.0000  -28.1300 C.3   149  TRP149      0.0550
    105  CG       -24.3510  -25.5980  -27.5600 C.ar  149  TRP149      0.0003
    106  CD1      -23.5780  -26.3090  -26.6750 C.ar  149  TRP149      0.0946
    107  CD2      -23.6270  -24.3950  -27.8460 C.ar  149  TRP149      0.0152
    108  NE1      -22.4120  -25.6220  -26.4090 N.ar  149  TRP149     -0.2442
    109  CE2      -22.4190  -24.4450  -27.1100 C.ar  149  TRP149      0.0810
    110  CE3      -23.8740  -23.2860  -28.6640 C.ar  149  TRP149      0.0012
    111  CZ2      -21.4700  -23.4180  -27.1560 C.ar  149  TRP149      0.0191
    112  CZ3      -22.9240  -22.2610  -28.7100 C.ar  149  TRP149      0.0001
    113  CH2      -21.7410  -22.3380  -27.9590 C.ar  149  TRP149      0.0015
    114  N        -16.7230  -26.0930  -26.5030 N.3   186  TRP186     -0.1241
    115  CA       -17.6810  -26.5840  -27.4920 C.3   186  TRP186      0.1605
    116  C        -18.1470  -25.5080  -28.4760 C.2   186  TRP186      0.2264
    117  O        -18.6760  -25.8430  -29.5350 O.2   186  TRP186     -0.2867
    118  CB       -18.8990  -27.2220  -26.8140 C.3   186  TRP186      0.0550
    119  CG       -18.6140  -28.5510  -26.1910 C.ar  186  TRP186      0.0003
    120  CD1      -17.4040  -29.0070  -25.7200 C.ar  186  TRP186      0.0946
    121  CD2      -19.5590  -29.6130  -25.9810 C.ar  186  TRP186      0.0152
    122  NE1      -17.5590  -30.2790  -25.2090 N.ar  186  TRP186     -0.2442
    123  CE2      -18.8640  -30.6750  -25.3700 C.ar  186  TRP186      0.0810
    124  CE3      -20.9280  -29.7610  -26.2490 C.ar  186  TRP186      0.0012
    125  CZ2      -19.4920  -31.8760  -25.0220 C.ar  186  TRP186      0.0191
    126  CZ3      -21.5490  -30.9460  -25.9030 C.ar  186  TRP186      0.0001
    127  CH2      -20.8290  -31.9960  -25.2990 C.ar  186  TRP186      0.0015
    128  N        -17.1710  -25.6350  -32.4430 N.3   189  TYR189     -0.1228
    129  CA       -17.8400  -26.3750  -33.5210 C.3   189  TYR189      0.1721
    130  C        -18.9620  -25.6000  -34.2370 C.2   189  TYR189      0.2437
    131  O        -18.9340  -25.5020  -35.4670 O.2   189  TYR189     -0.2733
    132  CB       -18.2970  -27.7600  -33.0600 C.3   189  TYR189      0.0547
    133  CG       -17.2510  -28.4860  -32.2560 C.ar  189  TYR189     -0.0200
    134  CD1      -16.1950  -29.1560  -32.8890 C.ar  189  TYR189     -0.0009
    135  CD2      -17.2960  -28.4890  -30.8610 C.ar  189  TYR189     -0.0009
    136  CE1      -15.2320  -29.8330  -32.1530 C.ar  189  TYR189      0.0417
    137  CE2      -16.3170  -29.1520  -30.1130 C.ar  189  TYR189      0.0417
    138  CZ       -15.2930  -29.8270  -30.7650 C.ar  189  TYR189      0.1957
    139  OH       -14.3240  -30.4950  -30.0330 O.3   189  TYR189     -0.2866
    140  N        -19.9380  -25.0410  -33.4850 N.am  190  PRO190     -0.2729
    141  CA       -20.9480  -24.2150  -34.1700 C.3   190  PRO190      0.1401
    142  C        -20.3480  -22.9960  -34.8730 C.2   190  PRO190      0.2269
    143  O        -20.9110  -22.5560  -35.8790 O.2   190  PRO190     -0.2865
    144  CB       -21.8870  -23.7450  -33.0290 C.3   190  PRO190      0.0296
    145  CG       -21.1070  -23.9340  -31.7600 C.3   190  PRO190      0.0237
    146  CD       -20.2210  -25.1560  -32.0390 C.3   190  PRO190      0.0939
    147  N        -19.1720  -24.3380  -38.0830 N.3   193  TYR193     -0.1241
    148  CA       -20.3220  -24.5950  -38.9520 C.3   193  TYR193      0.1605
    149  C        -20.7390  -23.2830  -39.6330 C.2   193  TYR193      0.2264
    150  O        -20.9710  -23.2340  -40.8480 O.2   193  TYR193     -0.2867
    151  CB       -21.4720  -25.1830  -38.1270 C.3   193  TYR193      0.0534
    152  CG       -22.7170  -25.6040  -38.8950 C.ar  193  TYR193     -0.0201
    153  CD1      -23.5280  -24.6640  -39.5150 C.ar  193  TYR193     -0.0009
    154  CD2      -23.1080  -26.9490  -38.9490 C.ar  193  TYR193     -0.0009
    155  CE1      -24.6800  -25.0410  -40.1940 C.ar  193  TYR193      0.0417
    156  CE2      -24.2500  -27.3350  -39.6260 C.ar  193  TYR193      0.0417
    157  CZ       -25.0340  -26.3660  -40.2420 C.ar  193  TYR193      0.1957
    158  OH       -26.1670  -26.7350  -40.9140 O.3   193  TYR193     -0.2866
    159  N        -10.8790  -27.9620  -35.3580 N.3   212  TYR212     -0.1241
    160  CA       -11.6420  -29.0240  -34.7030 C.3   212  TYR212      0.1605
    161  C        -10.6960  -30.0260  -34.0480 C.2   212  TYR212      0.2264
    162  O        -10.9810  -30.5700  -32.9700 O.2   212  TYR212     -0.2867
    163  CB       -12.5370  -29.7620  -35.7070 C.3   212  TYR212      0.0534
    164  CG       -13.8240  -29.0500  -36.0350 C.ar  212  TYR212     -0.0201
    165  CD1      -14.8810  -29.7280  -36.6390 C.ar  212  TYR212     -0.0009
    166  CD2      -13.9840  -27.6950  -35.7520 C.ar  212  TYR212     -0.0009
    167  CE1      -16.0760  -29.0760  -36.9430 C.ar  212  TYR212      0.0417
    168  CE2      -15.1650  -27.0390  -36.0510 C.ar  212  TYR212      0.0417
    169  CZ       -16.2110  -27.7340  -36.6450 C.ar  212  TYR212      0.1957
    170  OH       -17.3810  -27.0640  -36.9520 O.3   212  TYR212     -0.2866
    171  N        -11.0230  -30.8730  -30.2470 N.3   216  ASP216     -0.1239
    172  CA       -11.2730  -32.2510  -29.8050 C.3   216  ASP216      0.1674
    173  C        -10.2960  -32.7100  -28.7400 C.2   216  ASP216      0.2266
    174  O        -10.7010  -33.3260  -27.7510 O.2   216  ASP216     -0.2867
    175  CB       -11.2250  -33.2380  -30.9710 C.3   216  ASP216      0.1410
    176  CG       -12.3820  -33.0650  -31.9370 C.2   216  ASP216      0.3668
    177  OD1      -13.3580  -32.3350  -31.6220 O.co2 216  ASP216     -0.2456
    178  OD2      -12.3150  -33.6800  -33.0190 O.co2 216  ASP216     -0.2456
    179  N        -11.3250  -30.9310  -25.6550 N.3   219  ASN219     -0.1225
    180  CA       -12.6410  -31.3090  -25.1500 C.3   219  ASN219      0.1785
    181  C        -12.7610  -32.7800  -24.7770 C.2   219  ASN219      0.2597
    182  O        -13.7670  -33.1870  -24.1840 O.2   219  ASN219     -0.2718
    183  CB       -13.7360  -30.9240  -26.1560 C.3   219  ASN219      0.1169
    184  CG       -13.8600  -29.4280  -26.3250 C.2   219  ASN219      0.2627
    185  OD1      -13.8670  -28.6820  -25.3410 O.2   219  ASN219     -0.2716
    186  ND2      -13.9400  -28.9730  -27.5740 N.am  219  ASN219     -0.0877
    187  N        -11.7480  -33.5800  -25.1110 N.am  220  LYS220     -0.1980
    188  CA       -11.8090  -35.0090  -24.7980 C.3   220  LYS220      0.1596
    189  C        -10.7070  -35.4300  -23.8240 C.2   220  LYS220      0.2287
    190  O        -11.0020  -35.9960  -22.7560 O.2   220  LYS220     -0.2864
    191  CB       -11.8270  -35.8590  -26.0820 C.3   220  LYS220      0.0298
    192  CG       -13.1280  -35.6860  -26.8990 C.3   220  LYS220      0.0038
    193  CD       -13.0680  -36.4030  -28.2560 C.3   220  LYS220      0.0206
    194  CE       -14.4620  -36.6210  -28.8770 C.3   220  LYS220      0.1093
    195  NZ       -14.9590  -35.4970  -29.7350 N.3   220  LYS220     -0.1314
@<TRIPOS>BOND
     1    72    71    2
     2    71    70    1
     3    70    69    1
     4    70    73    1
     5    73    74    1
     6    76    75   ar
     7    74    75    1
     8   158   157    1
     9   150   149    2
    10    75    77   ar
    11   157   155   ar
    12   157   156   ar
    13   155   153   ar
    14   149   148    1
    15   156   154   ar
    16    68    67    2
    17   153   152   ar
    18   148   151    1
    19   148   147    1
    20   154   152   ar
    21   152   151    1
    22    10     8   ar
    23    10    11   ar
    24     8     6   ar
    25    67    66    1
    26    82    83    1
    27    82    79    1
    28    78    79    1
    29    12    11    1
    30    11     9   ar
    31     6     5    1
    32     6     7   ar
    33     5     2    1
    34     1     2    1
    35    83    85   ar
    36    83    84   ar
    37    66    65    1
    38    85    87   ar
    39    79    80    1
    40     9     7   ar
    41   170   169    1
    42   167   169   ar
    43   167   165   ar
    44     2     3    1
    45    84    86   ar
    46    87    88   ar
    47   169   168   ar
    48   165   164   ar
    49    86    88   ar
    50    88    89    1
    51     3     4    2
    52   168   166   ar
    53   164   166   ar
    54   164   163    1
    55    80    81    2
    56   143   142    2
    57   163   160    1
    58    60    59    2
    59   131   130    2
    60   159   160    1
    61    26    25   ar
    62    26    24   ar
    63    25    23   ar
    64   142   141    1
    65    24    22   ar
    66   160   161    1
    67    23    20   ar
    68    59    58    1
    69   130   129    1
    70   130   140   am
    71    22    20   ar
    72    22    21   ar
    73   141   140    1
    74   141   144    1
    75    20    18   ar
    76   161   162    2
    77    52    51    2
    78    21    19   ar
    79    63    61    1
    80   129   132    1
    81   129   128    1
    82    90    91    1
    83   140   146    1
    84    18    19   ar
    85    18    17    1
    86    58    61    1
    87    58    57    1
    88    17    14    1
    89    13    14    1
    90   132   133    1
    91   144   145    1
    92   178   176   ar
    93    99    98    1
    94   134   133   ar
    95   134   136   ar
    96    91    92    1
    97    61    62    1
    98    51    57   am
    99    51    50    1
   100   133   135   ar
   101    14    15    1
   102   136   138   ar
   103    94    92   am
   104    94    95    1
   105   146   145    1
   106   176   177   ar
   107   176   175    1
   108    98    95    1
   109    92    93    2
   110    64    62    1
   111    15    16    2
   112    50    49    1
   113    50    53    1
   114    95    96    1
   115   175   172    1
   116   135   137   ar
   117   138   137   ar
   118   138   139    1
   119    54    53    1
   120    54    55    1
   121   171   172    1
   122    96    97    2
   123   172   173    1
   124   195   194    1
   125   117   116    2
   126    32    31    1
   127    55    56    1
   128   194   193    1
   129    33    31    1
   130    27    28    1
   131   173   174    2
   132   112   110   ar
   133   112   113   ar
   134    40    38    1
   135   110   107   ar
   136    39    38    1
   137   116   115    1
   138   193   192    1
   139    31    28    1
   140   104   105    1
   141   104   101    1
   142   113   111   ar
   143   107   105   ar
   144   107   109   ar
   145   100   101    1
   146    38    35    1
   147    28    29    1
   148    34    29   am
   149    34    35    1
   150   186   184   am
   151   105   106   ar
   152   115   118    1
   153   115   114    1
   154   111   109   ar
   155   109   108   ar
   156   101   102    1
   157    29    30    2
   158   192   191    1
   159    35    36    1
   160   118   119    1
   161   106   108   ar
   162   184   183    1
   163   184   185    2
   164   124   121   ar
   165   124   126   ar
   166   119   121   ar
   167   119   120   ar
   168   183   180    1
   169   191   188    1
   170   121   123   ar
   171   102   103    2
   172   126   127   ar
   173   120   122   ar
   174    36    37    2
   175   179   180    1
   176   123   122   ar
   177   123   125   ar
   178    47    46    1
   179   127   125   ar
   180   180   181    1
   181   187   188    1
   182   187   181   am
   183   188   189    1
   184   181   182    2
   185    46    48    1
   186    46    45    1
   187   189   190    2
   188    45    42    1
   189    41    42    1
   190    42    43    1
   191    43    44    2
