@<TRIPOS>MOLECULE
tmp/4hyjA12.pdb
 86 83 0 0 0
SMALL
GASTEIGER

@<TRIPOS>ATOM
      1  N         -4.8890  -38.5080  -33.9430 N.3    17  PHE17      -0.1241
      2  CA        -4.8640  -39.9490  -33.6750 C.3    17  PHE17       0.1605
      3  C         -3.9630  -40.3020  -32.5010 C.2    17  PHE17       0.2264
      4  O         -4.3860  -40.9990  -31.5700 O.2    17  PHE17      -0.2867
      5  CB        -4.4020  -40.7250  -34.9030 C.3    17  PHE17       0.0534
      6  CG        -4.2020  -42.1920  -34.6430 C.ar   17  PHE17      -0.0203
      7  CD1       -5.2870  -43.0560  -34.5590 C.ar   17  PHE17      -0.0042
      8  CD2       -2.9250  -42.7120  -34.4840 C.ar   17  PHE17      -0.0042
      9  CE1       -5.1010  -44.4170  -34.3170 C.ar   17  PHE17      -0.0003
     10  CE2       -2.7300  -44.0700  -34.2420 C.ar   17  PHE17      -0.0003
     11  CZ        -3.8250  -44.9240  -34.1610 C.ar   17  PHE17      -0.0000
     12  N         -4.9820  -41.6340  -28.9520 N.3    21  ALA21      -0.1245
     13  CA        -4.4860  -42.9570  -28.5430 C.3    21  ALA21       0.1562
     14  C         -3.7830  -42.8580  -27.1960 C.2    21  ALA21       0.2260
     15  O         -3.9460  -43.7260  -26.3280 O.2    21  ALA21      -0.2867
     16  CB        -3.5230  -43.5200  -29.5830 C.3    21  ALA21       0.0290
     17  N         -6.1320  -42.2360  -24.3870 N.3    24  THR24      -0.1203
     18  CA        -6.8210  -43.5020  -24.1380 C.3    24  THR24       0.1994
     19  C         -5.9830  -44.3960  -23.2230 C.2    24  THR24       0.2617
     20  O         -6.4820  -44.9340  -22.2250 O.2    24  THR24      -0.2717
     21  CB        -7.1250  -44.2620  -25.4440 C.3    24  THR24       0.1784
     22  OG1       -7.9340  -43.4430  -26.3020 O.3    24  THR24      -0.2211
     23  CG2       -7.8810  -45.5660  -25.1270 C.3    24  THR24       0.0376
     24  N         -4.7030  -44.5320  -23.5560 N.am   25  LEU25      -0.1979
     25  CA        -3.8090  -45.3760  -22.7720 C.3    25  LEU25       0.1596
     26  C         -3.5520  -44.8280  -21.3750 C.2    25  LEU25       0.2287
     27  O         -3.4630  -45.5920  -20.4260 O.2    25  LEU25      -0.2864
     28  CB        -2.5040  -45.5980  -23.5180 C.3    25  LEU25       0.0297
     29  CG        -2.6530  -46.7330  -24.5270 C.3    25  LEU25       0.0022
     30  CD1       -1.6610  -46.5820  -25.6740 C.3    25  LEU25       0.0001
     31  CD2       -2.4600  -48.0660  -23.8150 C.3    25  LEU25       0.0001
     32  N         -6.7030  -45.6720  -19.2230 N.3    28  LEU28      -0.1245
     33  CA        -6.7350  -47.1120  -18.9540 C.3    28  LEU28       0.1561
     34  C         -5.6500  -47.5980  -17.9730 C.2    28  LEU28       0.2260
     35  O         -5.9020  -48.4900  -17.1680 O.2    28  LEU28      -0.2867
     36  CB        -6.6580  -47.9100  -20.2610 C.3    28  LEU28       0.0270
     37  CG        -7.8800  -47.8230  -21.1710 C.3    28  LEU28       0.0019
     38  CD1       -7.6630  -48.6180  -22.4590 C.3    28  LEU28       0.0001
     39  CD2       -9.1210  -48.3120  -20.4410 C.3    28  LEU28       0.0001
     40  N        -10.9010  -43.1000  -27.2970 N.3    50  PHE50      -0.1241
     41  CA       -10.7420  -44.2770  -28.1360 C.3    50  PHE50       0.1605
     42  C        -11.5460  -44.0860  -29.4170 C.2    50  PHE50       0.2264
     43  O        -11.0390  -44.3000  -30.5320 O.2    50  PHE50      -0.2867
     44  CB       -11.1820  -45.5250  -27.3730 C.3    50  PHE50       0.0534
     45  CG       -11.2420  -46.7610  -28.2100 C.ar   50  PHE50      -0.0203
     46  CD1      -10.0770  -47.3710  -28.6610 C.ar   50  PHE50      -0.0042
     47  CD2      -12.4670  -47.3240  -28.5390 C.ar   50  PHE50      -0.0042
     48  CE1      -10.1370  -48.5240  -29.4380 C.ar   50  PHE50      -0.0003
     49  CE2      -12.5340  -48.4760  -29.3080 C.ar   50  PHE50      -0.0003
     50  CZ       -11.3730  -49.0790  -29.7560 C.ar   50  PHE50      -0.0000
     51  N        -10.0260  -41.6260  -31.5900 N.3    53  ALA53      -0.1231
     52  CA        -8.8090  -42.1660  -32.2270 C.3    53  ALA53       0.1694
     53  C         -9.1610  -42.8690  -33.5340 C.2    53  ALA53       0.2591
     54  O         -8.5010  -42.6720  -34.5600 O.2    53  ALA53      -0.2718
     55  CB        -8.0680  -43.1290  -31.2840 C.3    53  ALA53       0.0304
     56  N        -10.2060  -43.6950  -33.4860 N.am   54  ILE54      -0.1980
     57  CA       -10.6560  -44.4060  -34.6700 C.3    54  ILE54       0.1595
     58  C        -11.1030  -43.4210  -35.7420 C.2    54  ILE54       0.2287
     59  O        -10.8090  -43.6020  -36.9240 O.2    54  ILE54      -0.2864
     60  CB       -11.8160  -45.3500  -34.3380 C.3    54  ILE54       0.0276
     61  CG1      -11.3150  -46.5190  -33.4790 C.3    54  ILE54       0.0022
     62  CG2      -12.4530  -45.8740  -35.6230 C.3    54  ILE54       0.0022
     63  CD1      -12.4750  -47.3350  -32.8500 C.3    54  ILE54       0.0001
     64  N         -7.9160  -41.8980  -37.2020 N.3    57  TYR57      -0.1227
     65  CA        -7.2730  -42.9080  -38.0480 C.3    57  TYR57       0.1736
     66  C         -7.8800  -42.9330  -39.4490 C.2    57  TYR57       0.2595
     67  O         -7.1550  -42.9450  -40.4440 O.2    57  TYR57      -0.2718
     68  CB        -7.3840  -44.3040  -37.4180 C.3    57  TYR57       0.0548
     69  CG        -6.7850  -45.4040  -38.2640 C.ar   57  TYR57      -0.0200
     70  CD1       -5.4290  -45.7130  -38.1770 C.ar   57  TYR57      -0.0009
     71  CD2       -7.5700  -46.1360  -39.1480 C.ar   57  TYR57      -0.0009
     72  CE1       -4.8700  -46.7190  -38.9570 C.ar   57  TYR57       0.0417
     73  CE2       -7.0250  -47.1430  -39.9270 C.ar   57  TYR57       0.0417
     74  CZ        -5.6730  -47.4300  -39.8240 C.ar   57  TYR57       0.1957
     75  OH        -5.1270  -48.4300  -40.5920 O.3    57  TYR57      -0.2866
     76  N         -9.2100  -42.9260  -39.5350 N.am   58  PHE58      -0.1976
     77  CA        -9.8570  -43.0560  -40.8440 C.3    58  PHE58       0.1639
     78  C         -9.8790  -41.7700  -41.6750 C.2    58  PHE58       0.2290
     79  O        -10.0660  -41.8190  -42.8960 O.2    58  PHE58      -0.2864
     80  CB       -11.2400  -43.7180  -40.7230 C.3    58  PHE58       0.0560
     81  CG       -11.1610  -45.1810  -40.3920 C.ar   58  PHE58      -0.0200
     82  CD1      -10.5860  -46.0780  -41.2920 C.ar   58  PHE58      -0.0042
     83  CD2      -11.6360  -45.6640  -39.1830 C.ar   58  PHE58      -0.0042
     84  CE1      -10.4970  -47.4380  -40.9930 C.ar   58  PHE58      -0.0003
     85  CE2      -11.5490  -47.0220  -38.8750 C.ar   58  PHE58      -0.0003
     86  CZ       -10.9790  -47.9050  -39.7760 C.ar   58  PHE58      -0.0000
@<TRIPOS>BOND
     1    79    78    2
     2    78    77    1
     3    82    84   ar
     4    82    81   ar
     5    84    86   ar
     6    77    80    1
     7    77    76    1
     8    80    81    1
     9    75    74    1
    10    67    66    2
    11    81    83   ar
    12    73    74   ar
    13    73    71   ar
    14    74    72   ar
    15    86    85   ar
    16    76    66   am
    17    66    65    1
    18    83    85   ar
    19    71    69   ar
    20    72    70   ar
    21    69    70   ar
    22    69    68    1
    23    65    68    1
    24    65    64    1
    25    59    58    2
    26    58    57    1
    27    62    60    1
    28     5     6    1
    29     5     2    1
    30    57    60    1
    31    57    56    1
    32     6     7   ar
    33     6     8   ar
    34    54    53    2
    35     7     9   ar
    36     8    10   ar
    37    60    61    1
    38     9    11   ar
    39    10    11   ar
    40     1     2    1
    41     2     3    1
    42    53    56   am
    43    53    52    1
    44    61    63    1
    45     3     4    2
    46    52    51    1
    47    52    55    1
    48    43    42    2
    49    50    48   ar
    50    50    49   ar
    51    16    13    1
    52    48    46   ar
    53    42    41    1
    54    49    47   ar
    55    12    13    1
    56    46    45   ar
    57    13    14    1
    58    47    45   ar
    59    45    44    1
    60    41    44    1
    61    41    40    1
    62    14    15    2
    63    22    21    1
    64    30    29    1
    65    21    23    1
    66    21    18    1
    67    29    31    1
    68    29    28    1
    69    17    18    1
    70    18    19    1
    71    24    19   am
    72    24    25    1
    73    28    25    1
    74    19    20    2
    75    25    26    1
    76    38    37    1
    77    26    27    2
    78    37    39    1
    79    37    36    1
    80    36    33    1
    81    32    33    1
    82    33    34    1
    83    34    35    2
