@<TRIPOS>MOLECULE
tmp/4hyjA08.pdb
 106 102 0 0 0
SMALL
GASTEIGER

@<TRIPOS>ATOM
      1  N        -13.0170  -44.3990  -23.2690 N.3    47  LEU47      -0.1245
      2  CA       -13.8660  -44.8470  -24.3730 C.3    47  LEU47       0.1561
      3  C        -14.0390  -43.7120  -25.3880 C.2    47  LEU47       0.2260
      4  O        -14.0350  -43.9330  -26.6030 O.2    47  LEU47      -0.2867
      5  CB       -15.2340  -45.2980  -23.8440 C.3    47  LEU47       0.0270
      6  CG       -16.2340  -45.7380  -24.9230 C.3    47  LEU47       0.0019
      7  CD1      -15.6140  -46.8130  -25.7860 C.3    47  LEU47       0.0001
      8  CD2      -17.5470  -46.2270  -24.3130 C.3    47  LEU47       0.0001
      9  N        -10.9010  -43.1000  -27.2970 N.3    50  PHE50      -0.1227
     10  CA       -10.7420  -44.2770  -28.1360 C.3    50  PHE50       0.1736
     11  C        -11.5460  -44.0860  -29.4170 C.2    50  PHE50       0.2595
     12  O        -11.0390  -44.3000  -30.5320 O.2    50  PHE50      -0.2718
     13  CB       -11.1820  -45.5250  -27.3730 C.3    50  PHE50       0.0547
     14  CG       -11.2420  -46.7610  -28.2100 C.ar   50  PHE50      -0.0202
     15  CD1      -10.0770  -47.3710  -28.6610 C.ar   50  PHE50      -0.0042
     16  CD2      -12.4670  -47.3240  -28.5390 C.ar   50  PHE50      -0.0042
     17  CE1      -10.1370  -48.5240  -29.4380 C.ar   50  PHE50      -0.0003
     18  CE2      -12.5340  -48.4760  -29.3080 C.ar   50  PHE50      -0.0003
     19  CZ       -11.3730  -49.0790  -29.7560 C.ar   50  PHE50      -0.0000
     20  N        -12.7870  -43.6370  -29.2580 N.am   51  VAL51      -0.1980
     21  CA       -13.6490  -43.3990  -30.4060 C.3    51  VAL51       0.1595
     22  C        -13.0540  -42.3190  -31.2890 C.2    51  VAL51       0.2287
     23  O        -12.9840  -42.4770  -32.5160 O.2    51  VAL51      -0.2864
     24  CB       -15.0960  -43.0300  -29.9660 C.3    51  VAL51       0.0276
     25  CG1      -15.9260  -42.5360  -31.1520 C.3    51  VAL51       0.0022
     26  CG2      -15.7590  -44.2350  -29.3240 C.3    51  VAL51       0.0022
     27  N        -10.2060  -43.6950  -33.4860 N.3    54  ILE54      -0.1231
     28  CA       -10.6560  -44.4060  -34.6700 C.3    54  ILE54       0.1692
     29  C        -11.1030  -43.4210  -35.7420 C.2    54  ILE54       0.2592
     30  O        -10.8090  -43.6020  -36.9240 O.2    54  ILE54      -0.2718
     31  CB       -11.8160  -45.3500  -34.3380 C.3    54  ILE54       0.0266
     32  CG1      -11.3150  -46.5190  -33.4790 C.3    54  ILE54       0.0019
     33  CG2      -12.4530  -45.8740  -35.6230 C.3    54  ILE54       0.0020
     34  CD1      -12.4750  -47.3350  -32.8500 C.3    54  ILE54       0.0001
     35  N        -11.8140  -42.3780  -35.3120 N.am   55  HIS55      -0.1976
     36  CA       -12.2210  -41.3070  -36.2040 C.3    55  HIS55       0.1656
     37  C        -10.9850  -40.7240  -36.8970 C.2    55  HIS55       0.2291
     38  O        -10.9180  -40.6860  -38.1370 O.2    55  HIS55      -0.2864
     39  CB       -13.0490  -40.2650  -35.4140 C.3    55  HIS55       0.0771
     40  CG       -13.1130  -38.9010  -36.0300 C.ar   55  HIS55       0.0820
     41  ND1      -13.5120  -37.7960  -35.3100 N.ar   55  HIS55      -0.2267
     42  CD2      -12.8650  -38.4610  -37.2880 C.ar   55  HIS55       0.1154
     43  CE1      -13.4850  -36.7280  -36.0940 C.ar   55  HIS55       0.1986
     44  NE2      -13.1000  -37.1090  -37.2980 N.ar   55  HIS55      -0.2212
     45  N         -9.2100  -42.9260  -39.5350 N.3    58  PHE58      -0.1241
     46  CA        -9.8570  -43.0560  -40.8440 C.3    58  PHE58       0.1605
     47  C         -9.8790  -41.7700  -41.6750 C.2    58  PHE58       0.2264
     48  O        -10.0660  -41.8190  -42.8960 O.2    58  PHE58      -0.2867
     49  CB       -11.2400  -43.7180  -40.7230 C.3    58  PHE58       0.0534
     50  CG       -11.1610  -45.1810  -40.3920 C.ar   58  PHE58      -0.0203
     51  CD1      -10.5860  -46.0780  -41.2920 C.ar   58  PHE58      -0.0042
     52  CD2      -11.6360  -45.6640  -39.1830 C.ar   58  PHE58      -0.0042
     53  CE1      -10.4970  -47.4380  -40.9930 C.ar   58  PHE58      -0.0003
     54  CE2      -11.5490  -47.0220  -38.8750 C.ar   58  PHE58      -0.0003
     55  CZ       -10.9790  -47.9050  -39.7760 C.ar   58  PHE58      -0.0000
     56  N        -15.7870  -39.9620  -46.7640 N.3    75  PHE75      -0.1241
     57  CA       -16.9890  -39.4950  -46.0900 C.3    75  PHE75       0.1605
     58  C        -16.6160  -38.8740  -44.7360 C.2    75  PHE75       0.2264
     59  O        -17.0240  -39.3670  -43.6770 O.2    75  PHE75      -0.2867
     60  CB       -17.9800  -40.6660  -45.9730 C.3    75  PHE75       0.0534
     61  CG       -18.2520  -41.3400  -47.2990 C.ar   75  PHE75      -0.0203
     62  CD1      -19.2610  -40.8740  -48.1370 C.ar   75  PHE75      -0.0042
     63  CD2      -17.4680  -42.4090  -47.7300 C.ar   75  PHE75      -0.0042
     64  CE1      -19.5000  -41.4710  -49.3700 C.ar   75  PHE75      -0.0003
     65  CE2      -17.7000  -43.0130  -48.9600 C.ar   75  PHE75      -0.0003
     66  CZ       -18.7180  -42.5450  -49.7810 C.ar   75  PHE75      -0.0000
     67  N        -19.6010  -37.8530  -42.3270 N.3    78  GLU78      -0.1231
     68  CA       -20.1870  -38.9940  -41.6000 C.3    78  GLU78       0.1699
     69  C        -19.2530  -39.4800  -40.5020 C.2    78  GLU78       0.2592
     70  O        -19.6920  -39.7870  -39.3900 O.2    78  GLU78      -0.2718
     71  CB       -20.4600  -40.1470  -42.5590 C.3    78  GLU78       0.0402
     72  CG       -21.7210  -40.0000  -43.3620 C.3    78  GLU78       0.1161
     73  CD       -21.6070  -38.9300  -44.4100 C.2    78  GLU78       0.3649
     74  OE1      -22.6580  -38.3630  -44.7730 O.co2  78  GLU78      -0.2457
     75  OE2      -20.4700  -38.6540  -44.8750 O.co2  78  GLU78      -0.2457
     76  N        -17.9600  -39.5530  -40.8190 N.am   79  ILE79      -0.1980
     77  CA       -16.9860  -40.0500  -39.8590 C.3    79  ILE79       0.1595
     78  C        -17.0300  -39.1730  -38.6080 C.2    79  ILE79       0.2287
     79  O        -17.0980  -39.6700  -37.4830 O.2    79  ILE79      -0.2864
     80  CB       -15.5650  -40.0520  -40.4670 C.3    79  ILE79       0.0276
     81  CG1      -15.4760  -41.1000  -41.5830 C.3    79  ILE79       0.0022
     82  CG2      -14.5280  -40.3550  -39.4080 C.3    79  ILE79       0.0022
     83  CD1      -14.1260  -41.1100  -42.3040 C.3    79  ILE79       0.0001
     84  N        -20.5610  -39.4510  -36.6140 N.3    82  ILE82      -0.1231
     85  CA       -20.7200  -40.7190  -35.9020 C.3    82  ILE82       0.1692
     86  C        -19.8800  -40.6680  -34.6270 C.2    82  ILE82       0.2592
     87  O        -20.3320  -41.0910  -33.5590 O.2    82  ILE82      -0.2718
     88  CB       -20.3480  -41.9310  -36.8110 C.3    82  ILE82       0.0266
     89  CG1      -21.4070  -42.0920  -37.9190 C.3    82  ILE82       0.0019
     90  CG2      -20.2180  -43.2160  -35.9910 C.3    82  ILE82       0.0020
     91  CD1      -20.9780  -43.0030  -39.0910 C.3    82  ILE82       0.0001
     92  N        -18.6730  -40.1080  -34.7310 N.am   83  ASP83      -0.1974
     93  CA       -17.8530  -39.8260  -33.5520 C.3    83  ASP83       0.1709
     94  C        -18.6480  -38.9410  -32.5860 C.2    83  ASP83       0.2293
     95  O        -18.8930  -39.3350  -31.4330 O.2    83  ASP83      -0.2864
     96  CB       -16.5250  -39.1640  -33.9760 C.3    83  ASP83       0.1436
     97  CG       -15.7250  -38.5970  -32.7970 C.2    83  ASP83       0.3671
     98  OD1      -14.5180  -38.2940  -32.9900 O.co2  83  ASP83      -0.2456
     99  OD2      -16.2810  -38.4330  -31.6800 O.co2  83  ASP83      -0.2456
    100  N        -21.6100  -40.4680  -30.6520 N.3    86  VAL86      -0.1245
    101  CA       -21.2530  -41.3340  -29.5410 C.3    86  VAL86       0.1561
    102  C        -20.5820  -40.5570  -28.4210 C.2    86  VAL86       0.2260
    103  O        -20.9390  -40.7210  -27.2560 O.2    86  VAL86      -0.2867
    104  CB       -20.3020  -42.4570  -29.9950 C.3    86  VAL86       0.0252
    105  CG1      -19.8120  -43.2400  -28.8040 C.3    86  VAL86       0.0019
    106  CG2      -21.0030  -43.3540  -30.9930 C.3    86  VAL86       0.0019
@<TRIPOS>BOND
     1    66    64   ar
     2    66    65   ar
     3    64    62   ar
     4    65    63   ar
     5    62    61   ar
     6    63    61   ar
     7    61    60    1
     8    56    57    1
     9    57    60    1
    10    57    58    1
    11    75    73   ar
    12    74    73   ar
    13    58    59    2
    14    73    72    1
    15    72    71    1
    16    48    47    2
    17    71    68    1
    18    67    68    1
    19    83    81    1
    20    47    46    1
    21    68    69    1
    22    81    80    1
    23    51    53   ar
    24    51    50   ar
    25    53    55   ar
    26    46    49    1
    27    46    45    1
    28    76    69   am
    29    76    77    1
    30    49    50    1
    31    69    70    2
    32    80    77    1
    33    80    82    1
    34    50    52   ar
    35    77    78    1
    36    55    54   ar
    37    52    54   ar
    38    91    89    1
    39    78    79    2
    40    38    37    2
    41    89    88    1
    42    44    42   ar
    43    44    43   ar
    44    42    40   ar
    45    30    29    2
    46    37    36    1
    47    88    90    1
    48    88    85    1
    49    84    85    1
    50    36    39    1
    51    36    35    1
    52    43    41   ar
    53    40    39    1
    54    40    41   ar
    55    85    86    1
    56    29    35   am
    57    29    28    1
    58    33    31    1
    59    92    86   am
    60    92    93    1
    61    28    31    1
    62    28    27    1
    63    86    87    2
    64    31    32    1
    65    96    93    1
    66    96    97    1
    67    93    94    1
    68    32    34    1
    69    98    97   ar
    70    97    99   ar
    71    94    95    2
    72    23    22    2
    73    22    21    1
    74    25    24    1
    75   106   104    1
    76   100   101    1
    77    12    11    2
    78    21    24    1
    79    21    20    1
    80   104   101    1
    81   104   105    1
    82    24    26    1
    83    19    17   ar
    84    19    18   ar
    85   101   102    1
    86    17    15   ar
    87    11    20   am
    88    11    10    1
    89    18    16   ar
    90    15    14   ar
    91    16    14   ar
    92   102   103    2
    93    14    13    1
    94    10    13    1
    95    10     9    1
    96     4     3    2
    97     7     6    1
    98     3     2    1
    99     6     8    1
   100     6     5    1
   101     2     5    1
   102     2     1    1
