@<TRIPOS>MOLECULE
tmp/4hyjA10.pdb
 76 70 0 0 0
SMALL
GASTEIGER

@<TRIPOS>ATOM
      1  N        -15.2660  -26.4730  -13.3620 N.3   177  LYS177     -0.1245
      2  CA       -14.3210  -26.2610  -14.4600 C.3   177  LYS177      0.1561
      3  C        -14.8880  -26.8680  -15.7390 C.2   177  LYS177      0.2260
      4  O        -14.8440  -26.2560  -16.8140 O.2   177  LYS177     -0.2867
      5  CB       -12.9750  -26.9200  -14.1530 C.3   177  LYS177      0.0271
      6  CG       -12.1580  -26.2430  -13.0710 C.3   177  LYS177      0.0035
      7  CD       -11.0020  -27.1370  -12.6350 C.3   177  LYS177      0.0206
      8  CE       -10.1700  -26.4790  -11.5500 C.3   177  LYS177      0.1093
      9  NZ        -9.0810  -27.3710  -11.0730 N.3   177  LYS177     -0.1314
     10  N        -17.1290  -25.0370  -18.2880 N.3   180  LEU180     -0.1231
     11  CA       -16.5380  -24.0740  -19.2130 C.3   180  LEU180      0.1693
     12  C        -16.1020  -24.7310  -20.5160 C.2   180  LEU180      0.2592
     13  O        -16.0010  -24.0620  -21.5530 O.2   180  LEU180     -0.2718
     14  CB       -15.3410  -23.3760  -18.5650 C.3   180  LEU180      0.0284
     15  CG       -15.6350  -22.6170  -17.2670 C.3   180  LEU180      0.0019
     16  CD1      -14.3310  -22.2730  -16.5530 C.3   180  LEU180      0.0001
     17  CD2      -16.4520  -21.3660  -17.5310 C.3   180  LEU180      0.0001
     18  N        -15.8270  -26.0340  -20.4630 N.am  181  PHE181     -0.1976
     19  CA       -15.5230  -26.7700  -21.6830 C.3   181  PHE181      0.1639
     20  C        -16.7390  -26.7320  -22.5960 C.2   181  PHE181      0.2290
     21  O        -16.6210  -26.3870  -23.7790 O.2   181  PHE181     -0.2864
     22  CB       -15.1160  -28.2110  -21.3780 C.3   181  PHE181      0.0560
     23  CG       -13.6930  -28.3500  -20.9090 C.ar  181  PHE181     -0.0200
     24  CD1      -12.6800  -28.6940  -21.8040 C.ar  181  PHE181     -0.0042
     25  CD2      -13.3590  -28.1350  -19.5780 C.ar  181  PHE181     -0.0042
     26  CE1      -11.3670  -28.8290  -21.3730 C.ar  181  PHE181     -0.0003
     27  CE2      -12.0440  -28.2710  -19.1480 C.ar  181  PHE181     -0.0003
     28  CZ       -11.0490  -28.6170  -20.0460 C.ar  181  PHE181     -0.0000
     29  N        -17.2720  -22.7960  -23.5600 N.3   184  ILE184     -0.1231
     30  CA       -16.2470  -22.1610  -24.3970 C.3   184  ILE184      0.1692
     31  C        -15.6350  -23.1370  -25.4020 C.2   184  ILE184      0.2592
     32  O        -15.5940  -22.8560  -26.6030 O.2   184  ILE184     -0.2718
     33  CB       -15.1080  -21.5410  -23.5470 C.3   184  ILE184      0.0266
     34  CG1      -15.6770  -20.5350  -22.5420 C.3   184  ILE184      0.0019
     35  CG2      -14.0660  -20.8760  -24.4440 C.3   184  ILE184      0.0020
     36  CD1      -14.6610  -20.0330  -21.5310 C.3   184  ILE184      0.0001
     37  N        -15.1470  -24.2730  -24.9040 N.am  185  GLY185     -0.1957
     38  CA       -14.5540  -25.2880  -25.7600 C.3   185  GLY185      0.1869
     39  C        -15.4830  -25.7640  -26.8600 C.2   185  GLY185      0.2309
     40  O        -15.0790  -25.8300  -28.0220 O.2   185  GLY185     -0.2863
     41  N        -17.9400  -24.2320  -28.1380 N.3   187  ALA187     -0.1231
     42  CA       -18.3560  -23.1270  -29.0080 C.3   187  ALA187      0.1694
     43  C        -17.6480  -23.1940  -30.3560 C.2   187  ALA187      0.2591
     44  O        -18.1570  -22.7150  -31.3700 O.2   187  ALA187     -0.2718
     45  CB       -18.0850  -21.7930  -28.3430 C.3   187  ALA187      0.0304
     46  N        -16.4730  -23.8080  -30.3650 N.am  188  ILE188     -0.1980
     47  CA       -15.6820  -23.8870  -31.5850 C.3   188  ILE188      0.1595
     48  C        -16.4550  -24.5470  -32.7360 C.2   188  ILE188      0.2287
     49  O        -16.4230  -24.0610  -33.8800 O.2   188  ILE188     -0.2864
     50  CB       -14.3430  -24.6150  -31.3040 C.3   188  ILE188      0.0276
     51  CG1      -13.5080  -23.7670  -30.3340 C.3   188  ILE188      0.0022
     52  CG2      -13.5840  -24.8490  -32.5850 C.3   188  ILE188      0.0022
     53  CD1      -12.3840  -24.5110  -29.6680 C.3   188  ILE188      0.0001
     54  N        -19.2420  -22.4560  -34.3640 N.3   191  ILE191     -0.1245
     55  CA       -18.5590  -21.3640  -35.0730 C.3   191  ILE191      0.1561
     56  C        -18.0440  -21.8690  -36.4240 C.2   191  ILE191      0.2260
     57  O        -18.2810  -21.2410  -37.4660 O.2   191  ILE191     -0.2867
     58  CB       -17.3980  -20.7510  -34.2480 C.3   191  ILE191      0.0252
     59  CG1      -17.9480  -20.0620  -33.0000 C.3   191  ILE191      0.0019
     60  CG2      -16.6170  -19.7180  -35.0730 C.3   191  ILE191      0.0019
     61  CD1      -16.8670  -19.6050  -32.0310 C.3   191  ILE191      0.0001
     62  N         -8.6410  -30.8860  -26.6450 N.3   218  THR218     -0.1218
     63  CA        -9.0360  -30.1710  -25.4440 C.3   218  THR218      0.1862
     64  C        -10.3010  -30.7400  -24.8270 C.2   218  THR218      0.2287
     65  O        -10.3640  -30.9680  -23.6140 O.2   218  THR218     -0.2866
     66  CB        -9.3290  -28.7030  -25.7880 C.3   218  THR218      0.1770
     67  OG1       -8.1810  -28.1330  -26.4160 O.3   218  THR218     -0.2211
     68  CG2       -9.7210  -27.8990  -24.5410 C.3   218  THR218      0.0375
     69  N         -9.3840  -33.3590  -16.2500 N.3   226  ILE226     -0.1245
     70  CA       -10.0200  -32.5950  -15.1790 C.3   226  ILE226      0.1561
     71  C        -10.7840  -33.5110  -14.2210 C.2   226  ILE226      0.2260
     72  O        -10.5350  -33.5030  -13.0140 O.2   226  ILE226     -0.2867
     73  CB       -10.9920  -31.5230  -15.7450 C.3   226  ILE226      0.0252
     74  CG1      -10.2430  -30.4950  -16.6020 C.3   226  ILE226      0.0019
     75  CG2      -11.7480  -30.8160  -14.6260 C.3   226  ILE226      0.0019
     76  CD1       -9.2370  -29.6690  -15.8440 C.3   226  ILE226      0.0001
@<TRIPOS>BOND
     1    57    56    2
     2    56    55    1
     3    60    58    1
     4    55    54    1
     5    55    58    1
     6    58    59    1
     7    49    48    2
     8    59    61    1
     9    48    47    1
    10    52    50    1
    11    47    50    1
    12    47    46    1
    13    44    43    2
    14    50    51    1
    15    46    43   am
    16    43    42    1
    17    51    53    1
    18    42    45    1
    19    42    41    1
    20    40    39    2
    21    39    38    1
    22    62    63    1
    23    32    31    2
    24    67    66    1
    25    66    63    1
    26    66    68    1
    27    38    37    1
    28    63    64    1
    29    31    37   am
    30    31    30    1
    31    64    65    2
    32    35    33    1
    33    30    29    1
    34    30    33    1
    35    21    20    2
    36    33    34    1
    37    20    19    1
    38    34    36    1
    39    24    26   ar
    40    24    23   ar
    41    19    22    1
    42    19    18    1
    43    13    12    2
    44    22    23    1
    45    26    28   ar
    46    23    25   ar
    47    12    18   am
    48    12    11    1
    49    28    27   ar
    50    25    27   ar
    51    11    14    1
    52    11    10    1
    53    14    15    1
    54    17    15    1
    55    15    16    1
    56     4     3    2
    57    74    76    1
    58    74    73    1
    59    69    70    1
    60    73    70    1
    61    73    75    1
    62     3     2    1
    63    70    71    1
    64     2     5    1
    65     2     1    1
    66    71    72    2
    67     5     6    1
    68     6     7    1
    69     7     8    1
    70     8     9    1
