@<TRIPOS>MOLECULE
tmp/4hymA00.pdb
 125 115 0 0 0
SMALL
GASTEIGER

@<TRIPOS>ATOM
      1  N         13.0060    2.9850    0.6090 N.3    32  ILE32      -0.1245
      2  CA        13.2730    3.4170   -0.7450 C.3    32  ILE32       0.1561
      3  C         14.1370    2.3890   -1.4780 C.2    32  ILE32       0.2260
      4  O         13.9110    2.1100   -2.6760 O.2    32  ILE32      -0.2867
      5  CB        13.9780    4.7970   -0.8110 C.3    32  ILE32       0.0252
      6  CG1       13.1420    5.8700   -0.1000 C.3    32  ILE32       0.0019
      7  CG2       14.2520    5.1970   -2.2590 C.3    32  ILE32       0.0019
      8  CD1       11.7790    6.1530   -0.6900 C.3    32  ILE32       0.0001
      9  N         12.1670   -0.5790   -2.7750 N.3    35  ASN35      -0.1225
     10  CA        11.4400   -0.2600   -4.0050 C.3    35  ASN35       0.1785
     11  C         12.3550   -0.3240   -5.2460 C.2    35  ASN35       0.2597
     12  O         11.9350   -0.8180   -6.3060 O.2    35  ASN35      -0.2718
     13  CB        10.7130    1.0690   -3.7960 C.3    35  ASN35       0.1169
     14  CG         9.4310    0.8620   -2.9570 C.2    35  ASN35       0.2627
     15  OD1        8.3530    0.5940   -3.5190 O.2    35  ASN35      -0.2716
     16  ND2        9.5610    0.8780   -1.5980 N.am   35  ASN35      -0.0877
     17  N         13.6140    0.1200   -5.1110 N.am   36  SER36      -0.1952
     18  CA        14.5740   -0.0750   -6.2280 C.3    36  SER36       0.1924
     19  C         14.8780   -1.5660   -6.4270 C.2    36  SER36       0.2314
     20  O         15.0030   -2.0320   -7.5700 O.2    36  SER36      -0.2863
     21  CB        15.8910    0.6650   -6.0090 C.3    36  SER36       0.2116
     22  OG        15.6660    2.0640   -5.9270 O.3    36  SER36      -0.2180
     23  N         12.9710   -4.0460   -5.9830 N.3    38  ASP38      -0.1225
     24  CA        11.9060   -4.6870   -6.7250 C.3    38  ASP38       0.1805
     25  C         12.1470   -4.5630   -8.2550 C.2    38  ASP38       0.2597
     26  O         11.8810   -5.5110   -8.9770 O.2    38  ASP38      -0.2718
     27  CB        10.5420   -4.1360   -6.2900 C.3    38  ASP38       0.1424
     28  CG         9.3970   -4.9490   -6.8400 C.2    38  ASP38       0.3668
     29  OD1        9.1390   -6.0710   -6.3290 O.co2  38  ASP38      -0.2456
     30  OD2        8.7730   -4.4790   -7.8130 O.co2  38  ASP38      -0.2456
     31  N         12.6390   -3.4200   -8.7480 N.am   39  GLU39      -0.1979
     32  CA        13.0890   -3.3580  -10.1670 C.3    39  GLU39       0.1602
     33  C         14.2180   -4.3410  -10.5240 C.2    39  GLU39       0.2287
     34  O         14.2010   -4.9070  -11.6040 O.2    39  GLU39      -0.2864
     35  CB        13.5060   -1.9470  -10.5910 C.3    39  GLU39       0.0415
     36  CG        12.3650   -1.0400  -10.9430 C.3    39  GLU39       0.1163
     37  CD        11.5630   -1.5260  -12.1340 C.2    39  GLU39       0.3649
     38  OE1       11.9660   -1.2710  -13.2880 O.co2  39  GLU39      -0.2457
     39  OE2       10.5240   -2.1800  -11.8930 O.co2  39  GLU39      -0.2457
     40  N         18.6740    8.0270   -3.1860 N.3    60  VAL60      -0.1245
     41  CA        18.7930    6.6500   -3.6910 C.3    60  VAL60       0.1561
     42  C         18.4800    6.6970   -5.1920 C.2    60  VAL60       0.2260
     43  O         17.4270    7.1980   -5.5900 O.2    60  VAL60      -0.2867
     44  CB        17.8050    5.7150   -2.9960 C.3    60  VAL60       0.0252
     45  CG1       17.9120    4.2830   -3.5910 C.3    60  VAL60       0.0019
     46  CG2       18.0430    5.6850   -1.4690 C.3    60  VAL60       0.0019
     47  N         18.4480    4.4230   -9.0190 N.3    62  ASP62      -0.1239
     48  CA        18.5670    3.1390   -9.6910 C.3    62  ASP62       0.1674
     49  C         18.5210    3.3230  -11.2060 C.2    62  ASP62       0.2266
     50  O         18.2280    4.4340  -11.6830 O.2    62  ASP62      -0.2867
     51  CB        17.5310    2.1620   -9.1770 C.3    62  ASP62       0.1410
     52  CG        16.1020    2.5310   -9.5400 C.2    62  ASP62       0.3668
     53  OD1       15.7830    2.6660  -10.7310 O.co2  62  ASP62      -0.2456
     54  OD2       15.2500    2.6220   -8.6410 O.co2  62  ASP62      -0.2456
     55  N         13.2480    0.8820  -14.7230 N.3    65  ARG65      -0.1231
     56  CA        12.4310    1.3610  -15.8380 C.3    65  ARG65       0.1694
     57  C         12.0260    2.8230  -15.6750 C.2    65  ARG65       0.2593
     58  O         11.6290    3.4650  -16.6500 O.2    65  ARG65      -0.2718
     59  CB        11.1820    0.4970  -15.9740 C.3    65  ARG65       0.0321
     60  CG        11.4400   -0.8180  -16.6910 C.3    65  ARG65       0.0489
     61  CD        10.2250   -1.7370  -16.5780 C.3    65  ARG65       0.2205
     62  NE        10.0130   -2.1950  -15.2070 N.pl3  65  ARG65      -0.0865
     63  CZ         8.9980   -2.9640  -14.8130 C.cat  65  ARG65       0.5346
     64  NH1        8.0600   -3.3600  -15.6870 N.pl3  65  ARG65       0.1354
     65  NH2        8.9010   -3.3230  -13.5390 N.pl3  65  ARG65       0.1354
     66  N         12.0960    3.3200  -14.4420 N.am   66  GLY66      -0.1942
     67  CA        11.6170    4.6730  -14.1070 C.3    66  GLY66       0.2014
     68  C         10.1810    4.5680  -13.6140 C.2    66  GLY66       0.2639
     69  O          9.3270    3.9550  -14.2860 O.2    66  GLY66      -0.2714
     70  N          9.9070    5.1120  -12.4330 N.am   67  MET67      -0.1963
     71  CA         8.5610    5.0690  -11.8810 C.3    67  MET67       0.1722
     72  C          7.5330    5.6150  -12.8800 C.2    67  MET67       0.2458
     73  O          7.8500    6.5200  -13.6740 O.2    67  MET67      -0.2730
     74  CB         8.4910    5.8400  -10.5710 C.3    67  MET67       0.0427
     75  CG         9.1820    5.1020   -9.4480 C.3    67  MET67       0.0599
     76  SD         9.0810    5.8630   -7.8240 S.3    67  MET67      -0.1393
     77  CE         7.3120    5.7920   -7.4640 C.3    67  MET67       0.0692
     78  N          6.3100    5.0720  -12.8560 N.am   68  PRO68      -0.2727
     79  CA         5.3610    5.4720  -13.9170 C.3    68  PRO68       0.1402
     80  C          4.8850    6.9410  -13.7710 C.2    68  PRO68       0.2269
     81  O          4.7190    7.4520  -12.6610 O.2    68  PRO68      -0.2865
     82  CB         4.2090    4.4590  -13.7670 C.3    68  PRO68       0.0296
     83  CG         4.2740    4.0460  -12.3240 C.3    68  PRO68       0.0237
     84  CD         5.7570    3.9990  -12.0030 C.3    68  PRO68       0.0939
     85  N          1.5340    7.2530   -6.0900 N.3    83  ILE83      -0.1245
     86  CA         2.3310    6.3160   -5.2680 C.3    83  ILE83       0.1561
     87  C          2.8850    7.0630   -4.0560 C.2    83  ILE83       0.2260
     88  O          2.9050    6.5430   -2.9210 O.2    83  ILE83      -0.2867
     89  CB         3.4840    5.7550   -6.1290 C.3    83  ILE83       0.0252
     90  CG1        2.9190    4.7060   -7.1030 C.3    83  ILE83       0.0019
     91  CG2        4.5690    5.1190   -5.2420 C.3    83  ILE83       0.0019
     92  CD1        3.7920    4.4650   -8.3310 C.3    83  ILE83       0.0001
     93  N          6.3720    3.5250   -0.3170 N.3   103  VAL103     -0.1245
     94  CA         7.2440    4.6800   -0.2490 C.3   103  VAL103      0.1561
     95  C          6.5800    5.9530    0.1660 C.2   103  VAL103      0.2260
     96  O          7.2880    6.8970    0.5120 O.2   103  VAL103     -0.2867
     97  CB         7.9160    4.9640   -1.6160 C.3   103  VAL103      0.0252
     98  CG1        8.9010    3.8650   -1.8950 C.3   103  VAL103      0.0019
     99  CG2        6.8520    5.0800   -2.7260 C.3   103  VAL103      0.0019
    100  N         12.6050    8.2790  -18.2350 N.3   119  ARG119     -0.1245
    101  CA        11.7350    7.3010  -18.8760 C.3   119  ARG119      0.1563
    102  C         11.3120    7.8390  -20.2400 C.2   119  ARG119      0.2260
    103  O         11.0050    9.0210  -20.3660 O.2   119  ARG119     -0.2867
    104  CB        10.4870    7.1690  -18.0310 C.3   119  ARG119      0.0307
    105  CG         9.7480    5.8790  -18.2200 C.3   119  ARG119      0.0489
    106  CD         8.5370    5.9010  -17.3210 C.3   119  ARG119      0.2205
    107  NE         7.5630    5.0650  -17.9700 N.pl3 119  ARG119     -0.0865
    108  CZ         7.2400    3.8470  -17.5860 C.cat 119  ARG119      0.5346
    109  NH1        7.7760    3.3200  -16.4970 N.pl3 119  ARG119      0.1354
    110  NH2        6.3370    3.1800  -18.2810 N.pl3 119  ARG119      0.1354
    111  N         15.1630    5.8400  -11.6660 N.3   150  THR150     -0.1218
    112  CA        14.4850    6.6730  -10.6760 C.3   150  THR150      0.1862
    113  C         15.4980    7.1200   -9.6430 C.2   150  THR150      0.2287
    114  O         16.2930    6.3240   -9.1690 O.2   150  THR150     -0.2866
    115  CB        13.3460    5.8940   -9.9830 C.3   150  THR150      0.1770
    116  OG1       12.4560    5.3670  -10.9830 O.3   150  THR150     -0.2211
    117  CG2       12.5650    6.7990   -9.0360 C.3   150  THR150      0.0375
    118  N         15.4710    9.4160   -6.0120 N.3   152  ILE152     -0.1245
    119  CA        14.6890   10.0300   -4.9590 C.3   152  ILE152      0.1561
    120  C         15.6280   10.6000   -3.9050 C.2   152  ILE152      0.2260
    121  O         16.4880    9.9020   -3.3830 O.2   152  ILE152     -0.2867
    122  CB        13.7280    9.0140   -4.3210 C.3   152  ILE152      0.0252
    123  CG1       12.6670    8.5700   -5.3530 C.3   152  ILE152      0.0019
    124  CG2       13.0830    9.5760   -3.0430 C.3   152  ILE152      0.0019
    125  CD1       11.7990    7.4020   -4.8740 C.3   152  ILE152      0.0001
@<TRIPOS>BOND
     1   103   102    2
     2   102   101    1
     3   101   100    1
     4   101   104    1
     5   110   108    1
     6   105   104    1
     7   105   106    1
     8   107   108    2
     9   107   106    1
    10   108   109    1
    11    60    61    1
    12    60    59    1
    13    58    57    2
    14    61    62    1
    15    59    56    1
    16    56    57    1
    17    56    55    1
    18    64    63    1
    19    57    66   am
    20    62    63    2
    21    63    65    1
    22    66    67    1
    23    69    68    2
    24    67    68    1
    25    79    80    1
    26    79    82    1
    27    79    78    1
    28    80    81    2
    29    82    83    1
    30    73    72    2
    31    68    70   am
    32    38    37   ar
    33    72    78   am
    34    72    71    1
    35    78    84    1
    36    70    71    1
    37    83    84    1
    38    37    39   ar
    39    37    36    1
    40    71    74    1
    41    50    49    2
    42   111   112    1
    43    34    33    2
    44    49    48    1
    45   116   115    1
    46    36    35    1
    47    53    52   ar
    48   112   115    1
    49   112   113    1
    50    35    32    1
    51    74    75    1
    52    33    32    1
    53    32    31    1
    54   115   117    1
    55    48    51    1
    56    48    47    1
    57   113   114    2
    58    52    51    1
    59    52    54   ar
    60    75    76    1
    61    26    25    2
    62    31    25   am
    63    92    90    1
    64    25    24    1
    65    76    77    1
    66    30    28   ar
    67    20    19    2
    68    90    89    1
    69    28    29   ar
    70    28    27    1
    71    24    27    1
    72    24    23    1
    73    19    18    1
    74    12    11    2
    75    18    21    1
    76    18    17    1
    77    89    86    1
    78    89    91    1
    79    85    86    1
    80   118   119    1
    81    21    22    1
    82    43    42    2
    83   123   125    1
    84   123   122    1
    85    86    87    1
    86    11    17   am
    87    11    10    1
    88    42    41    1
    89   119   122    1
    90   119   120    1
    91   122   124    1
    92    87    88    2
    93    10    13    1
    94    10     9    1
    95   120   121    2
    96    13    14    1
    97    41    40    1
    98    41    44    1
    99    45    44    1
   100    15    14    2
   101    44    46    1
   102    14    16   am
   103    99    97    1
   104     4     3    2
   105     7     5    1
   106    98    97    1
   107    97    94    1
   108     3     2    1
   109     5     2    1
   110     5     6    1
   111     2     1    1
   112     8     6    1
   113    93    94    1
   114    94    95    1
   115    95    96    2
