@<TRIPOS>MOLECULE
tmp/4hypB00.pdb
 129 118 0 0 0
SMALL
GASTEIGER

@<TRIPOS>ATOM
      1  N         -5.8620  -29.5770   -5.1390 N.3    29  VAL29      -0.1245
      2  CA        -5.2890  -30.5860   -6.0190 C.3    29  VAL29       0.1561
      3  C         -6.4650  -31.0030   -6.9070 C.2    29  VAL29       0.2260
      4  O         -6.3740  -30.9190   -8.1340 O.2    29  VAL29      -0.2867
      5  CB        -4.6510  -31.8110   -5.2700 C.3    29  VAL29       0.0252
      6  CG1       -3.9230  -32.7070   -6.2560 C.3    29  VAL29       0.0019
      7  CG2       -3.6670  -31.3790   -4.1700 C.3    29  VAL29       0.0019
      8  N         -7.7160  -28.8860  -10.1460 N.3    32  ASN32      -0.1225
      9  CA        -7.1530  -29.0890  -11.4990 C.3    32  ASN32       0.1785
     10  C         -7.6350  -30.3190  -12.2230 C.2    32  ASN32       0.2597
     11  O         -7.5840  -30.3560  -13.4610 O.2    32  ASN32      -0.2718
     12  CB        -5.6370  -29.1120  -11.5160 C.3    32  ASN32       0.1169
     13  CG        -5.0350  -27.8950  -10.8770 C.2    32  ASN32       0.2627
     14  OD1       -5.4620  -26.7710  -11.1430 O.2    32  ASN32      -0.2716
     15  ND2       -4.0320  -28.1090  -10.0220 N.am   32  ASN32      -0.0877
     16  N         -8.0560  -31.3410  -11.4810 N.am   33  ALA33      -0.1979
     17  CA        -8.7050  -32.4680  -12.1170 C.3    33  ALA33       0.1597
     18  C        -10.1010  -32.0380  -12.6050 C.2    33  ALA33       0.2287
     19  O        -10.5150  -32.3770  -13.7100 O.2    33  ALA33      -0.2864
     20  CB        -8.7630  -33.6850  -11.2110 C.3    33  ALA33       0.0319
     21  N         -9.7330  -30.0340  -15.7000 N.3    36  GLU36      -0.1245
     22  CA        -9.3810  -30.9580  -16.7800 C.3    36  GLU36       0.1567
     23  C        -10.6050  -31.7820  -17.1390 C.2    36  GLU36       0.2260
     24  O        -10.7260  -32.2210  -18.2730 O.2    36  GLU36      -0.2867
     25  CB        -8.1790  -31.8550  -16.4000 C.3    36  GLU36       0.0388
     26  CG        -7.6610  -32.8090  -17.4810 C.3    36  GLU36       0.1160
     27  CD        -6.8770  -32.1060  -18.5920 C.2    36  GLU36       0.3649
     28  OE1       -6.9030  -30.8510  -18.6580 O.co2  36  GLU36      -0.2457
     29  OE2       -6.2240  -32.8060  -19.4010 O.co2  36  GLU36      -0.2457
     30  N         -5.2570  -38.0320   -5.5430 N.3    57  VAL57      -0.1245
     31  CA        -6.2200  -37.6090   -6.5540 C.3    57  VAL57       0.1561
     32  C         -5.6920  -38.1570   -7.8860 C.2    57  VAL57       0.2260
     33  O         -4.5340  -37.9120   -8.2550 O.2    57  VAL57      -0.2867
     34  CB        -6.4300  -36.0660   -6.5880 C.3    57  VAL57       0.0252
     35  CG1       -7.6330  -35.7500   -7.4510 C.3    57  VAL57       0.0019
     36  CG2       -6.6070  -35.4910   -5.1830 C.3    57  VAL57       0.0019
     37  N         -6.9250  -38.6270  -11.9380 N.3    59  ASP59      -0.1239
     38  CA        -7.8540  -38.3250  -13.0140 C.3    59  ASP59       0.1674
     39  C         -7.4570  -39.1060  -14.2640 C.2    59  ASP59       0.2266
     40  O         -6.3390  -39.6430  -14.3280 O.2    59  ASP59      -0.2867
     41  CB        -7.9720  -36.8150  -13.2530 C.3    59  ASP59       0.1410
     42  CG        -6.8310  -36.2340  -14.0660 C.2    59  ASP59       0.3668
     43  OD1       -6.4580  -35.0660  -13.8270 O.co2  59  ASP59      -0.2456
     44  OD2       -6.3240  -36.9020  -14.9650 O.co2  59  ASP59      -0.2456
     45  N         -5.6430  -35.7780  -19.7440 N.3    62  ARG62      -0.1231
     46  CA        -4.5430  -35.8970  -20.6850 C.3    62  ARG62       0.1694
     47  C         -3.2250  -36.1810  -19.9890 C.2    62  ARG62       0.2593
     48  O         -2.3180  -36.7210  -20.6020 O.2    62  ARG62      -0.2718
     49  CB        -4.3920  -34.6080  -21.4750 C.3    62  ARG62       0.0321
     50  CG        -5.5760  -34.2410  -22.3540 C.3    62  ARG62       0.0489
     51  CD        -5.4280  -32.8210  -22.8740 C.3    62  ARG62       0.2205
     52  NE        -5.7950  -31.8790  -21.8410 N.pl3  62  ARG62      -0.0865
     53  CZ        -5.6610  -30.5600  -21.9320 C.cat  62  ARG62       0.5346
     54  NH1       -6.0190  -29.7750  -20.9160 N.pl3  62  ARG62       0.1354
     55  NH2       -5.1600  -30.0170  -23.0320 N.pl3  62  ARG62       0.1354
     56  N         -3.1140  -35.8240  -18.7120 N.am   63  GLY63      -0.1942
     57  CA        -1.8240  -35.8430  -18.0200 C.3    63  GLY63       0.2014
     58  C         -1.1010  -34.5080  -18.1650 C.2    63  GLY63       0.2639
     59  O         -1.0700  -33.9460  -19.2430 O.2    63  GLY63      -0.2714
     60  N         -0.5520  -33.9910  -17.0690 N.am   64  ILE64      -0.1963
     61  CA         0.2090  -32.7230  -17.0560 C.3    64  ILE64       0.1712
     62  C          1.4150  -32.8850  -17.9780 C.2    64  ILE64       0.2458
     63  O          2.0720  -33.9190  -17.9330 O.2    64  ILE64      -0.2730
     64  CB         0.6740  -32.3290  -15.6140 C.3    64  ILE64       0.0289
     65  CG1       -0.5340  -32.1700  -14.6640 C.3    64  ILE64       0.0022
     66  CG2        1.5260  -31.0680  -15.6220 C.3    64  ILE64       0.0023
     67  CD1       -0.2020  -31.7250  -13.2440 C.3    64  ILE64       0.0001
     68  N          1.6830  -31.8860  -18.8440 N.am   65  PRO65      -0.2727
     69  CA         2.8090  -31.9640  -19.7810 C.3    65  PRO65       0.1402
     70  C          4.0800  -32.4880  -19.1380 C.2    65  PRO65       0.2269
     71  O          4.4230  -32.0300  -18.0540 O.2    65  PRO65      -0.2865
     72  CB         2.9900  -30.5070  -20.2170 C.3    65  PRO65       0.0296
     73  CG         1.6050  -29.9880  -20.2280 C.3    65  PRO65       0.0237
     74  CD         0.8430  -30.7050  -19.1270 C.3    65  PRO65       0.0939
     75  N          4.8370  -26.7710  -12.8160 N.3    75  ILE75      -0.1245
     76  CA         3.5440  -26.7210  -12.1200 C.3    75  ILE75       0.1561
     77  C          3.6800  -26.8510  -10.5980 C.2    75  ILE75       0.2260
     78  O          3.0310  -26.1280   -9.8300 O.2    75  ILE75      -0.2867
     79  CB         2.5780  -27.8270  -12.6490 C.3    75  ILE75       0.0252
     80  CG1        2.3870  -27.6810  -14.1670 C.3    75  ILE75       0.0019
     81  CG2        1.2340  -27.8400  -11.9230 C.3    75  ILE75       0.0019
     82  CD1        1.9230  -26.3090  -14.5690 C.3    75  ILE75       0.0001
     83  N          0.5520  -22.2790  -12.4430 N.3    82  GLY82      -0.1225
     84  CA        -0.8000  -22.7400  -12.7470 C.3    82  GLY82       0.1811
     85  C         -1.5150  -21.8990  -13.7900 C.2    82  GLY82       0.2280
     86  O         -2.4510  -22.3770  -14.4330 O.2    82  GLY82      -0.2866
     87  N         -1.7670  -22.1820  -17.9040 N.3    85  PHE85      -0.1241
     88  CA        -2.7330  -23.1840  -18.3730 C.3    85  PHE85       0.1605
     89  C         -4.1940  -22.8180  -18.0560 C.2    85  PHE85       0.2264
     90  O         -4.5750  -21.6330  -18.0120 O.2    85  PHE85      -0.2867
     91  CB        -2.3900  -24.5460  -17.7690 C.3    85  PHE85       0.0534
     92  CG        -0.9420  -24.9480  -17.9450 C.ar   85  PHE85      -0.0203
     93  CD1        0.0780  -24.2960  -17.2600 C.ar   85  PHE85      -0.0042
     94  CD2       -0.5950  -25.9850  -18.7940 C.ar   85  PHE85      -0.0042
     95  CE1        1.4110  -24.6600  -17.4420 C.ar   85  PHE85      -0.0003
     96  CE2        0.7320  -26.3710  -18.9670 C.ar   85  PHE85      -0.0003
     97  CZ         1.7370  -25.7100  -18.2830 C.ar   85  PHE85      -0.0000
     98  N         -1.3210  -26.1340   -7.3580 N.3    96  VAL96      -0.1245
     99  CA        -0.8530  -27.3330   -6.6180 C.3    96  VAL96       0.1561
    100  C          0.5150  -27.0690   -5.9500 C.2    96  VAL96       0.2260
    101  O          0.9020  -27.7710   -5.0120 O.2    96  VAL96      -0.2867
    102  CB        -0.7000  -28.6520   -7.4610 C.3    96  VAL96       0.0252
    103  CG1       -1.7730  -29.6710   -7.1350 C.3    96  VAL96       0.0019
    104  CG2       -0.5010  -28.4100   -8.9510 C.3    96  VAL96       0.0019
    105  N          1.1000  -40.1940  -19.9010 N.3   112  ARG112     -0.1245
    106  CA         0.9600  -39.4070  -21.1080 C.3   112  ARG112      0.1563
    107  C          1.9280  -40.0210  -22.1020 C.2   112  ARG112      0.2260
    108  O          2.9890  -40.5170  -21.7030 O.2   112  ARG112     -0.2867
    109  CB         1.2800  -37.9230  -20.8030 C.3   112  ARG112      0.0307
    110  CG         1.2530  -36.9880  -22.0040 C.3   112  ARG112      0.0489
    111  CD         1.8230  -35.5920  -21.7360 C.3   112  ARG112      0.2205
    112  NE         0.7430  -34.5970  -21.6590 N.pl3 112  ARG112     -0.0865
    113  CZ         0.3840  -33.7460  -22.6260 C.cat 112  ARG112      0.5346
    114  NH1       -0.6200  -32.9170  -22.3880 N.pl3 112  ARG112      0.1354
    115  NH2        1.0180  -33.6930  -23.8030 N.pl3 112  ARG112      0.1354
    116  N         -3.4850  -38.0890  -14.6910 N.3   141  THR141     -0.1218
    117  CA        -2.5910  -37.4880  -13.6810 C.3   141  THR141      0.1862
    118  C         -2.9830  -37.8640  -12.2500 C.2   141  THR141      0.2287
    119  O         -4.1660  -37.8860  -11.8850 O.2   141  THR141     -0.2866
    120  CB        -2.5430  -35.9510  -13.8360 C.3   141  THR141      0.1770
    121  OG1       -1.8180  -35.6170  -15.0240 O.3   141  THR141     -0.2211
    122  CG2       -1.8610  -35.3300  -12.6670 C.3   141  THR141      0.0375
    123  N         -1.8180  -37.2590   -8.1880 N.3   143  VAL143     -0.1245
    124  CA        -1.0250  -36.6330   -7.1660 C.3   143  VAL143      0.1561
    125  C         -1.4490  -37.2320   -5.8390 C.2   143  VAL143      0.2260
    126  O         -2.6260  -37.2610   -5.5260 O.2   143  VAL143     -0.2867
    127  CB        -1.2090  -35.1130   -7.1720 C.3   143  VAL143      0.0252
    128  CG1       -0.6540  -34.4850   -5.8990 C.3   143  VAL143      0.0019
    129  CG2       -0.5220  -34.5170   -8.3820 C.3   143  VAL143      0.0019
@<TRIPOS>BOND
     1   115   113    1
     2    55    53    1
     3    51    50    1
     4    51    52    1
     5   113   114    1
     6   113   112    2
     7    50    49    1
     8   107   108    2
     9   107   106    1
    10   110   111    1
    11   110   109    1
    12    53    52    2
    13    53    54    1
    14   111   112    1
    15    49    46    1
    16   106   109    1
    17   106   105    1
    18    46    47    1
    19    46    45    1
    20    48    47    2
    21    73    72    1
    22    73    74    1
    23    72    69    1
    24    47    56   am
    25    69    70    1
    26    69    68    1
    27    29    27   ar
    28    59    58    2
    29    70    71    2
    30    74    68    1
    31    96    94   ar
    32    96    97   ar
    33    68    62   am
    34    94    92   ar
    35    56    57    1
    36    28    27   ar
    37    27    26    1
    38    88    89    1
    39    88    87    1
    40    88    91    1
    41    97    95   ar
    42    24    23    2
    43    58    57    1
    44    58    60   am
    45    89    90    2
    46    62    63    2
    47    62    61    1
    48    92    91    1
    49    92    93   ar
    50    26    25    1
    51    95    93   ar
    52    23    22    1
    53    60    61    1
    54    61    64    1
    55    22    25    1
    56    22    21    1
    57    66    64    1
    58    64    65    1
    59   121   120    1
    60    44    42   ar
    61   116   117    1
    62    65    67    1
    63    82    80    1
    64    86    85    2
    65    40    39    2
    66    39    38    1
    67    80    79    1
    68    42    43   ar
    69    42    41    1
    70   120   117    1
    71   120   122    1
    72    85    84    1
    73    19    18    2
    74   117   118    1
    75    11    10    2
    76    41    38    1
    77    38    37    1
    78    75    76    1
    79    84    83    1
    80    79    76    1
    81    79    81    1
    82    18    17    1
    83   118   119    2
    84    10     9    1
    85    10    16   am
    86    76    77    1
    87    17    16    1
    88    17    20    1
    89    12     9    1
    90    12    13    1
    91     9     8    1
    92    14    13    2
    93    13    15   am
    94    77    78    2
    95   104   102    1
    96   129   127    1
    97    33    32    2
    98   123   124    1
    99     4     3    2
   100    32    31    1
   101   102   103    1
   102   102    99    1
   103    35    34    1
   104    98    99    1
   105   127   124    1
   106   127   128    1
   107   124   125    1
   108     3     2    1
   109    99   100    1
   110    34    31    1
   111    34    36    1
   112    31    30    1
   113     6     5    1
   114     2     5    1
   115     2     1    1
   116   100   101    2
   117   125   126    2
   118     5     7    1
