@<TRIPOS>MOLECULE
tmp/4hyqA00.pdb
 166 160 0 0 0
SMALL
GASTEIGER

@<TRIPOS>ATOM
      1  N          9.5290   31.8240   22.3850 N.3    10  ASP10      -0.1225
      2  CA         8.7360   32.8590   23.0280 C.3    10  ASP10       0.1805
      3  C          9.3810   34.2440   22.9720 C.2    10  ASP10       0.2598
      4  O         10.2240   34.5220   22.1180 O.2    10  ASP10      -0.2718
      5  CB         8.4130   32.4720   24.4870 C.3    10  ASP10       0.1424
      6  CG         9.6620   32.1550   25.3140 C.2    10  ASP10       0.3668
      7  OD1       10.7630   32.6640   24.9850 O.co2  10  ASP10      -0.2456
      8  OD2        9.5270   31.4080   26.3120 O.co2  10  ASP10      -0.2456
      9  N          8.9550   35.1070   23.8850 N.am   11  SER11      -0.1938
     10  CA         9.4230   36.4910   23.9530 C.3    11  SER11       0.2055
     11  C         10.9270   36.6680   24.1180 C.2    11  SER11       0.2643
     12  O         11.4680   37.6910   23.7090 O.2    11  SER11      -0.2714
     13  CB         8.7090   37.1990   25.1020 C.3    11  SER11       0.2130
     14  OG         8.9220   36.4920   26.3190 O.3    11  SER11      -0.2179
     15  N         11.6040   35.6950   24.7340 N.am   12  TYR12      -0.1973
     16  CA        13.0490   35.8240   24.9180 C.3    12  TYR12       0.1639
     17  C         13.7860   35.6090   23.6000 C.2    12  TYR12       0.2290
     18  O         14.9430   36.0020   23.4560 O.2    12  TYR12      -0.2864
     19  CB        13.5520   34.8650   26.0100 C.3    12  TYR12       0.0560
     20  CG        13.1370   35.3390   27.3920 C.ar   12  TYR12      -0.0198
     21  CD1       11.8140   35.2330   27.8140 C.ar   12  TYR12      -0.0009
     22  CD2       14.0490   35.9770   28.2380 C.ar   12  TYR12      -0.0009
     23  CE1       11.3980   35.7600   29.0530 C.ar   12  TYR12       0.0417
     24  CE2       13.6440   36.5050   29.4760 C.ar   12  TYR12       0.0417
     25  CZ        12.3220   36.3920   29.8710 C.ar   12  TYR12       0.1957
     26  OH        11.9230   36.9030   31.0910 O.3    12  TYR12      -0.2866
     27  N         11.3830   40.6610   22.8750 N.3    16  VAL16      -0.1245
     28  CA        10.6660   41.6100   23.7370 C.3    16  VAL16       0.1561
     29  C         11.7020   42.1670   24.7180 C.2    16  VAL16       0.2260
     30  O         12.4370   41.3930   25.3460 O.2    16  VAL16      -0.2867
     31  CB         9.5220   40.9160   24.5190 C.3    16  VAL16       0.0252
     32  CG1        8.9510   41.8710   25.5850 C.3    16  VAL16       0.0019
     33  CG2        8.4050   40.5130   23.5480 C.3    16  VAL16       0.0019
     34  N          6.0030   36.4630   21.2820 N.3    54  SER54      -0.1202
     35  CA         5.8400   36.8180   22.6860 C.3    54  SER54       0.2020
     36  C          4.6260   36.0830   23.2500 C.2    54  SER54       0.2619
     37  O          3.5640   36.0660   22.6270 O.2    54  SER54      -0.2717
     38  CB         5.6290   38.3330   22.8290 C.3    54  SER54       0.2103
     39  OG         5.4240   38.6780   24.1910 O.3    54  SER54      -0.2182
     40  N          4.7840   35.4740   24.4210 N.am   55  GLY55      -0.1956
     41  CA         3.6810   34.7600   25.0450 C.3    55  GLY55       0.1869
     42  C          3.4840   33.3040   24.6260 C.2    55  GLY55       0.2309
     43  O          2.5980   32.6180   25.1520 O.2    55  GLY55      -0.2863
     44  N          8.8170   28.6980   29.7640 N.3    82  GLY82      -0.1210
     45  CA         8.5410   29.6570   30.8230 C.3    82  GLY82       0.1956
     46  C          7.0590   29.9930   30.9540 C.2    82  GLY82       0.2611
     47  O          6.5250   30.0380   32.0640 O.2    82  GLY82      -0.2717
     48  N          6.3810   30.2310   29.8350 N.am   83  ASN83      -0.1974
     49  CA         4.9590   30.5630   29.8960 C.3    83  ASN83       0.1688
     50  C          4.0660   29.3640   30.2060 C.2    83  ASN83       0.2292
     51  O          2.9780   29.5270   30.7690 O.2    83  ASN83      -0.2864
     52  CB         4.5040   31.2510   28.6040 C.3    83  ASN83       0.1181
     53  CG         5.1600   32.6140   28.4150 C.2    83  ASN83       0.2629
     54  OD1        5.1260   33.4650   29.3120 O.2    83  ASN83      -0.2716
     55  ND2        5.7520   32.8270   27.2510 N.am   83  ASN83      -0.0877
     56  N          5.1170   31.6920   34.4460 N.3    87  PHE87      -0.1227
     57  CA         5.9690   32.6470   35.1280 C.3    87  PHE87       0.1736
     58  C          5.5500   34.1090   35.0270 C.2    87  PHE87       0.2595
     59  O          5.8780   34.8990   35.9120 O.2    87  PHE87      -0.2718
     60  CB         7.4350   32.4040   34.7560 C.3    87  PHE87       0.0547
     61  CG         8.0300   31.2470   35.5200 C.ar   87  PHE87      -0.0202
     62  CD1        8.5180   30.1220   34.8700 C.ar   87  PHE87      -0.0042
     63  CD2        8.0040   31.2510   36.9140 C.ar   87  PHE87      -0.0042
     64  CE1        8.9620   29.0120   35.5990 C.ar   87  PHE87      -0.0003
     65  CE2        8.4430   30.1510   37.6460 C.ar   87  PHE87      -0.0003
     66  CZ         8.9240   29.0280   36.9810 C.ar   87  PHE87      -0.0000
     67  N          4.8020   34.4740   33.9920 N.am   88  ALA88      -0.1980
     68  CA         4.3230   35.8510   33.8970 C.3    88  ALA88       0.1597
     69  C          3.3080   36.0790   35.0320 C.2    88  ALA88       0.2287
     70  O          3.3090   37.1300   35.6700 O.2    88  ALA88      -0.2864
     71  CB         3.6710   36.1010   32.5490 C.3    88  ALA88       0.0319
     72  N          5.2050   36.3490   38.2750 N.3    91  MET91      -0.1245
     73  CA         5.7940   37.6690   38.4830 C.3    91  MET91       0.1570
     74  C          4.7280   38.7030   38.8610 C.2    91  MET91       0.2261
     75  O          4.9780   39.5610   39.7010 O.2    91  MET91      -0.2867
     76  CB         6.5720   38.1220   37.2420 C.3    91  MET91       0.0387
     77  CG         7.7540   37.2120   36.8800 C.3    91  MET91       0.0595
     78  SD         8.6710   36.5930   38.3250 S.3    91  MET91      -0.1393
     79  CE         9.5680   38.0060   38.8030 C.3    91  MET91       0.0692
     80  N         16.9240   30.2720   30.2510 N.3   142  TYR142     -0.1228
     81  CA        16.5150   31.6190   30.6600 C.3   142  TYR142      0.1721
     82  C         17.5050   32.1900   31.6600 C.2   142  TYR142      0.2437
     83  O         18.2710   31.4530   32.2790 O.2   142  TYR142     -0.2733
     84  CB        15.1310   31.5640   31.3070 C.3   142  TYR142      0.0547
     85  CG        14.0410   31.0990   30.3610 C.ar  142  TYR142     -0.0200
     86  CD1       13.6200   29.7710   30.3480 C.ar  142  TYR142     -0.0009
     87  CD2       13.4210   31.9970   29.4970 C.ar  142  TYR142     -0.0009
     88  CE1       12.5990   29.3450   29.5090 C.ar  142  TYR142      0.0417
     89  CE2       12.3920   31.5820   28.6430 C.ar  142  TYR142      0.0417
     90  CZ        11.9850   30.2580   28.6600 C.ar  142  TYR142      0.1957
     91  OH        10.9310   29.8500   27.8780 O.3   142  TYR142     -0.2866
     92  N         17.5150   33.5180   31.8210 N.am  143  PRO143     -0.2729
     93  CA        18.4540   34.0860   32.7870 C.3   143  PRO143      0.1401
     94  C         17.8550   34.0260   34.1850 C.2   143  PRO143      0.2269
     95  O         16.6520   33.7830   34.3500 O.2   143  PRO143     -0.2865
     96  CB        18.5900   35.5330   32.3140 C.3   143  PRO143      0.0296
     97  CG        17.1740   35.8370   31.8320 C.3   143  PRO143      0.0237
     98  CD        16.8240   34.5740   31.0540 C.3   143  PRO143      0.0939
     99  N         16.7810   36.1500   37.2630 N.3   145  PHE145     -0.1241
    100  CA        16.3310   37.5360   37.1980 C.3   145  PHE145      0.1605
    101  C         17.0520   38.5080   38.1210 C.2   145  PHE145      0.2264
    102  O         17.2140   39.6820   37.7820 O.2   145  PHE145     -0.2867
    103  CB        14.8270   37.6310   37.4960 C.3   145  PHE145      0.0534
    104  CG        13.9360   37.0610   36.4200 C.ar  145  PHE145     -0.0203
    105  CD1       14.4230   36.7920   35.1420 C.ar  145  PHE145     -0.0042
    106  CD2       12.5830   36.8380   36.6840 C.ar  145  PHE145     -0.0042
    107  CE1       13.5730   36.3060   34.1380 C.ar  145  PHE145     -0.0003
    108  CE2       11.7250   36.3530   35.6900 C.ar  145  PHE145     -0.0003
    109  CZ        12.2250   36.0880   34.4090 C.ar  145  PHE145     -0.0000
    110  N         12.3830   33.3180   43.3210 N.3   164  ILE164     -0.1245
    111  CA        12.2850   33.4670   41.8670 C.3   164  ILE164      0.1561
    112  C         13.5370   32.9210   41.1730 C.2   164  ILE164      0.2260
    113  O         13.4470   32.2360   40.1520 O.2   164  ILE164     -0.2867
    114  CB        12.0660   34.9530   41.5030 C.3   164  ILE164      0.0252
    115  CG1       10.6630   35.3670   41.9600 C.3   164  ILE164      0.0019
    116  CG2       12.2330   35.1670   40.0080 C.3   164  ILE164      0.0019
    117  CD1       10.4560   36.8680   42.0160 C.3   164  ILE164      0.0001
    118  N         13.9650   29.7660   38.4500 N.3   168  ALA168     -0.1245
    119  CA        14.6830   29.8030   37.1800 C.3   168  ALA168      0.1562
    120  C         15.6750   28.6480   37.1280 C.2   168  ALA168      0.2260
    121  O         15.7970   27.9710   36.1060 O.2   168  ALA168     -0.2867
    122  CB        15.4210   31.1330   37.0120 C.3   168  ALA168      0.0290
    123  N         13.8580   25.4760   36.3540 N.3   171  LEU171     -0.1245
    124  CA        13.3970   25.4760   34.9700 C.3   171  LEU171      0.1561
    125  C         14.5680   25.1780   34.0340 C.2   171  LEU171      0.2260
    126  O         14.4570   24.3380   33.1440 O.2   171  LEU171     -0.2867
    127  CB        12.7700   26.8410   34.6100 C.3   171  LEU171      0.0270
    128  CG        12.3130   27.0910   33.1680 C.3   171  LEU171      0.0019
    129  CD1       11.2470   26.0670   32.7670 C.3   171  LEU171      0.0001
    130  CD2       11.7360   28.5210   33.0680 C.3   171  LEU171      0.0001
    131  N          4.9190   46.1530   28.3900 N.3   214  ASN214     -0.1240
    132  CA         5.4100   45.3310   29.4980 C.3   214  ASN214      0.1653
    133  C          6.5670   44.4250   29.0900 C.2   214  ASN214      0.2266
    134  O          6.3390   43.2860   28.6660 O.2   214  ASN214     -0.2867
    135  CB         4.2860   44.4610   30.0790 C.3   214  ASN214      0.1155
    136  CG         4.7250   43.6810   31.3290 C.2   214  ASN214      0.2627
    137  OD1        3.9720   42.8670   31.8700 O.2   214  ASN214     -0.2716
    138  ND2        5.9330   43.9360   31.7860 N.am  214  ASN214     -0.0877
    139  N          8.9600   43.7610   31.3040 N.3   216  SER216     -0.1202
    140  CA         9.5330   43.4480   32.6130 C.3   216  SER216      0.2020
    141  C         10.2790   42.1130   32.5580 C.2   216  SER216      0.2619
    142  O          9.7870   41.1590   31.9640 O.2   216  SER216     -0.2717
    143  CB         8.4380   43.3140   33.6830 C.3   216  SER216      0.2103
    144  OG         7.6520   44.4880   33.8070 O.3   216  SER216     -0.2182
    145  N         11.4470   42.0640   33.1940 N.am  217  TYR217     -0.1961
    146  CA        12.2730   40.8550   33.2750 C.3   217  TYR217      0.1771
    147  C         12.8220   40.3200   31.9590 C.2   217  TYR217      0.2619
    148  O         13.3360   39.1930   31.9120 O.2   217  TYR217     -0.2715
    149  CB        11.4960   39.7490   33.9960 C.3   217  TYR217      0.0574
    150  CG        11.0690   40.1550   35.3840 C.ar  217  TYR217     -0.0198
    151  CD1        9.7400   40.4810   35.6710 C.ar  217  TYR217     -0.0009
    152  CD2       12.0030   40.2410   36.4090 C.ar  217  TYR217     -0.0009
    153  CE1        9.3640   40.8870   36.9560 C.ar  217  TYR217      0.0417
    154  CE2       11.6340   40.6350   37.6950 C.ar  217  TYR217      0.0417
    155  CZ        10.3160   40.9570   37.9570 C.ar  217  TYR217      0.1957
    156  OH         9.9720   41.3300   39.2370 O.3   217  TYR217     -0.2866
    157  N         12.7460   41.1230   30.8990 N.am  218  HIS218     -0.1973
    158  CA        13.2490   40.6950   29.5980 C.3   218  HIS218      0.1656
    159  C         14.5820   41.3210   29.2800 C.2   218  HIS218      0.2291
    160  O         14.9280   42.3780   29.8210 O.2   218  HIS218     -0.2864
    161  CB        12.2530   41.0350   28.4860 C.3   218  HIS218      0.0771
    162  CG        11.1180   40.0680   28.3960 C.ar  218  HIS218      0.0820
    163  ND1       10.1700   39.9470   29.3870 N.ar  218  HIS218     -0.2267
    164  CD2       10.8270   39.1200   27.4740 C.ar  218  HIS218      0.1154
    165  CE1        9.3450   38.9590   29.0830 C.ar  218  HIS218      0.1986
    166  NE2        9.7220   38.4420   27.9290 N.ar  218  HIS218     -0.2212
@<TRIPOS>BOND
     1    34    35    1
     2     4     3    2
     3     1     2    1
     4    37    36    2
     5    35    38    1
     6    35    36    1
     7    38    39    1
     8    27    28    1
     9     3     2    1
    10     3     9   am
    11     2     5    1
    12    36    40   am
    13    18    17    2
    14    33    31    1
    15    17    16    1
    16    12    11    2
    17    28    31    1
    18    28    29    1
    19     9    10    1
    20    10    11    1
    21    10    13    1
    22    11    15   am
    23    40    41    1
    24     5     6    1
    25    31    32    1
    26    42    41    1
    27    42    43    2
    28    29    30    2
    29    15    16    1
    30    16    19    1
    31     7     6   ar
    32    13    14    1
    33     6     8   ar
    34    19    20    1
    35    55    53   am
    36    20    21   ar
    37    20    22   ar
    38   164   166   ar
    39   164   162   ar
    40    21    23   ar
    41    91    90    1
    42   166   165   ar
    43    22    24   ar
    44   131   132    1
    45   162   161    1
    46   162   163   ar
    47    53    52    1
    48    53    54    2
    49   161   158    1
    50    52    49    1
    51    89    90   ar
    52    89    87   ar
    53    90    88   ar
    54   134   133    2
    55    23    25   ar
    56   165   163   ar
    57   133   132    1
    58   159   158    1
    59   159   160    2
    60    24    25   ar
    61    87    85   ar
    62   132   135    1
    63    88    86   ar
    64   158   157    1
    65    44    45    1
    66    48    49    1
    67    48    46   am
    68    25    26    1
    69    49    50    1
    70   135   136    1
    71    50    51    2
    72    80    81    1
    73    86    85   ar
    74    85    84    1
    75    81    84    1
    76    81    82    1
    77    45    46    1
    78   157   147   am
    79    46    47    2
    80    98    92    1
    81    98    97    1
    82   139   140    1
    83   136   138   am
    84   136   137    2
    85    82    92   am
    86    82    83    2
    87    92    93    1
    88    97    96    1
    89   148   147    2
    90   147   146    1
    91   142   141    2
    92    96    93    1
    93    71    68    1
    94   141   140    1
    95   141   145   am
    96   140   143    1
    97   129   128    1
    98    93    94    1
    99   130   128    1
   100   126   125    2
   101   128   127    1
   102   145   146    1
   103   146   149    1
   104   143   144    1
   105    68    67    1
   106    68    69    1
   107    67    58   am
   108   149   150    1
   109   125   124    1
   110   107   109   ar
   111   107   105   ar
   112    94    95    2
   113   109   108   ar
   114    56    57    1
   115   127   124    1
   116    60    57    1
   117    60    61    1
   118    62    61   ar
   119    62    64   ar
   120   124   123    1
   121    58    57    1
   122    58    59    2
   123    69    70    2
   124   105   104   ar
   125   150   151   ar
   126   150   152   ar
   127    61    63   ar
   128    64    66   ar
   129   151   153   ar
   130   108   106   ar
   131   121   120    2
   132   152   154   ar
   133   104   106   ar
   134   104   103    1
   135    77    76    1
   136    77    78    1
   137    63    65   ar
   138   153   155   ar
   139    66    65   ar
   140   122   119    1
   141   120   119    1
   142   119   118    1
   143   100    99    1
   144   100   103    1
   145   100   101    1
   146    76    73    1
   147   154   155   ar
   148   102   101    2
   149   155   156    1
   150    72    73    1
   151    78    79    1
   152    73    74    1
   153    74    75    2
   154   116   114    1
   155   113   112    2
   156   112   111    1
   157   114   111    1
   158   114   115    1
   159   111   110    1
   160   115   117    1
