@<TRIPOS>MOLECULE
tmp/4hysA00.pdb
 171 163 0 0 0
SMALL
GASTEIGER

@<TRIPOS>ATOM
      1  N         -1.3740  -16.5950   11.0840 N.3    76  LYS76      -0.1245
      2  CA        -2.0970  -15.7290   10.1450 C.3    76  LYS76       0.1561
      3  C         -3.1310  -14.8360   10.8350 C.2    76  LYS76       0.2260
      4  O         -3.6770  -13.9450   10.2180 O.2    76  LYS76      -0.2867
      5  CB        -2.7720  -16.5580    9.0440 C.3    76  LYS76       0.0271
      6  CG        -3.6380  -17.6970    9.6010 C.3    76  LYS76       0.0035
      7  CD        -4.7900  -18.0630    8.6940 C.3    76  LYS76       0.0206
      8  CE        -4.4050  -19.0620    7.6160 C.3    76  LYS76       0.1093
      9  NZ        -5.5570  -19.2220    6.6700 N.3    76  LYS76      -0.1314
     10  N         -6.8560   -3.0530    6.8690 N.3   105  ASP105     -0.1225
     11  CA        -7.7060   -2.0110    6.3210 C.3   105  ASP105      0.1805
     12  C         -8.5100   -1.2740    7.3670 C.2   105  ASP105      0.2597
     13  O         -8.7360   -0.0940    7.2110 O.2   105  ASP105     -0.2718
     14  CB        -8.6540   -2.5470    5.2560 C.3   105  ASP105      0.1424
     15  CG        -7.9360   -3.1530    4.0870 C.2   105  ASP105      0.3668
     16  OD1       -6.7960   -2.7600    3.8060 O.co2 105  ASP105     -0.2456
     17  OD2       -8.5150   -4.0450    3.4440 O.co2 105  ASP105     -0.2456
     18  N         -8.9420   -1.9720    8.4190 N.am  106  ALA106     -0.1979
     19  CA        -9.8610   -1.4190    9.4120 C.3   106  ALA106      0.1597
     20  C         -9.6910   -2.1270   10.7330 C.2   106  ALA106      0.2287
     21  O         -9.0770   -3.1710   10.7920 O.2   106  ALA106     -0.2864
     22  CB       -11.3130   -1.5810    8.9240 C.3   106  ALA106      0.0319
     23  N        -17.1950   -2.0130   11.5100 N.3   111  VAL111     -0.1245
     24  CA       -17.6500   -3.2690   10.8910 C.3   111  VAL111      0.1561
     25  C        -18.6920   -4.0400   11.7150 C.2   111  VAL111      0.2260
     26  O        -19.6980   -4.4990   11.1630 O.2   111  VAL111     -0.2867
     27  CB       -16.4410   -4.1980   10.4990 C.3   111  VAL111      0.0252
     28  CG1      -16.8280   -5.6830   10.4350 C.3   111  VAL111      0.0019
     29  CG2      -15.8400   -3.7560    9.1710 C.3   111  VAL111      0.0019
     30  N        -22.3800   -3.0390   11.4640 N.3   114  MET114     -0.1245
     31  CA       -23.0120   -3.3700   10.1920 C.3   114  MET114      0.1570
     32  C        -23.4180   -4.8220   10.2820 C.2   114  MET114      0.2261
     33  O        -22.5680   -5.6840   10.5430 O.2   114  MET114     -0.2867
     34  CB       -22.0240   -3.2150    9.0370 C.3   114  MET114      0.0387
     35  CG       -21.1300   -1.9880    9.1280 C.3   114  MET114      0.0595
     36  SD       -20.5040   -1.5090    7.5110 S.3   114  MET114     -0.1393
     37  CE       -22.0300   -1.0230    6.6650 C.3   114  MET114      0.0692
     38  N        -23.6720   -8.3070    9.7420 N.3   116  LEU116     -0.1245
     39  CA       -23.0700   -9.3470    8.9470 C.3   116  LEU116      0.1561
     40  C        -24.0200  -10.5150    8.9720 C.2   116  LEU116      0.2260
     41  O        -24.8220  -10.6590    9.8930 O.2   116  LEU116     -0.2867
     42  CB       -21.7480   -9.7820    9.5670 C.3   116  LEU116      0.0270
     43  CG       -20.8010   -8.7010   10.0690 C.3   116  LEU116      0.0019
     44  CD1      -20.0880   -9.1800   11.3160 C.3   116  LEU116      0.0001
     45  CD2      -19.8190   -8.3020    8.9950 C.3   116  LEU116      0.0001
     46  N        -22.3670  -16.4870    8.1020 N.3   119  GLU119     -0.1231
     47  CA       -21.1310  -16.9520    7.4830 C.3   119  GLU119      0.1699
     48  C        -19.9610  -16.0710    7.8870 C.2   119  GLU119      0.2592
     49  O        -18.9360  -16.5790    8.3470 O.2   119  GLU119     -0.2718
     50  CB       -21.2500  -17.0160    5.9520 C.3   119  GLU119      0.0402
     51  CG       -22.0030  -18.2310    5.4100 C.3   119  GLU119      0.1161
     52  CD       -23.4590  -17.9220    5.0480 C.2   119  GLU119      0.3649
     53  OE1      -23.7530  -17.7960    3.8340 O.co2 119  GLU119     -0.2457
     54  OE2      -24.3080  -17.7920    5.9640 O.co2 119  GLU119     -0.2457
     55  N        -20.1220  -14.7600    7.7300 N.am  120  ARG120     -0.1980
     56  CA       -19.0640  -13.7990    8.0670 C.3   120  ARG120      0.1597
     57  C        -18.8490  -13.6490    9.5690 C.2   120  ARG120      0.2287
     58  O        -17.7120  -13.5840   10.0360 O.2   120  ARG120     -0.2864
     59  CB       -19.3600  -12.4350    7.4530 C.3   120  ARG120      0.0334
     60  CG       -19.3960  -12.4670    5.9370 C.3   120  ARG120      0.0492
     61  CD       -19.4200  -11.0900    5.3290 C.3   120  ARG120      0.2205
     62  NE       -19.1180  -11.1540    3.9030 N.pl3 120  ARG120     -0.0865
     63  CZ       -19.9560  -11.6300    2.9850 C.cat 120  ARG120      0.5346
     64  NH1      -21.1420  -12.1000    3.3460 N.pl3 120  ARG120      0.1354
     65  NH2      -19.5970  -11.6560    1.7130 N.pl3 120  ARG120      0.1354
     66  N        -17.1690  -16.7780   10.7710 N.3   123  TYR123     -0.1227
     67  CA       -15.8130  -16.8280   10.2370 C.3   123  TYR123      0.1736
     68  C        -14.8990  -15.8380   10.9250 C.2   123  TYR123      0.2595
     69  O        -13.7520  -16.1600   11.1810 O.2   123  TYR123     -0.2718
     70  CB       -15.7920  -16.5720    8.7300 C.3   123  TYR123      0.0548
     71  CG       -14.4420  -16.7710    8.1020 C.ar  123  TYR123     -0.0200
     72  CD1      -13.6690  -17.8850    8.4150 C.ar  123  TYR123     -0.0009
     73  CD2      -13.9440  -15.8680    7.1700 C.ar  123  TYR123     -0.0009
     74  CE1      -12.4200  -18.0920    7.8440 C.ar  123  TYR123      0.0417
     75  CE2      -12.6870  -16.0730    6.5710 C.ar  123  TYR123      0.0417
     76  CZ       -11.9370  -17.1950    6.9210 C.ar  123  TYR123      0.1957
     77  OH       -10.7010  -17.4140    6.3640 O.3   123  TYR123     -0.2866
     78  N        -15.3960  -14.6340   11.2040 N.am  124  LEU124     -0.1980
     79  CA       -14.5980  -13.6430   11.9250 C.3   124  LEU124      0.1596
     80  C        -14.2860  -14.1470   13.3190 C.2   124  LEU124      0.2287
     81  O        -13.1770  -13.9640   13.7860 O.2   124  LEU124     -0.2864
     82  CB       -15.2710  -12.2540   11.9760 C.3   124  LEU124      0.0297
     83  CG       -15.2580  -11.4730   10.6500 C.3   124  LEU124      0.0022
     84  CD1      -16.1410  -10.1980   10.6940 C.3   124  LEU124      0.0001
     85  CD2      -13.8460  -11.1480   10.1940 C.3   124  LEU124      0.0001
     86  N        -14.3290  -17.3460   14.3080 N.3   126  TYR126     -0.1241
     87  CA       -13.4350  -18.4970   14.1530 C.3   126  TYR126      0.1605
     88  C        -11.9950  -18.0090   14.0550 C.2   126  TYR126      0.2264
     89  O        -11.1050  -18.5400   14.7050 O.2   126  TYR126     -0.2867
     90  CB       -13.8240  -19.3190   12.9230 C.3   126  TYR126      0.0534
     91  CG       -12.7710  -20.3120   12.5230 C.ar  126  TYR126     -0.0201
     92  CD1      -12.6100  -21.4950   13.2340 C.ar  126  TYR126     -0.0009
     93  CD2      -11.9210  -20.0590   11.4500 C.ar  126  TYR126     -0.0009
     94  CE1      -11.6500  -22.3980   12.8890 C.ar  126  TYR126      0.0417
     95  CE2      -10.9570  -20.9610   11.0940 C.ar  126  TYR126      0.0417
     96  CZ       -10.8270  -22.1450   11.8090 C.ar  126  TYR126      0.1957
     97  OH        -9.8490  -23.0690   11.4720 O.3   126  TYR126     -0.2866
     98  N         -8.8970   -6.0840   10.4470 N.3   152  VAL152     -0.1231
     99  CA        -9.3840   -6.8590    9.3100 C.3   152  VAL152      0.1692
    100  C         -8.9720   -6.2500    7.9570 C.2   152  VAL152      0.2592
    101  O         -8.5700   -5.0870    7.8740 O.2   152  VAL152     -0.2718
    102  CB       -10.9310   -7.0230    9.3550 C.3   152  VAL152      0.0266
    103  CG1      -11.3450   -7.8560   10.5440 C.3   152  VAL152      0.0020
    104  CG2      -11.6430   -5.6610    9.3860 C.3   152  VAL152      0.0020
    105  N         -9.0690   -7.0600    6.9090 N.am  153  LYS153     -0.1966
    106  CA        -8.8820   -6.5970    5.5420 C.3   153  LYS153      0.1728
    107  C        -10.1460   -6.8410    4.7300 C.2   153  LYS153      0.2617
    108  O        -10.9900   -7.6700    5.0970 O.2   153  LYS153     -0.2715
    109  CB        -7.7000   -7.3050    4.8860 C.3   153  LYS153      0.0311
    110  CG        -6.3630   -6.7230    5.2290 C.3   153  LYS153      0.0038
    111  CD        -5.2810   -7.5210    4.5620 C.3   153  LYS153      0.0206
    112  CE        -4.9690   -6.9810    3.1710 C.3   153  LYS153      0.1093
    113  NZ        -4.3190   -8.0280    2.3450 N.3   153  LYS153     -0.1314
    114  N        -10.2660   -6.1230    3.6150 N.am  154  SER154     -0.1936
    115  CA       -11.4790   -6.1740    2.7960 C.3   154  SER154      0.2055
    116  C        -11.7540   -7.5850    2.2440 C.2   154  SER154      0.2643
    117  O        -12.8480   -7.8420    1.7300 O.2   154  SER154     -0.2714
    118  CB       -11.4210   -5.1400    1.6730 C.3   154  SER154      0.2130
    119  OG       -10.5470   -5.5570    0.6350 O.3   154  SER154     -0.2179
    120  N        -10.7910   -8.4970    2.3980 N.am  155  ASP155     -0.1957
    121  CA       -10.9900   -9.9010    2.0130 C.3   155  ASP155      0.1840
    122  C        -11.5050  -10.8020    3.1630 C.2   155  ASP155      0.2622
    123  O        -11.3660  -12.0250    3.1160 O.2   155  ASP155     -0.2715
    124  CB        -9.7120  -10.4800    1.3750 C.3   155  ASP155      0.1450
    125  CG        -8.5450  -10.5850    2.3640 C.2   155  ASP155      0.3671
    126  OD1       -8.7130  -10.2080    3.5520 O.co2 155  ASP155     -0.2456
    127  OD2       -7.4480  -11.0460    1.9500 O.co2 155  ASP155     -0.2456
    128  N        -12.0820  -10.1860    4.1960 N.am  156  CYS156     -0.1968
    129  CA       -12.6310  -10.8980    5.3710 C.3   156  CYS156      0.1712
    130  C        -11.6050  -11.6940    6.1990 C.2   156  CYS156      0.2296
    131  O        -11.9860  -12.5930    6.9610 O.2   156  CYS156     -0.2864
    132  CB       -13.8120  -11.7960    4.9650 C.3   156  CYS156      0.0983
    133  SG       -15.0730  -12.0520    6.2620 S.3   156  CYS156     -0.0798
    134  N        -17.6820  -25.0030   11.6620 N.3   293  VAL293     -0.1231
    135  CA       -17.9230  -25.0410   10.2270 C.3   293  VAL293      0.1692
    136  C        -16.6390  -24.7210    9.4340 C.2   293  VAL293      0.2592
    137  O        -16.3960  -25.2790    8.3730 O.2   293  VAL293     -0.2718
    138  CB       -19.1480  -24.1400    9.8450 C.3   293  VAL293      0.0266
    139  CG1      -19.0930  -22.8080   10.5430 C.3   293  VAL293      0.0020
    140  CG2      -19.2400  -23.9220    8.3620 C.3   293  VAL293      0.0020
    141  N        -15.7930  -23.8670    9.9940 N.am  294  TRP294     -0.1976
    142  CA       -14.5700  -23.4570    9.3270 C.3   294  TRP294      0.1640
    143  C        -13.3430  -24.2600    9.7000 C.2   294  TRP294      0.2290
    144  O        -12.2670  -23.9850    9.1710 O.2   294  TRP294     -0.2864
    145  CB       -14.3110  -21.9840    9.6110 C.3   294  TRP294      0.0576
    146  CG       -15.5300  -21.1970    9.4220 C.ar  294  TRP294      0.0006
    147  CD1      -16.2160  -20.5050   10.3740 C.ar  294  TRP294      0.0946
    148  CD2      -16.2610  -21.0530    8.2050 C.ar  294  TRP294      0.0152
    149  NE1      -17.3210  -19.9130    9.8190 N.ar  294  TRP294     -0.2442
    150  CE2      -17.3760  -20.2350    8.4870 C.ar  294  TRP294      0.0810
    151  CE3      -16.0740  -21.5250    6.8960 C.ar  294  TRP294      0.0012
    152  CZ2      -18.3190  -19.8810    7.5030 C.ar  294  TRP294      0.0191
    153  CZ3      -17.0130  -21.1680    5.9080 C.ar  294  TRP294      0.0001
    154  CH2      -18.1170  -20.3560    6.2190 C.ar  294  TRP294      0.0015
    155  N        -10.0240  -25.8620   10.5210 N.3   296  ASP296     -0.1239
    156  CA        -8.8370  -26.3060    9.8000 C.3   296  ASP296      0.1674
    157  C         -7.7510  -26.5140   10.8490 C.2   296  ASP296      0.2266
    158  O         -7.3500  -25.5550   11.5090 O.2   296  ASP296     -0.2867
    159  CB        -8.4180  -25.2360    8.7800 C.3   296  ASP296      0.1410
    160  CG        -7.2920  -25.6900    7.8370 C.2   296  ASP296      0.3668
    161  OD1       -7.1240  -25.0220    6.7930 O.co2 296  ASP296     -0.2456
    162  OD2       -6.5730  -26.6790    8.1210 O.co2 296  ASP296     -0.2456
    163  N         -4.8700  -24.2090   11.2280 N.3   299  GLU299     -0.1245
    164  CA        -5.2240  -22.8980   11.7890 C.3   299  GLU299      0.1567
    165  C         -5.5450  -22.9700   13.2820 C.2   299  GLU299      0.2260
    166  O         -5.1630  -22.0960   14.0420 O.2   299  GLU299     -0.2867
    167  CB        -6.4070  -22.2850   11.0270 C.3   299  GLU299      0.0388
    168  CG        -6.2020  -22.1930    9.5170 C.3   299  GLU299      0.1160
    169  CD        -7.4180  -21.6730    8.7700 C.2   299  GLU299      0.3649
    170  OE1       -7.2280  -21.0280    7.7170 O.co2 299  GLU299     -0.2457
    171  OE2       -8.5590  -21.9080    9.2230 O.co2 299  GLU299     -0.2457
@<TRIPOS>BOND
     1   119   118    1
     2   124   121    1
     3   124   125    1
     4   118   115    1
     5    65    63    1
     6   117   116    2
     7   127   125   ar
     8   121   120    1
     9   121   122    1
    10   116   120   am
    11   116   115    1
    12   113   112    1
    13   125   126   ar
    14   115   114    1
    15    63    64    1
    16    63    62    2
    17   123   122    2
    18   122   128   am
    19   112   111    1
    20    17    15   ar
    21   114   107   am
    22    16    15   ar
    23    53    52   ar
    24    62    61    1
    25    15    14    1
    26   128   129    1
    27   111   110    1
    28   107   108    2
    29   107   106    1
    30   109   110    1
    31   109   106    1
    32   132   129    1
    33   132   133    1
    34    52    51    1
    35    52    54   ar
    36    14    11    1
    37    61    60    1
    38   129   130    1
    39    51    50    1
    40   106   105    1
    41   153   154   ar
    42   153   151   ar
    43    60    59    1
    44    50    47    1
    45   130   131    2
    46   154   152   ar
    47    11    10    1
    48    11    12    1
    49    77    76    1
    50    75    76   ar
    51    75    73   ar
    52    37    36    1
    53     9     8    1
    54   161   160   ar
    55   151   148   ar
    56   105   100   am
    57    76    74   ar
    58    73    71   ar
    59    13    12    2
    60    12    18   am
    61    59    56    1
    62    47    48    1
    63    47    46    1
    64   152   150   ar
    65    36    35    1
    66     8     7    1
    67   170   169   ar
    68    55    48   am
    69    55    56    1
    70   160   162   ar
    71   160   159    1
    72    74    72   ar
    73   101   100    2
    74    48    49    2
    75   100    99    1
    76    56    57    1
    77    71    72   ar
    78    71    70    1
    79   148   150   ar
    80   148   146   ar
    81   140   138    1
    82   137   136    2
    83    18    19    1
    84   150   149   ar
    85     7     6    1
    86    70    67    1
    87   169   171   ar
    88   169   168    1
    89   159   156    1
    90    22    19    1
    91    39    40    1
    92    39    42    1
    93    39    38    1
    94    40    41    2
    95    45    43    1
    96    34    35    1
    97    34    31    1
    98     5     6    1
    99     5     2    1
   100    29    27    1
   101   144   143    2
   102    99   102    1
   103    99    98    1
   104   142   145    1
   105   142   143    1
   106   142   141    1
   107   102   104    1
   108   102   103    1
   109    19    20    1
   110   146   145    1
   111   146   147   ar
   112   136   141   am
   113   136   135    1
   114   168   167    1
   115    42    43    1
   116    57    58    2
   117   156   155    1
   118   156   157    1
   119   149   147   ar
   120   138   135    1
   121   138   139    1
   122    43    44    1
   123     2     3    1
   124     2     1    1
   125    31    32    1
   126    31    30    1
   127    85    83    1
   128     4     3    2
   129   135   134    1
   130    67    66    1
   131    67    68    1
   132    32    33    2
   133    28    27    1
   134    27    24    1
   135    83    84    1
   136    83    82    1
   137    20    21    2
   138   157   158    2
   139    24    23    1
   140    24    25    1
   141    68    69    2
   142    68    78   am
   143   167   164    1
   144    95    93   ar
   145    95    96   ar
   146    26    25    2
   147    78    79    1
   148   163   164    1
   149    93    91   ar
   150    97    96    1
   151   164   165    1
   152    96    94   ar
   153    79    82    1
   154    79    80    1
   155    91    90    1
   156    91    92   ar
   157    94    92   ar
   158    90    87    1
   159   165   166    2
   160    80    81    2
   161    88    87    1
   162    88    89    2
   163    87    86    1
