@<TRIPOS>MOLECULE
tmp/4hysA01.pdb
 135 125 0 0 0
SMALL
GASTEIGER

@<TRIPOS>ATOM
      1  N         -0.7920    7.3610   11.2810 N.3    25  ILE25      -0.1231
      2  CA        -2.1170    6.8020   11.5160 C.3    25  ILE25       0.1692
      3  C         -2.3170    6.4400   12.9760 C.2    25  ILE25       0.2593
      4  O         -3.3600    5.9400   13.3470 O.2    25  ILE25      -0.2718
      5  CB        -2.3690    5.5370   10.6670 C.3    25  ILE25       0.0266
      6  CG1       -1.4190    4.3880   11.0870 C.3    25  ILE25       0.0019
      7  CG2       -2.2650    5.8390    9.1730 C.3    25  ILE25       0.0020
      8  CD1       -1.6970    3.1000   10.3620 C.3    25  ILE25       0.0001
      9  N         -1.3150    6.6660   13.8070 N.am   26  GLY26      -0.1942
     10  CA        -1.4340    6.3080   15.2100 C.3    26  GLY26       0.2014
     11  C         -0.4180    7.0830   16.0000 C.2    26  GLY26       0.2639
     12  O          0.6230    7.4580   15.4620 O.2    26  GLY26      -0.2714
     13  N         -0.7420    7.3390   17.2690 N.am   27  SER27      -0.1949
     14  CA         0.1120    8.1080   18.1780 C.3    27  SER27       0.1924
     15  C         -0.4210    7.9790   19.5900 C.2    27  SER27       0.2314
     16  O         -1.2840    8.7550   20.0170 O.2    27  SER27      -0.2863
     17  CB         0.1610    9.5910   17.7810 C.3    27  SER27       0.2116
     18  OG         1.1140   10.2920   18.5750 O.3    27  SER27      -0.2180
     19  N          2.7920    4.4260   23.3130 N.3    30  GLN30      -0.1231
     20  CA         3.5920    3.3040   22.8240 C.3    30  GLN30       0.1698
     21  C          4.4080    3.7160   21.5900 C.2    30  GLN30       0.2592
     22  O          5.5230    3.1950   21.3810 O.2    30  GLN30      -0.2718
     23  CB         2.6900    2.0970   22.4810 C.3    30  GLN30       0.0381
     24  CG         1.4100    1.9470   23.3280 C.3    30  GLN30       0.0905
     25  CD         0.1710    2.5980   22.6830 C.2    30  GLN30       0.2608
     26  OE1        0.2620    3.6400   22.0100 O.2    30  GLN30      -0.2717
     27  NE2       -0.9960    1.9760   22.8920 N.am   30  GLN30      -0.0878
     28  N          3.8430    4.6210   20.7750 N.am   31  GLY31      -0.1957
     29  CA         4.5740    5.2500   19.6640 C.3    31  GLY31       0.1869
     30  C          3.7780    5.7390   18.4590 C.2    31  GLY31       0.2309
     31  O          2.5650    5.5020   18.3470 O.2    31  GLY31      -0.2863
     32  N          2.8100    5.5870   14.5600 N.3    33  VAL33      -0.1245
     33  CA         2.7170    4.5860   13.5260 C.3    33  VAL33       0.1561
     34  C          2.3900    5.2970   12.2480 C.2    33  VAL33       0.2260
     35  O          1.5050    6.1460   12.2080 O.2    33  VAL33      -0.2867
     36  CB         1.5950    3.5430   13.7980 C.3    33  VAL33       0.0252
     37  CG1        1.5860    2.4490   12.7140 C.3    33  VAL33       0.0019
     38  CG2        1.7190    2.9440   15.2030 C.3    33  VAL33       0.0019
     39  N          2.5300   -1.1270    7.9980 N.3    46  ALA46      -0.1245
     40  CA         2.4860   -0.1520    9.0920 C.3    46  ALA46       0.1562
     41  C          3.8400   -0.0770    9.8080 C.2    46  ALA46       0.2260
     42  O          4.3560   -1.0950   10.2780 O.2    46  ALA46      -0.2867
     43  CB         1.4220   -0.5170   10.0760 C.3    46  ALA46       0.0290
     44  N          6.0000    1.4150   12.9100 N.3    48  LYS48      -0.1245
     45  CA         5.8630    1.9540   14.2590 C.3    48  LYS48       0.1561
     46  C          7.2210    2.3390   14.8420 C.2    48  LYS48       0.2260
     47  O          8.1060    1.4920   14.9590 O.2    48  LYS48      -0.2867
     48  CB         5.1970    0.8910   15.1290 C.3    48  LYS48       0.0271
     49  CG         5.0390    1.2290   16.6130 C.3    48  LYS48       0.0035
     50  CD         4.3030    0.0910   17.3350 C.3    48  LYS48       0.0206
     51  CE         4.1200    0.4130   18.8210 C.3    48  LYS48       0.1093
     52  NZ         3.5620   -0.7410   19.6010 N.3    48  LYS48      -0.1314
     53  N         -1.0280  -10.1050   14.2640 N.3    79  ILE79      -0.1245
     54  CA        -0.1490   -9.2010   13.5360 C.3    79  ILE79       0.1561
     55  C          1.2520   -9.7150   13.7760 C.2    79  ILE79       0.2260
     56  O          1.7040   -9.8550   14.9130 O.2    79  ILE79      -0.2867
     57  CB        -0.3210   -7.6910   13.9010 C.3    79  ILE79       0.0252
     58  CG1       -0.3650   -6.8220   12.6440 C.3    79  ILE79       0.0019
     59  CG2        0.8600   -7.1650   14.7030 C.3    79  ILE79       0.0019
     60  CD1       -1.5280   -7.1140   11.7050 C.3    79  ILE79       0.0001
     61  N          4.9890   -3.9360   10.2080 N.3   101  MET101     -0.1230
     62  CA         3.8890   -4.9110   10.2050 C.3   101  MET101      0.1702
     63  C          3.0880   -4.8030    8.9220 C.2   101  MET101      0.2592
     64  O          3.1870   -3.7900    8.2220 O.2   101  MET101     -0.2718
     65  CB         2.9340   -4.6140   11.3320 C.3   101  MET101      0.0401
     66  CG         3.4800   -4.8100   12.6800 C.3   101  MET101      0.0596
     67  SD         2.5360   -3.7650   13.7940 S.3   101  MET101     -0.1393
     68  CE         3.3810   -2.2140   13.4570 C.3   101  MET101      0.0692
     69  N          2.2760   -5.8200    8.6230 N.am  102  GLU102     -0.1966
     70  CA         1.3240   -5.7270    7.5130 C.3   102  GLU102      0.1733
     71  C          0.2980   -4.6520    7.8610 C.2   102  GLU102      0.2616
     72  O         -0.1010   -4.5170    9.0210 O.2   102  GLU102     -0.2715
     73  CB         0.6220   -7.0760    7.2200 C.3   102  GLU102      0.0429
     74  CG        -0.1650   -7.0610    5.8820 C.3   102  GLU102      0.1163
     75  CD        -0.8350   -8.3930    5.5020 C.2   102  GLU102      0.3649
     76  OE1       -0.2010   -9.4450    5.6870 O.co2 102  GLU102     -0.2457
     77  OE2       -1.9820   -8.3820    4.9770 O.co2 102  GLU102     -0.2457
     78  N         -0.1020   -3.8740    6.8630 N.am  103  LEU103     -0.1963
     79  CA        -1.1440   -2.8630    7.0530 C.3   103  LEU103      0.1728
     80  C         -2.5240   -3.4760    6.8420 C.2   103  LEU103      0.2616
     81  O         -2.8020   -3.9870    5.7550 O.2   103  LEU103     -0.2715
     82  CB        -0.9440   -1.7170    6.0730 C.3   103  LEU103      0.0311
     83  CG        -1.8280   -0.4960    6.2810 C.3   103  LEU103      0.0022
     84  CD1       -1.3590    0.3190    7.4270 C.3   103  LEU103      0.0001
     85  CD2       -1.8100    0.3350    5.0010 C.3   103  LEU103      0.0001
     86  N         -3.3700   -3.4410    7.8730 N.am  104  MET104     -0.1963
     87  CA        -4.7510   -3.9090    7.7320 C.3   104  MET104      0.1736
     88  C         -5.6790   -2.7410    7.4070 C.2   104  MET104      0.2616
     89  O         -5.3290   -1.5730    7.6500 O.2   104  MET104     -0.2715
     90  CB        -5.2240   -4.6460    8.9890 C.3   104  MET104      0.0427
     91  CG        -4.3160   -5.7930    9.4180 C.3   104  MET104      0.0599
     92  SD        -4.2030   -7.1360    8.2270 S.3   104  MET104     -0.1393
     93  CE        -5.7310   -8.0090    8.5870 C.3   104  MET104      0.0692
     94  N         -6.8560   -3.0530    6.8690 N.am  105  ASP105     -0.1957
     95  CA        -7.7060   -2.0110    6.3210 C.3   105  ASP105      0.1840
     96  C         -8.5100   -1.2740    7.3670 C.2   105  ASP105      0.2622
     97  O         -8.7360   -0.0940    7.2110 O.2   105  ASP105     -0.2715
     98  CB        -8.6540   -2.5470    5.2560 C.3   105  ASP105      0.1450
     99  CG        -7.9360   -3.1530    4.0870 C.2   105  ASP105      0.3671
    100  OD1       -6.7960   -2.7600    3.8060 O.co2 105  ASP105     -0.2456
    101  OD2       -8.5150   -4.0450    3.4440 O.co2 105  ASP105     -0.2456
    102  N         -8.9420   -1.9720    8.4190 N.am  106  ALA106     -0.1963
    103  CA        -9.8610   -1.4190    9.4120 C.3   106  ALA106      0.1728
    104  C         -9.6910   -2.1270   10.7330 C.2   106  ALA106      0.2616
    105  O         -9.0770   -3.1710   10.7920 O.2   106  ALA106     -0.2715
    106  CB       -11.3130   -1.5810    8.9240 C.3   106  ALA106      0.0334
    107  N        -10.2380   -1.5570   11.7960 N.am  107  ASN107     -0.1972
    108  CA       -10.3910   -2.2710   13.0430 C.3   107  ASN107      0.1688
    109  C        -11.8200   -2.7770   13.0590 C.2   107  ASN107      0.2292
    110  O        -12.5240   -2.5840   12.0710 O.2   107  ASN107     -0.2864
    111  CB       -10.0400   -1.3950   14.2410 C.3   107  ASN107      0.1181
    112  CG       -10.9800   -0.2010   14.4270 C.2   107  ASN107      0.2629
    113  OD1      -12.1770   -0.2720   14.1580 O.2   107  ASN107     -0.2716
    114  ND2      -10.4280    0.8970   14.9380 N.am  107  ASN107     -0.0877
    115  N        -11.2240   -2.2480   18.8670 N.3   148  SER148     -0.1217
    116  CA       -10.1110   -1.4250   18.4160 C.3   148  SER148      0.1889
    117  C         -8.8130   -2.1770   18.2160 C.2   148  SER148      0.2288
    118  O         -7.9840   -1.7400   17.4170 O.2   148  SER148     -0.2866
    119  CB        -9.8880   -0.1780   19.2960 C.3   148  SER148      0.2089
    120  OG        -9.6670   -0.4900   20.6680 O.3   148  SER148     -0.2183
    121  N         -8.0420   -6.3670   13.9390 N.3   151  VAL151     -0.1245
    122  CA        -8.0040   -5.7000   12.6480 C.3   151  VAL151      0.1561
    123  C         -8.3380   -6.6440   11.5200 C.2   151  VAL151      0.2260
    124  O         -8.0780   -7.8470   11.6150 O.2   151  VAL151     -0.2867
    125  CB        -6.6520   -5.0470   12.4030 C.3   151  VAL151      0.0252
    126  CG1       -6.5090   -3.8080   13.2720 C.3   151  VAL151      0.0019
    127  CG2       -5.5510   -6.0200   12.7020 C.3   151  VAL151      0.0019
    128  N         -4.3290   -7.3740   16.8940 N.3   161  LEU161     -0.1245
    129  CA        -3.2940   -6.3290   16.7290 C.3   161  LEU161      0.1561
    130  C         -2.0810   -6.4720   17.6430 C.2   161  LEU161      0.2260
    131  O         -0.9620   -6.2660   17.2020 O.2   161  LEU161     -0.2867
    132  CB        -3.8690   -4.9100   16.8870 C.3   161  LEU161      0.0270
    133  CG        -3.5310   -3.8280   15.8310 C.3   161  LEU161      0.0019
    134  CD1       -3.7080   -2.4400   16.3990 C.3   161  LEU161      0.0001
    135  CD2       -2.1400   -3.9750   15.2190 C.3   161  LEU161      0.0001
@<TRIPOS>BOND
     1   101    99   ar
     2   100    99   ar
     3    99    98    1
     4    77    75   ar
     5    85    83    1
     6    98    95    1
     7    75    76   ar
     8    75    74    1
     9    81    80    2
    10    74    73    1
    11    82    83    1
    12    82    79    1
    13    83    84    1
    14    95    94    1
    15    95    96    1
    16    80    79    1
    17    80    86   am
    18    78    79    1
    19    78    71   am
    20    94    88   am
    21    97    96    2
    22    73    70    1
    23    96   102   am
    24    88    89    2
    25    88    87    1
    26    70    71    1
    27    70    69    1
    28    87    86    1
    29    87    90    1
    30    71    72    2
    31    39    40    1
    32    64    63    2
    33    92    93    1
    34    92    91    1
    35   102   103    1
    36    69    63   am
    37    63    62    1
    38   106   103    1
    39    90    91    1
    40    40    41    1
    41    40    43    1
    42     7     5    1
    43   103   104    1
    44    41    42    2
    45    62    61    1
    46    62    65    1
    47     8     6    1
    48     5     6    1
    49     5     2    1
    50   104   105    2
    51   104   107   am
    52     1     2    1
    53    65    66    1
    54     2     3    1
    55   123   124    2
    56   123   122    1
    57    60    58    1
    58   107   108    1
    59   110   109    2
    60    35    34    2
    61    34    33    1
    62   125   122    1
    63   125   127    1
    64   125   126    1
    65    58    57    1
    66   122   121    1
    67    66    67    1
    68    37    36    1
    69    44    45    1
    70     3     4    2
    71     3     9   am
    72   108   109    1
    73   108   111    1
    74    68    67    1
    75    33    36    1
    76    33    32    1
    77    54    55    1
    78    54    57    1
    79    54    53    1
    80    55    56    2
    81    36    38    1
    82     9    10    1
    83    57    59    1
    84   113   112    2
    85   111   112    1
    86    45    46    1
    87    45    48    1
    88   112   114   am
    89    46    47    2
    90    48    49    1
    91    10    11    1
    92   135   133    1
    93    12    11    2
    94   133   134    1
    95   133   132    1
    96    11    13   am
    97    49    50    1
    98   129   132    1
    99   129   128    1
   100   129   130    1
   101   131   130    2
   102    13    14    1
   103    50    51    1
   104   118   117    2
   105    17    14    1
   106    17    18    1
   107    14    15    1
   108   117   116    1
   109    31    30    2
   110   116   115    1
   111   116   119    1
   112    30    29    1
   113    51    52    1
   114   119   120    1
   115    15    16    2
   116    29    28    1
   117    28    21   am
   118    22    21    2
   119    21    20    1
   120    26    25    2
   121    23    20    1
   122    23    24    1
   123    25    27   am
   124    25    24    1
   125    20    19    1
