@<TRIPOS>MOLECULE
tmp/4hytA00.pdb
 204 191 0 0 0
SMALL
GASTEIGER

@<TRIPOS>ATOM
      1  N        -20.2790   13.9650  -67.4830 N.3    87  ALA87      -0.1245
      2  CA       -21.2270   14.2800  -68.5410 C.3    87  ALA87       0.1562
      3  C        -20.5090   14.6290  -69.8400 C.2    87  ALA87       0.2260
      4  O        -20.8390   14.0910  -70.8940 O.2    87  ALA87      -0.2867
      5  CB       -22.1420   15.4180  -68.1140 C.3    87  ALA87       0.0290
      6  N        -20.1230   13.0290  -73.4700 N.3    91  GLN91      -0.1245
      7  CA       -20.3260   13.8390  -74.6620 C.3    91  GLN91       0.1566
      8  C        -19.0980   13.7600  -75.5660 C.2    91  GLN91       0.2260
      9  O        -19.0240   14.4220  -76.6000 O.2    91  GLN91      -0.2867
     10  CB       -20.6690   15.2790  -74.2860 C.3    91  GLN91       0.0367
     11  CG       -22.0100   15.4090  -73.5760 C.3    91  GLN91       0.0905
     12  CD       -22.3290   16.8350  -73.1740 C.2    91  GLN91       0.2608
     13  OE1      -21.7760   17.3600  -72.2040 O.2    91  GLN91      -0.2717
     14  NE2      -23.2260   17.4720  -73.9190 N.am   91  GLN91      -0.0878
     15  N        -18.7360   17.5210  -80.1690 N.3    96  GLU96      -0.1231
     16  CA       -19.6150   18.1040  -79.1560 C.3    96  GLU96       0.1699
     17  C        -19.2320   19.4950  -78.6520 C.2    96  GLU96       0.2592
     18  O        -18.0900   19.7460  -78.2700 O.2    96  GLU96      -0.2718
     19  CB       -19.7470   17.1320  -77.9800 C.3    96  GLU96       0.0402
     20  CG       -21.0810   17.1730  -77.2480 C.3    96  GLU96       0.1161
     21  CD       -22.2740   16.9050  -78.1440 C.2    96  GLU96       0.3649
     22  OE1      -22.2730   15.8740  -78.8490 O.co2  96  GLU96      -0.2457
     23  OE2      -23.2160   17.7260  -78.1360 O.co2  96  GLU96      -0.2457
     24  N        -20.2310   20.3750  -78.6390 N.am   97  GLU97      -0.1966
     25  CA       -20.1280   21.7730  -78.1900 C.3    97  GLU97       0.1718
     26  C        -19.5330   22.1150  -76.8030 C.2    97  GLU97       0.2458
     27  O        -18.9160   23.1720  -76.6570 O.2    97  GLU97      -0.2730
     28  CB       -21.4770   22.4810  -78.3660 C.3    97  GLU97       0.0428
     29  CG       -22.6770   21.5830  -78.1180 C.3    97  GLU97       0.1163
     30  CD       -23.7490   22.2550  -77.2900 C.2    97  GLU97       0.3649
     31  OE1      -23.5710   23.4400  -76.9370 O.co2  97  GLU97      -0.2457
     32  OE2      -24.7690   21.5960  -76.9910 O.co2  97  GLU97      -0.2457
     33  N        -19.7100   21.2460  -75.7850 N.am   98  PRO98      -0.2727
     34  CA       -19.2850   21.5680  -74.4190 C.3    98  PRO98       0.1402
     35  C        -17.8670   22.0900  -74.2160 C.2    98  PRO98       0.2269
     36  O        -17.5340   22.4400  -73.0820 O.2    98  PRO98      -0.2865
     37  CB       -19.4900   20.2520  -73.6860 C.3    98  PRO98       0.0296
     38  CG       -20.7340   19.7500  -74.2890 C.3    98  PRO98       0.0237
     39  CD       -20.6620   20.1210  -75.7510 C.3    98  PRO98       0.0939
     40  N        -19.2000   24.4200  -72.8550 N.3   101  ASP101     -0.1225
     41  CA       -20.3420   24.1510  -71.9620 C.3   101  ASP101      0.1805
     42  C        -20.0700   23.3280  -70.6880 C.2   101  ASP101      0.2597
     43  O        -19.9760   23.8900  -69.6000 O.2   101  ASP101     -0.2718
     44  CB       -21.4900   23.5030  -72.7490 C.3   101  ASP101      0.1424
     45  CG       -22.8490   24.0430  -72.3570 C.2   101  ASP101      0.3668
     46  OD1      -23.4260   23.5430  -71.3700 O.co2 101  ASP101     -0.2456
     47  OD2      -23.3460   24.9610  -73.0460 O.co2 101  ASP101     -0.2456
     48  N        -19.9390   22.0090  -70.8170 N.am  102  ASN102     -0.1974
     49  CA       -19.8900   21.1370  -69.6330 C.3   102  ASN102      0.1688
     50  C        -18.5530   21.1360  -68.8950 C.2   102  ASN102      0.2292
     51  O        -18.5080   21.1220  -67.6590 O.2   102  ASN102     -0.2864
     52  CB       -20.2990   19.6980  -69.9790 C.3   102  ASN102      0.1181
     53  CG       -21.7200   19.3670  -69.5400 C.2   102  ASN102      0.2629
     54  OD1      -22.6550   19.4260  -70.3350 O.2   102  ASN102     -0.2716
     55  ND2      -21.8830   19.0070  -68.2710 N.am  102  ASN102     -0.0877
     56  N        -18.2300   24.3410  -67.1280 N.3   105  LEU105     -0.1245
     57  CA       -19.0120   24.3110  -65.9030 C.3   105  LEU105      0.1561
     58  C        -18.2990   23.5610  -64.7900 C.2   105  LEU105      0.2260
     59  O        -18.1400   24.0930  -63.6930 O.2   105  LEU105     -0.2867
     60  CB       -20.3860   23.6900  -66.1570 C.3   105  LEU105      0.0270
     61  CG       -21.4030   23.8850  -65.0310 C.3   105  LEU105      0.0019
     62  CD1      -21.9510   25.2940  -65.0580 C.3   105  LEU105      0.0001
     63  CD2      -22.5210   22.8810  -65.1420 C.3   105  LEU105      0.0001
     64  N        -35.9770   10.3870  -76.3210 N.3   288  TYR288     -0.1241
     65  CA       -34.5310   10.4990  -76.2420 C.3   288  TYR288      0.1605
     66  C        -33.8840    9.2300  -75.7140 C.2   288  TYR288      0.2264
     67  O        -34.3510    8.6290  -74.7450 O.2   288  TYR288     -0.2867
     68  CB       -34.1580   11.6770  -75.3300 C.3   288  TYR288      0.0534
     69  CG       -35.0200   12.9110  -75.5180 C.ar  288  TYR288     -0.0201
     70  CD1      -34.7950   13.7820  -76.5750 C.ar  288  TYR288     -0.0009
     71  CD2      -36.0510   13.2080  -74.6340 C.ar  288  TYR288     -0.0009
     72  CE1      -35.5760   14.9090  -76.7520 C.ar  288  TYR288      0.0417
     73  CE2      -36.8380   14.3340  -74.8040 C.ar  288  TYR288      0.0417
     74  CZ       -36.5940   15.1800  -75.8640 C.ar  288  TYR288      0.1957
     75  OH       -37.3700   16.3020  -76.0390 O.3   288  TYR288     -0.2866
     76  N        -28.9930   10.5900  -74.1300 N.3   292  GLU292     -0.1245
     77  CA       -29.5820   11.9030  -73.9150 C.3   292  GLU292      0.1567
     78  C        -30.2920   12.0130  -72.5630 C.2   292  GLU292      0.2260
     79  O        -30.2320   13.0550  -71.9170 O.2   292  GLU292     -0.2867
     80  CB       -30.5220   12.2510  -75.0730 C.3   292  GLU292      0.0388
     81  CG       -29.8010   12.3670  -76.4120 C.3   292  GLU292      0.1160
     82  CD       -30.7450   12.4800  -77.5900 C.2   292  GLU292      0.3649
     83  OE1      -31.8640   11.9340  -77.5140 O.co2 292  GLU292     -0.2457
     84  OE2      -30.3660   13.1160  -78.5970 O.co2 292  GLU292     -0.2457
     85  N        -27.6380   12.4110  -69.9490 N.3   295  ILE295     -0.1231
     86  CA       -27.1150   13.7680  -70.0140 C.3   295  ILE295      0.1692
     87  C        -28.0750   14.7500  -69.3510 C.2   295  ILE295      0.2592
     88  O        -27.6430   15.6560  -68.6350 O.2   295  ILE295     -0.2718
     89  CB       -26.8670   14.2060  -71.4580 C.3   295  ILE295      0.0266
     90  CG1      -25.7740   13.3460  -72.0870 C.3   295  ILE295      0.0019
     91  CG2      -26.4620   15.6670  -71.4970 C.3   295  ILE295      0.0020
     92  CD1      -24.4460   13.4690  -71.3900 C.3   295  ILE295      0.0001
     93  N        -29.3700   14.5530  -69.5870 N.am  296  PHE296     -0.1976
     94  CA       -30.4110   15.3630  -68.9550 C.3   296  PHE296      0.1639
     95  C        -30.4290   15.1560  -67.4470 C.2   296  PHE296      0.2290
     96  O        -30.6650   16.0890  -66.6860 O.2   296  PHE296     -0.2864
     97  CB       -31.7940   15.0070  -69.4980 C.3   296  PHE296      0.0560
     98  CG       -31.9530   15.2360  -70.9660 C.ar  296  PHE296     -0.0200
     99  CD1      -31.1140   16.0990  -71.6460 C.ar  296  PHE296     -0.0042
    100  CD2      -32.9490   14.5830  -71.6700 C.ar  296  PHE296     -0.0042
    101  CE1      -31.2660   16.3100  -73.0010 C.ar  296  PHE296     -0.0003
    102  CE2      -33.1050   14.7840  -73.0250 C.ar  296  PHE296     -0.0003
    103  CZ       -32.2620   15.6510  -73.6940 C.ar  296  PHE296     -0.0000
    104  N        -27.4800   16.8330  -66.0650 N.3   299  GLY299     -0.1225
    105  CA       -27.8360   18.2270  -66.2610 C.3   299  GLY299      0.1811
    106  C        -28.7150   18.8180  -65.1680 C.2   299  GLY299      0.2280
    107  O        -28.3250   19.7840  -64.5160 O.2   299  GLY299     -0.2866
    108  N        -26.9020   18.6740  -61.4540 N.3   302  VAL302     -0.1231
    109  CA       -25.8570   19.6830  -61.3690 C.3   302  VAL302      0.1692
    110  C        -26.4220   21.1060  -61.3690 C.2   302  VAL302      0.2591
    111  O        -25.8840   21.9920  -60.7010 O.2   302  VAL302     -0.2718
    112  CB       -24.8340   19.4910  -62.5050 C.3   302  VAL302      0.0266
    113  CG1      -24.0610   20.7680  -62.7790 C.3   302  VAL302      0.0020
    114  CG2      -23.8940   18.3420  -62.1640 C.3   302  VAL302      0.0020
    115  N        -27.5250   21.3120  -62.0860 N.am  303  ALA303     -0.1980
    116  CA       -28.1490   22.6360  -62.1730 C.3   303  ALA303      0.1597
    117  C        -28.7890   23.0620  -60.8540 C.2   303  ALA303      0.2287
    118  O        -28.9540   24.2560  -60.5710 O.2   303  ALA303     -0.2864
    119  CB       -29.1810   22.6730  -63.3030 C.3   303  ALA303      0.0319
    120  N        -23.7140   27.1810  -56.6880 N.3   307  GLU307     -0.1245
    121  CA       -22.2710   27.3190  -56.6890 C.3   307  GLU307      0.1567
    122  C        -21.9050   28.5960  -55.9750 C.2   307  GLU307      0.2260
    123  O        -20.8810   28.6650  -55.3040 O.2   307  GLU307     -0.2867
    124  CB       -21.7530   27.3620  -58.1240 C.3   307  GLU307      0.0388
    125  CG       -22.5830   26.5290  -59.0780 C.3   307  GLU307      0.1160
    126  CD       -23.3610   27.3650  -60.0630 C.2   307  GLU307      0.3649
    127  OE1      -22.9220   28.5030  -60.3290 O.co2 307  GLU307     -0.2457
    128  OE2      -24.4030   26.8860  -60.5670 O.co2 307  GLU307     -0.2457
    129  N        -34.2200   24.5520  -69.2370 N.3   762  PHE762     -0.1241
    130  CA       -33.7220   23.2730  -69.7310 C.3   762  PHE762      0.1605
    131  C        -34.7450   22.1630  -69.5030 C.2   762  PHE762      0.2264
    132  O        -34.6650   21.0980  -70.1130 O.2   762  PHE762     -0.2867
    133  CB       -32.3790   22.9200  -69.0840 C.3   762  PHE762      0.0534
    134  CG       -31.8250   21.5880  -69.5170 C.ar  762  PHE762     -0.0203
    135  CD1      -31.6160   21.3110  -70.8580 C.ar  762  PHE762     -0.0042
    136  CD2      -31.5040   20.6210  -68.5810 C.ar  762  PHE762     -0.0042
    137  CE1      -31.1060   20.0910  -71.2570 C.ar  762  PHE762     -0.0003
    138  CE2      -30.9910   19.4020  -68.9740 C.ar  762  PHE762     -0.0003
    139  CZ       -30.7920   19.1370  -70.3130 C.ar  762  PHE762     -0.0000
    140  N        -37.5030   22.6280  -72.2410 N.3   765  PHE765     -0.1241
    141  CA       -36.7490   22.4160  -73.4680 C.3   765  PHE765      0.1605
    142  C        -36.8660   20.9440  -73.8480 C.2   765  PHE765      0.2264
    143  O        -37.0890   20.6050  -75.0090 O.2   765  PHE765     -0.2867
    144  CB       -35.2840   22.8130  -73.2580 C.3   765  PHE765      0.0534
    145  CG       -34.3540   22.3290  -74.3340 C.ar  765  PHE765     -0.0203
    146  CD1      -34.2650   22.9940  -75.5420 C.ar  765  PHE765     -0.0042
    147  CD2      -33.5490   21.2180  -74.1240 C.ar  765  PHE765     -0.0042
    148  CE1      -33.4030   22.5530  -76.5310 C.ar  765  PHE765     -0.0003
    149  CE2      -32.6840   20.7700  -75.1080 C.ar  765  PHE765     -0.0003
    150  CZ       -32.6110   21.4390  -76.3120 C.ar  765  PHE765     -0.0000
    151  N        -33.7820   26.2720  -76.8480 N.3   772  LEU772     -0.1245
    152  CA       -33.3380   26.5350  -75.4780 C.3   772  LEU772      0.1561
    153  C        -33.3420   28.0190  -75.0960 C.2   772  LEU772      0.2260
    154  O        -32.5540   28.8040  -75.6230 O.2   772  LEU772     -0.2867
    155  CB       -31.9530   25.9340  -75.2430 C.3   772  LEU772      0.0270
    156  CG       -31.3760   26.1490  -73.8470 C.3   772  LEU772      0.0019
    157  CD1      -32.2810   25.5330  -72.7870 C.3   772  LEU772      0.0001
    158  CD2      -29.9730   25.5760  -73.7690 C.3   772  LEU772      0.0001
    159  N        -32.5700   29.6680  -72.1830 N.3   774  LEU774     -0.1231
    160  CA       -31.5330   30.2180  -71.3130 C.3   774  LEU774      0.1693
    161  C        -30.3170   29.2970  -71.2990 C.2   774  LEU774      0.2593
    162  O        -30.4290   28.1130  -70.9860 O.2   774  LEU774     -0.2718
    163  CB       -32.0890   30.4170  -69.8980 C.3   774  LEU774      0.0284
    164  CG       -31.2070   30.9850  -68.7850 C.3   774  LEU774      0.0019
    165  CD1      -30.9080   32.4500  -68.9930 C.3   774  LEU774      0.0001
    166  CD2      -31.8990   30.7860  -67.4630 C.3   774  LEU774      0.0001
    167  N        -29.1580   29.8470  -71.6460 N.am  775  GLY775     -0.1942
    168  CA       -27.9570   29.0510  -71.8070 C.3   775  GLY775      0.2014
    169  C        -27.2270   28.7260  -70.5190 C.2   775  GLY775      0.2639
    170  O        -27.7190   28.9690  -69.4210 O.2   775  GLY775     -0.2714
    171  N        -26.0360   28.1650  -70.6710 N.am  776  THR776     -0.1950
    172  CA       -25.1940   27.8420  -69.5340 C.3   776  THR776      0.1897
    173  C        -24.3540   29.0380  -69.1020 C.2   776  THR776      0.2313
    174  O        -24.1270   29.2490  -67.9140 O.2   776  THR776     -0.2863
    175  CB       -24.2370   26.7030  -69.8910 C.3   776  THR776      0.1794
    176  OG1      -24.9850   25.6300  -70.4730 O.3   776  THR776     -0.2208
    177  CG2      -23.4980   26.2120  -68.6580 C.3   776  THR776      0.0378
    178  N        -26.6980   31.5380  -67.2240 N.3   779  ILE779     -0.1245
    179  CA       -26.9520   30.9860  -65.9000 C.3   779  ILE779      0.1561
    180  C        -25.7780   31.2680  -64.9800 C.2   779  ILE779      0.2260
    181  O        -25.9660   31.6630  -63.8310 O.2   779  ILE779     -0.2867
    182  CB       -27.2520   29.4710  -65.9470 C.3   779  ILE779      0.0252
    183  CG1      -28.7260   29.2460  -66.2930 C.3   779  ILE779      0.0019
    184  CG2      -26.9110   28.8010  -64.6170 C.3   779  ILE779      0.0019
    185  CD1      -29.2420   27.8590  -65.9610 C.3   779  ILE779      0.0001
    186  N        -37.2190   22.6590  -81.9630 N.3   859  ARG859     -0.1245
    187  CA       -35.8300   22.4890  -81.5320 C.3   859  ARG859      0.1563
    188  C        -35.0510   21.4370  -82.3140 C.2   859  ARG859      0.2260
    189  O        -33.8780   21.6480  -82.6380 O.2   859  ARG859     -0.2867
    190  CB       -35.7370   22.1980  -80.0290 C.3   859  ARG859      0.0307
    191  CG       -36.2530   20.8370  -79.6070 C.3   859  ARG859      0.0489
    192  CD       -35.4550   20.2910  -78.4370 C.3   859  ARG859      0.2205
    193  NE       -34.3550   19.4420  -78.8850 N.pl3 859  ARG859     -0.0865
    194  CZ       -34.4280   18.1170  -78.9740 C.cat 859  ARG859      0.5346
    195  NH1      -35.5480   17.4900  -78.6400 N.pl3 859  ARG859      0.1354
    196  NH2      -33.3840   17.4150  -79.3930 N.pl3 859  ARG859      0.1354
    197  N        -31.9070   23.1080  -83.5770 N.3   863  ASP863     -0.1239
    198  CA       -30.5640   22.7750  -83.1160 C.3   863  ASP863      0.1674
    199  C        -29.7300   22.0360  -84.1660 C.2   863  ASP863      0.2266
    200  O        -28.5510   21.7550  -83.9440 O.2   863  ASP863     -0.2867
    201  CB       -30.6260   21.9740  -81.8120 C.3   863  ASP863      0.1410
    202  CG       -31.0670   22.8180  -80.6340 C.2   863  ASP863      0.3668
    203  OD1      -30.6960   24.0100  -80.5880 O.co2 863  ASP863     -0.2456
    204  OD2      -31.7850   22.2940  -79.7570 O.co2 863  ASP863     -0.2456
@<TRIPOS>BOND
     1   199   200    2
     2   199   198    1
     3   197   198    1
     4   198   201    1
     5   189   188    2
     6   188   187    1
     7   186   187    1
     8   201   202    1
     9   187   190    1
    10   202   203   ar
    11   202   204   ar
    12    15    16    1
    13   190   191    1
    14   191   192    1
    15   196   194    1
    16    16    17    1
    17    16    19    1
    18   194   193    2
    19   194   195    1
    20   193   192    1
    21    22    21   ar
    22    17    24   am
    23    17    18    2
    24    24    25    1
    25    84    82   ar
    26    28    25    1
    27    28    29    1
    28    25    26    1
    29    21    23   ar
    30    21    20    1
    31    29    30    1
    32    19    20    1
    33    82    83   ar
    34    82    81    1
    35    30    32   ar
    36    30    31   ar
    37   151   152    1
    38    26    27    2
    39    26    33   am
    40    72    70   ar
    41    72    74   ar
    42     9     8    2
    43    70    69   ar
    44   148   150   ar
    45   148   146   ar
    46    81    80    1
    47    64    65    1
    48   150   149   ar
    49    65    66    1
    50    65    68    1
    51    75    74    1
    52    74    73   ar
    53    33    39    1
    54    33    34    1
    55    39    38    1
    56    66    67    2
    57   154   153    2
    58     8     7    1
    59   146   145   ar
    60    69    68    1
    61    69    71   ar
    62   152   155    1
    63   152   153    1
    64   155   156    1
    65   149   147   ar
    66    80    77    1
    67   143   142    2
    68    73    71   ar
    69     7    10    1
    70     7     6    1
    71    34    35    1
    72    34    37    1
    73   145   147   ar
    74   145   144    1
    75    38    37    1
    76    10    11    1
    77    35    36    2
    78    76    77    1
    79    14    12   am
    80    77    78    1
    81   142   141    1
    82   156   158    1
    83   156   157    1
    84   103   102   ar
    85   103   101   ar
    86    11    12    1
    87   141   144    1
    88   141   140    1
    89    12    13    2
    90    47    45   ar
    91   102   100   ar
    92   101    99   ar
    93    40    41    1
    94    44    45    1
    95    44    41    1
    96    78    79    2
    97    45    46   ar
    98   159   160    1
    99    90    89    1
   100    90    92    1
   101    41    42    1
   102   168   167    1
   103   168   169    1
   104   100    98   ar
   105    99    98   ar
   106   167   161   am
   107    91    89    1
   108    89    86    1
   109   160   161    1
   110   160   163    1
   111   161   162    2
   112   137   135   ar
   113   137   139   ar
   114    98    97    1
   115     4     3    2
   116   135   134   ar
   117    48    42   am
   118    48    49    1
   119    42    43    2
   120   171   169   am
   121   171   172    1
   122   169   170    2
   123   176   175    1
   124    54    53    2
   125   139   138   ar
   126   132   131    2
   127    86    85    1
   128    86    87    1
   129    52    49    1
   130    52    53    1
   131   163   164    1
   132   175   172    1
   133   175   177    1
   134     3     2    1
   135   130   131    1
   136   130   129    1
   137   130   133    1
   138    49    50    1
   139    93    87   am
   140    93    94    1
   141    53    55   am
   142   172   173    1
   143   134   133    1
   144   134   136   ar
   145    97    94    1
   146    87    88    2
   147   173   174    2
   148   165   164    1
   149   138   136   ar
   150    94    95    1
   151    50    51    2
   152   164   166    1
   153     2     5    1
   154     2     1    1
   155    95    96    2
   156   178   179    1
   157    56    57    1
   158   183   185    1
   159   183   182    1
   160   105   104    1
   161   105   106    1
   162    60    57    1
   163    60    61    1
   164   182   179    1
   165   182   184    1
   166    57    58    1
   167   179   180    1
   168   106   107    2
   169    63    61    1
   170    62    61    1
   171   180   181    2
   172    58    59    2
   173   119   116    1
   174   113   112    1
   175   112   114    1
   176   112   109    1
   177   116   115    1
   178   116   117    1
   179   115   110   am
   180   108   109    1
   181   109   110    1
   182   110   111    2
   183   117   118    2
   184   128   126   ar
   185   127   126   ar
   186   126   125    1
   187   125   124    1
   188   124   121    1
   189   121   120    1
   190   121   122    1
   191   122   123    2
