@<TRIPOS>MOLECULE
tmp/4hyuA01.pdb
 146 138 0 0 0
SMALL
GASTEIGER

@<TRIPOS>ATOM
      1  N         -0.8210    7.1840   10.6160 N.3    25  ILE25      -0.1231
      2  CA        -2.1430    6.5720   10.8080 C.3    25  ILE25       0.1696
      3  C         -2.5020    6.3130   12.2680 C.2    25  ILE25       0.2632
      4  O         -3.6120    5.8570   12.5640 O.2    25  ILE25      -0.2714
      5  CB        -2.3290    5.2820    9.9640 C.3    25  ILE25       0.0266
      6  CG1       -1.3780    4.1660   10.4320 C.3    25  ILE25       0.0019
      7  CG2       -2.1780    5.5980    8.4670 C.3    25  ILE25       0.0020
      8  CD1       -1.6170    2.8050    9.7520 C.3    25  ILE25       0.0001
      9  N         -1.5700    6.5880   13.1780 N.am   26  GLY26      -0.1718
     10  CA        -1.8660    6.5140   14.6050 C.2    26  GLY26       0.1480
     11  C         -0.6770    6.6940   15.5250 C.2    26  GLY26       0.2821
     12  O          0.4750    6.6650   15.0960 O.2    26  GLY26      -0.2669
     13  N         -0.9680    6.9040   16.8020 N.am   27  SER27      -0.1901
     14  CA         0.0620    6.9750   17.8220 C.3    27  SER27       0.2058
     15  C         -0.4850    6.5450   19.1730 C.2    27  SER27       0.2644
     16  O         -1.7000    6.3920   19.3630 O.2    27  SER27      -0.2714
     17  CB         0.6810    8.3760   17.9030 C.3    27  SER27       0.2130
     18  OG        -0.3090    9.3660   18.1250 O.3    27  SER27      -0.2179
     19  N          0.4380    6.3110   20.0920 N.am   28  GLY28      -0.1939
     20  CA         0.1240    5.9410   21.4560 C.3    28  GLY28       0.2014
     21  C          1.3810    6.1060   22.2790 C.2    28  GLY28       0.2639
     22  O          2.3780    6.6760   21.8080 O.2    28  GLY28      -0.2714
     23  N          1.3360    5.5830   23.5000 N.am   29  ALA29      -0.1963
     24  CA         2.4310    5.7010   24.4520 C.3    29  ALA29       0.1728
     25  C          3.7260    5.0420   23.9750 C.2    29  ALA29       0.2616
     26  O          4.8130    5.5700   24.2200 O.2    29  ALA29      -0.2715
     27  CB         2.0000    5.1350   25.8100 C.3    29  ALA29       0.0334
     28  N          3.6000    3.9100   23.2760 N.am   30  GLN30      -0.1963
     29  CA         4.7470    3.0960   22.8440 C.3    30  GLN30       0.1736
     30  C          5.2620    3.3120   21.4150 C.2    30  GLN30       0.2655
     31  O          6.3010    2.7440   21.0420 O.2    30  GLN30      -0.2711
     32  CB         4.4340    1.6100   23.0270 C.3    30  GLN30       0.0408
     33  CG         4.6390    1.1210   24.4530 C.3    30  GLN30       0.0908
     34  CD         3.3900    1.2480   25.2970 C.2    30  GLN30       0.2608
     35  OE1        3.3030    2.1030   26.1830 O.2    30  GLN30      -0.2717
     36  NE2        2.4100    0.3880   25.0310 N.am   30  GLN30      -0.0878
     37  N          4.5600    4.1110   20.6120 N.am   31  GLY31      -0.1730
     38  CA         5.0060    4.3260   19.2430 C.2    31  GLY31       0.1340
     39  C          4.1280    5.1720   18.3540 C.2    31  GLY31       0.2521
     40  O          2.9840    5.4580   18.6980 O.2    31  GLY31      -0.2816
     41  N          2.8270    5.3010   14.2650 N.3    33  VAL33      -0.1245
     42  CA         2.6180    4.3830   13.1540 C.3    33  VAL33       0.1561
     43  C          2.2390    5.1410   11.8790 C.2    33  VAL33       0.2260
     44  O          1.3110    5.9590   11.8850 O.2    33  VAL33      -0.2867
     45  CB         1.5230    3.3240   13.5100 C.3    33  VAL33       0.0252
     46  CG1        1.3600    2.3180   12.4010 C.3    33  VAL33       0.0019
     47  CG2        1.8730    2.6070   14.8210 C.3    33  VAL33       0.0019
     48  N          2.7680   -0.9490    7.1740 N.3    46  ALA46      -0.1245
     49  CA         2.6610   -0.0550    8.3220 C.3    46  ALA46       0.1562
     50  C          4.0350    0.0080    8.9810 C.2    46  ALA46       0.2260
     51  O          4.6570   -1.0370    9.2260 O.2    46  ALA46      -0.2867
     52  CB         1.6240   -0.5540    9.3010 C.3    46  ALA46       0.0290
     53  N          6.0650    1.2540   12.2610 N.3    48  LYS48      -0.1245
     54  CA         5.9670    1.7000   13.6500 C.3    48  LYS48       0.1561
     55  C          7.3130    2.1200   14.2070 C.2    48  LYS48       0.2260
     56  O          8.2230    1.2960   14.3370 O.2    48  LYS48      -0.2867
     57  CB         5.3490    0.6070   14.5350 C.3    48  LYS48       0.0271
     58  CG         5.2100    0.9730   16.0040 C.3    48  LYS48       0.0035
     59  CD         4.5480   -0.1630   16.7560 C.3    48  LYS48       0.0206
     60  CE         4.5060    0.0850   18.2510 C.3    48  LYS48       0.1093
     61  NZ         3.7950   -1.0340   18.9570 N.3    48  LYS48      -0.1314
     62  N         -0.6460  -10.3940   13.3070 N.3    79  ILE79      -0.1245
     63  CA         0.1640   -9.4470   12.5320 C.3    79  ILE79       0.1561
     64  C          1.6260   -9.8740   12.5770 C.2    79  ILE79       0.2260
     65  O          2.1580  -10.1820   13.6370 O.2    79  ILE79      -0.2867
     66  CB        -0.0010   -7.9720   12.9800 C.3    79  ILE79       0.0252
     67  CG1        0.3860   -7.0270   11.8400 C.3    79  ILE79       0.0019
     68  CG2        0.8140   -7.6760   14.2180 C.3    79  ILE79       0.0019
     69  CD1       -0.6390   -6.9840   10.6980 C.3    79  ILE79       0.0001
     70  N          5.2420   -3.8450    9.3200 N.3   101  MET101     -0.1230
     71  CA         4.1820   -4.8410    9.2180 C.3   101  MET101      0.1702
     72  C          3.4440   -4.6820    7.8990 C.2   101  MET101      0.2592
     73  O          3.5600   -3.6490    7.2350 O.2   101  MET101     -0.2718
     74  CB         3.1810   -4.6430   10.3510 C.3   101  MET101      0.0401
     75  CG         3.7770   -4.7370   11.7300 C.3   101  MET101      0.0596
     76  SD         2.7810   -3.8710   12.9410 S.3   101  MET101     -0.1393
     77  CE         3.2870   -2.1580   12.7200 C.3   101  MET101      0.0692
     78  N          2.6660   -5.7010    7.5390 N.am  102  GLU102     -0.1966
     79  CA         1.7290   -5.6150    6.4310 C.3   102  GLU102      0.1733
     80  C          0.6770   -4.5650    6.7600 C.2   102  GLU102      0.2616
     81  O          0.2010   -4.5000    7.8950 O.2   102  GLU102     -0.2715
     82  CB         1.0380   -6.9700    6.2130 C.3   102  GLU102      0.0429
     83  CG         0.3670   -7.0920    4.8520 C.3   102  GLU102      0.1163
     84  CD        -0.5760   -8.2860    4.7290 C.2   102  GLU102      0.3649
     85  OE1       -0.4140   -9.2860    5.4690 O.co2 102  GLU102     -0.2457
     86  OE2       -1.4800   -8.2240    3.8730 O.co2 102  GLU102     -0.2457
     87  N          0.3200   -3.7410    5.7770 N.am  103  LEU103     -0.1963
     88  CA        -0.7420   -2.7570    5.9770 C.3   103  LEU103      0.1728
     89  C         -2.1230   -3.3650    5.7240 C.2   103  LEU103      0.2616
     90  O         -2.4650   -3.6950    4.5950 O.2   103  LEU103     -0.2715
     91  CB        -0.5420   -1.5170    5.1020 C.3   103  LEU103      0.0311
     92  CG        -1.5300   -0.3610    5.3150 C.3   103  LEU103      0.0022
     93  CD1       -1.2950    0.3400    6.6480 C.3   103  LEU103      0.0001
     94  CD2       -1.4300    0.6460    4.1670 C.3   103  LEU103      0.0001
     95  N         -2.8970   -3.4890    6.7990 N.am  104  MET104     -0.1963
     96  CA        -4.2960   -3.9050    6.7560 C.3   104  MET104      0.1736
     97  C         -5.2260   -2.7350    6.4110 C.2   104  MET104      0.2616
     98  O         -4.8560   -1.5660    6.5570 O.2   104  MET104     -0.2715
     99  CB        -4.6910   -4.5190    8.1020 C.3   104  MET104      0.0427
    100  CG        -3.7400   -5.6310    8.5600 C.3   104  MET104      0.0599
    101  SD        -3.6580   -6.9950    7.3950 S.3   104  MET104     -0.1393
    102  CE        -5.1430   -7.9220    7.7760 C.3   104  MET104      0.0692
    103  N         -6.4330   -3.0670    5.9620 N.am  105  ASP105     -0.1957
    104  CA        -7.3760   -2.0860    5.4330 C.3   105  ASP105      0.1840
    105  C         -8.2030   -1.3970    6.5130 C.2   105  ASP105      0.2622
    106  O         -8.4830   -0.2060    6.4100 O.2   105  ASP105     -0.2715
    107  CB        -8.2880   -2.7460    4.4050 C.3   105  ASP105      0.1450
    108  CG        -7.5390   -3.2080    3.1770 C.2   105  ASP105      0.3671
    109  OD1       -6.5710   -2.5350    2.7930 O.co2 105  ASP105     -0.2456
    110  OD2       -7.9200   -4.2370    2.5770 O.co2 105  ASP105     -0.2456
    111  N         -8.5670   -2.1430    7.5560 N.am  106  ALA106     -0.1963
    112  CA        -9.4620   -1.6440    8.5980 C.3   106  ALA106      0.1728
    113  C         -9.3460   -2.4780    9.8640 C.2   106  ALA106      0.2616
    114  O         -8.9200   -3.6240    9.8080 O.2   106  ALA106     -0.2715
    115  CB       -10.9060   -1.6730    8.0920 C.3   106  ALA106      0.0334
    116  N         -9.7150   -1.8950   11.0020 N.am  107  ASN107     -0.1972
    117  CA       -10.0260   -2.6750   12.2010 C.3   107  ASN107      0.1688
    118  C        -11.4880   -3.1250   12.1500 C.2   107  ASN107      0.2292
    119  O        -12.2000   -2.8140   11.1960 O.2   107  ASN107     -0.2864
    120  CB        -9.7160   -1.8990   13.4940 C.3   107  ASN107      0.1181
    121  CG       -10.5850   -0.6610   13.6680 C.2   107  ASN107      0.2629
    122  OD1      -11.7630   -0.6630   13.3150 O.2   107  ASN107     -0.2716
    123  ND2      -10.0070    0.3990   14.2330 N.am  107  ASN107     -0.0877
    124  N         -7.5570   -6.5580   13.0710 N.3   151  VAL151     -0.1245
    125  CA        -7.5780   -5.9120   11.7610 C.3   151  VAL151      0.1561
    126  C         -7.9330   -6.8360   10.6170 C.2   151  VAL151      0.2260
    127  O         -7.7170   -8.0460   10.6900 O.2   151  VAL151     -0.2867
    128  CB        -6.2670   -5.1300   11.4530 C.3   151  VAL151      0.0252
    129  CG1       -6.1980   -3.8670   12.3040 C.3   151  VAL151      0.0019
    130  CG2       -5.0440   -6.0050   11.6660 C.3   151  VAL151      0.0019
    131  N         -3.8030   -7.6390   16.1160 N.3   161  LEU161     -0.1231
    132  CA        -2.8040   -6.5840   15.9260 C.3   161  LEU161      0.1693
    133  C         -1.6610   -6.6420   16.9300 C.2   161  LEU161      0.2592
    134  O         -0.5120   -6.3950   16.5700 O.2   161  LEU161     -0.2718
    135  CB        -3.4470   -5.1920   15.9710 C.3   161  LEU161      0.0284
    136  CG        -3.1770   -4.2160   14.8110 C.3   161  LEU161      0.0019
    137  CD1       -3.4380   -2.7710   15.2440 C.3   161  LEU161      0.0001
    138  CD2       -1.7860   -4.3720   14.2140 C.3   161  LEU161      0.0001
    139  N         -1.9730   -6.9360   18.1880 N.am  162  ASP162     -0.1974
    140  CA        -0.9560   -6.8890   19.2420 C.3   162  ASP162      0.1709
    141  C         -1.0830   -8.0120   20.2730 C.2   162  ASP162      0.2293
    142  O         -1.9430   -8.8820   20.1450 O.2   162  ASP162     -0.2864
    143  CB        -0.9190   -5.5020   19.9180 C.3   162  ASP162      0.1436
    144  CG        -2.2570   -5.0970   20.5330 C.2   162  ASP162      0.3671
    145  OD1       -2.9400   -5.9370   21.1700 O.co2 162  ASP162     -0.2456
    146  OD2       -2.6210   -3.9100   20.3880 O.co2 162  ASP162     -0.2456
@<TRIPOS>BOND
     1   110   108   ar
     2   109   108   ar
     3   108   107    1
     4    86    84   ar
     5    94    92    1
     6   107   104    1
     7    90    89    2
     8    84    83    1
     9    84    85   ar
    10    83    82    1
    11    91    92    1
    12    91    88    1
    13    92    93    1
    14   104   103    1
    15   104   105    1
    16    89    88    1
    17    89    95   am
    18    87    88    1
    19    87    80   am
    20   103    97   am
    21    82    79    1
    22   106   105    2
    23    97    98    2
    24    97    96    1
    25    79    80    1
    26    79    78    1
    27   105   111   am
    28    96    95    1
    29    96    99    1
    30    80    81    2
    31    48    49    1
    32    73    72    2
    33   101   102    1
    34   101   100    1
    35    78    72   am
    36   111   112    1
    37    72    71    1
    38   115   112    1
    39    99   100    1
    40    49    50    1
    41    49    52    1
    42     7     5    1
    43   112   113    1
    44    50    51    2
    45    71    70    1
    46    71    74    1
    47     8     6    1
    48   114   113    2
    49   113   116   am
    50     5     6    1
    51     5     2    1
    52    74    75    1
    53     1     2    1
    54   126   127    2
    55   126   125    1
    56    69    67    1
    57     2     3    1
    58   116   117    1
    59   119   118    2
    60   128   130    1
    61   128   125    1
    62   128   129    1
    63    75    76    1
    64   125   124    1
    65    67    66    1
    66    43    44    2
    67    43    42    1
    68   118   117    1
    69   117   120    1
    70    53    54    1
    71     3     4    2
    72     3     9    1
    73    46    45    1
    74    63    64    1
    75    63    66    1
    76    63    62    1
    77    64    65    2
    78    77    76    1
    79    66    68    1
    80    42    45    1
    81    42    41    1
    82     9    10    2
    83   122   121    2
    84   120   121    1
    85    45    47    1
    86    54    55    1
    87    54    57    1
    88   121   123   am
    89    55    56    2
    90   138   136    1
    91    57    58    1
    92    10    11    1
    93   136   137    1
    94   136   135    1
    95    12    11    2
    96    11    13   am
    97   132   135    1
    98   132   131    1
    99   132   133    1
   100    58    59    1
   101   134   133    2
   102    59    60    1
   103    13    14    1
   104   133   139   am
   105    14    17    1
   106    14    15    1
   107    17    18    1
   108   139   140    1
   109    60    61    1
   110    39    40    2
   111    39    38    1
   112    15    16    2
   113    15    19   am
   114   140   143    1
   115   140   141    1
   116    38    37    2
   117   143   144    1
   118    19    20    1
   119   142   141    2
   120   146   144   ar
   121   144   145   ar
   122    37    30    1
   123    31    30    2
   124    30    29    1
   125    20    21    1
   126    22    21    2
   127    21    23   am
   128    29    32    1
   129    29    28    1
   130    32    33    1
   131    28    25   am
   132    23    24    1
   133    25    26    2
   134    25    24    1
   135    24    27    1
   136    33    34    1
   137    36    34   am
   138    34    35    2
