@<TRIPOS>MOLECULE
tmp/4hyvA00.pdb
 135 122 0 0 0
SMALL
GASTEIGER

@<TRIPOS>ATOM
      1  N        -83.2260  -27.1900   45.0900 N.3    49  ARG49      -0.1245
      2  CA       -82.7580  -26.9150   46.4700 C.3    49  ARG49       0.1563
      3  C        -83.3700  -25.6290   46.9910 C.2    49  ARG49       0.2260
      4  O        -83.3680  -24.5960   46.2920 O.2    49  ARG49      -0.2867
      5  CB       -81.2310  -26.8290   46.5030 C.3    49  ARG49       0.0307
      6  CG       -80.6430  -26.0940   47.6830 C.3    49  ARG49       0.0489
      7  CD       -79.1340  -25.9310   47.4880 C.3    49  ARG49       0.2205
      8  NE       -78.4740  -25.3880   48.6710 N.pl3  49  ARG49      -0.0865
      9  CZ       -77.9580  -24.1520   48.7610 C.cat  49  ARG49       0.5346
     10  NH1      -77.9510  -23.3450   47.7040 N.pl3  49  ARG49       0.1354
     11  NH2      -77.3730  -23.7570   49.9010 N.pl3  49  ARG49       0.1354
     12  N        -83.0120  -22.8900   49.8620 N.3    51  ASN51      -0.1240
     13  CA       -82.0040  -22.4560   50.7850 C.3    51  ASN51       0.1653
     14  C        -82.6160  -21.6690   51.9330 C.2    51  ASN51       0.2266
     15  O        -82.9790  -20.5030   51.7850 O.2    51  ASN51      -0.2867
     16  CB       -80.9670  -21.6170   50.0740 C.3    51  ASN51       0.1155
     17  CG       -79.8810  -21.1530   51.0100 C.2    51  ASN51       0.2627
     18  OD1      -79.7850  -21.6130   52.1570 O.2    51  ASN51      -0.2716
     19  ND2      -79.0700  -20.2310   50.5450 N.am   51  ASN51      -0.0877
     20  N        -81.5150  -20.4380   54.4780 N.3    53  SER53      -0.1217
     21  CA       -80.8440  -19.2450   54.9120 C.3    53  SER53       0.1889
     22  C        -81.6600  -17.9840   54.7070 C.2    53  SER53       0.2288
     23  O        -81.4350  -16.9840   55.3860 O.2    53  SER53      -0.2866
     24  CB       -79.4960  -19.1210   54.2410 C.3    53  SER53       0.2089
     25  OG       -78.6180  -20.0340   54.8400 O.3    53  SER53      -0.2183
     26  N        -82.4320  -27.0780   52.4280 N.3    83  ASP83      -0.1225
     27  CA       -81.0640  -26.8190   52.8620 C.3    83  ASP83       0.1805
     28  C        -81.1490  -25.8870   54.0630 C.2    83  ASP83       0.2598
     29  O        -81.7640  -24.8100   53.9760 O.2    83  ASP83      -0.2718
     30  CB       -80.2610  -26.1720   51.7150 C.3    83  ASP83       0.1424
     31  CG       -78.7980  -25.9430   52.0630 C.2    83  ASP83       0.3668
     32  OD1      -78.5370  -25.3260   53.1180 O.co2  83  ASP83      -0.2456
     33  OD2      -77.8980  -26.3480   51.2680 O.co2  83  ASP83      -0.2456
     34  N        -80.6570  -26.3420   55.2140 N.am   84  THR84      -0.1953
     35  CA       -80.8470  -25.5680   56.4450 C.3    84  THR84       0.1897
     36  C        -79.9360  -24.3680   56.5240 C.2    84  THR84       0.2313
     37  O        -78.8290  -24.3540   55.9520 O.2    84  THR84      -0.2863
     38  CB       -80.6620  -26.3970   57.7160 C.3    84  THR84       0.1794
     39  OG1      -79.3330  -26.8950   57.7650 O.3    84  THR84      -0.2208
     40  CG2      -81.6370  -27.5530   57.7600 C.3    84  THR84       0.0378
     41  N        -75.3490  -20.5100   61.1610 N.3    88  GLU88      -0.1245
     42  CA       -74.8020  -19.3840   60.3740 C.3    88  GLU88       0.1567
     43  C        -74.5170  -18.1680   61.2640 C.2    88  GLU88       0.2260
     44  O        -75.1990  -17.9490   62.2550 O.2    88  GLU88      -0.2867
     45  CB       -75.7970  -18.9660   59.3080 C.3    88  GLU88       0.0388
     46  CG       -75.4440  -19.3750   57.9140 C.3    88  GLU88       0.1160
     47  CD       -76.5230  -18.9800   56.9380 C.2    88  GLU88       0.3649
     48  OE1      -76.7780  -19.7390   55.9770 O.co2  88  GLU88      -0.2457
     49  OE2      -77.1810  -17.9550   57.1890 O.co2  88  GLU88      -0.2457
     50  N        -76.6090  -28.0950   57.0750 N.3   211  SER211     -0.1202
     51  CA       -75.4580  -27.2370   57.0660 C.3   211  SER211      0.2020
     52  C        -74.5500  -27.4810   58.2850 C.2   211  SER211      0.2618
     53  O        -75.0270  -27.8050   59.3940 O.2   211  SER211     -0.2717
     54  CB       -75.8830  -25.7760   56.9730 C.3   211  SER211      0.2103
     55  OG       -76.6640  -25.5420   55.8160 O.3   211  SER211     -0.2182
     56  N        -73.2420  -27.3420   58.0650 N.am  212  PHE212     -0.1975
     57  CA       -72.2470  -27.3130   59.1570 C.3   212  PHE212      0.1639
     58  C        -72.1840  -28.5580   60.0130 C.2   212  PHE212      0.2290
     59  O        -71.7700  -28.4970   61.1670 O.2   212  PHE212     -0.2864
     60  CB       -72.4080  -26.0600   60.0360 C.3   212  PHE212      0.0560
     61  CG       -72.2280  -24.7650   59.2760 C.ar  212  PHE212     -0.0200
     62  CD1      -70.9610  -24.3560   58.8620 C.ar  212  PHE212     -0.0042
     63  CD2      -73.3530  -23.9870   58.8930 C.ar  212  PHE212     -0.0042
     64  CE1      -70.7990  -23.2030   58.0790 C.ar  212  PHE212     -0.0003
     65  CE2      -73.1870  -22.8270   58.1280 C.ar  212  PHE212     -0.0003
     66  CZ       -71.9100  -22.4440   57.7120 C.ar  212  PHE212     -0.0000
     67  N        -73.6240  -31.5930   55.0360 N.3   238  LYS238     -0.1245
     68  CA       -72.7640  -30.6740   54.3150 C.3   238  LYS238      0.1561
     69  C        -71.4450  -30.5340   55.0860 C.2   238  LYS238      0.2260
     70  O        -71.4530  -30.2580   56.2840 O.2   238  LYS238     -0.2867
     71  CB       -73.4530  -29.3210   54.1670 C.3   238  LYS238      0.0271
     72  CG       -74.6430  -29.3490   53.2270 C.3   238  LYS238      0.0035
     73  CD       -75.5380  -28.1300   53.4290 C.3   238  LYS238      0.0206
     74  CE       -74.7850  -26.8240   53.1750 C.3   238  LYS238      0.1093
     75  NZ       -75.7440  -25.6660   53.1910 N.3   238  LYS238     -0.1314
     76  N        -68.3470  -28.4700   55.6740 N.3   240  GLU240     -0.1245
     77  CA       -67.9610  -27.1150   55.4270 C.3   240  GLU240      0.1567
     78  C        -67.2270  -26.5090   56.5970 C.2   240  GLU240      0.2260
     79  O        -66.9990  -25.3060   56.6270 O.2   240  GLU240     -0.2867
     80  CB       -69.1560  -26.2430   54.9890 C.3   240  GLU240      0.0388
     81  CG       -70.4340  -26.4430   55.7730 C.3   240  GLU240      0.1160
     82  CD       -71.5730  -25.6090   55.2240 C.2   240  GLU240      0.3649
     83  OE1      -71.3150  -24.6850   54.3960 O.co2 240  GLU240     -0.2457
     84  OE2      -72.7330  -25.8530   55.6370 O.co2 240  GLU240     -0.2457
     85  N        -72.5510  -33.5490   51.0980 N.3   259  MET259     -0.1245
     86  CA       -72.2260  -32.4600   50.2030 C.3   259  MET259      0.1570
     87  C        -70.8820  -31.8860   50.5500 C.2   259  MET259      0.2261
     88  O        -70.6290  -31.5470   51.7050 O.2   259  MET259     -0.2867
     89  CB       -73.2710  -31.3560   50.3090 C.3   259  MET259      0.0387
     90  CG       -73.1450  -30.3250   49.2000 C.3   259  MET259      0.0595
     91  SD       -74.0080  -28.8090   49.5760 S.3   259  MET259     -0.1393
     92  CE       -75.6940  -29.3210   49.2080 C.3   259  MET259      0.0692
     93  N        -69.3150  -28.8260   50.6960 N.3   261  ALA261     -0.1245
     94  CA       -69.9260  -27.5060   50.6660 C.3   261  ALA261      0.1562
     95  C        -68.8130  -26.4640   50.5700 C.2   261  ALA261      0.2260
     96  O        -68.3560  -25.9380   51.5900 O.2   261  ALA261     -0.2867
     97  CB       -70.7720  -27.2920   51.9270 C.3   261  ALA261      0.0290
     98  N        -68.0940  -23.5590   49.6080 N.3   263  GLY263     -0.1210
     99  CA       -68.1740  -22.1310   49.9110 C.3   263  GLY263      0.1956
    100  C        -67.7140  -21.8290   51.3400 C.2   263  GLY263      0.2611
    101  O        -66.6250  -21.2860   51.5450 O.2   263  GLY263     -0.2717
    102  N        -68.4720  -22.2890   52.3350 N.am  264  ASP264     -0.1973
    103  CA       -67.9730  -22.2120   53.7080 C.3   264  ASP264      0.1709
    104  C        -66.6690  -22.9710   53.9510 C.2   264  ASP264      0.2293
    105  O        -65.7680  -22.4740   54.6490 O.2   264  ASP264     -0.2864
    106  CB       -69.0520  -22.5950   54.7290 C.3   264  ASP264      0.1436
    107  CG       -70.1070  -21.5050   54.8770 C.2   264  ASP264      0.3671
    108  OD1      -71.1960  -21.6390   54.2600 O.co2 264  ASP264     -0.2456
    109  OD2      -69.7650  -20.4340   55.4220 O.co2 264  ASP264     -0.2456
    110  N        -70.4380  -28.8580   45.4640 N.3   295  ALA295     -0.1231
    111  CA       -71.1810  -27.6000   45.4850 C.3   295  ALA295      0.1694
    112  C        -70.2940  -26.3540   45.4480 C.2   295  ALA295      0.2592
    113  O        -69.1870  -26.3530   45.9630 O.2   295  ALA295     -0.2718
    114  CB       -72.1230  -27.5410   46.6840 C.3   295  ALA295      0.0304
    115  N        -70.8140  -25.3090   44.8000 N.am  296  THR296     -0.1953
    116  CA       -70.5330  -23.9040   45.1090 C.3   296  THR296      0.1897
    117  C        -69.4750  -23.2820   44.1830 C.2   296  THR296      0.2313
    118  O        -68.3680  -23.8050   44.0440 O.2   296  THR296     -0.2863
    119  CB       -70.1780  -23.6370   46.5850 C.3   296  THR296      0.1794
    120  OG1      -71.2900  -24.0150   47.4500 O.3   296  THR296     -0.2208
    121  CG2      -69.8450  -22.1310   46.7700 C.3   296  THR296      0.0378
    122  N        -73.6710  -29.0830   41.7190 N.3   328  MET328     -0.1245
    123  CA       -74.6780  -28.1540   42.1900 C.3   328  MET328      0.1570
    124  C        -74.4990  -26.7030   41.6770 C.2   328  MET328      0.2261
    125  O        -73.3850  -26.2530   41.4150 O.2   328  MET328     -0.2867
    126  CB       -74.7150  -28.1570   43.7030 C.3   328  MET328      0.0387
    127  CG       -75.8640  -27.3420   44.2740 C.3   328  MET328      0.0595
    128  SD       -76.1050  -27.7440   46.0060 S.3   328  MET328     -0.1393
    129  CE       -75.4170  -26.2720   46.7750 C.3   328  MET328      0.0692
    130  N        -75.7570  -22.6460   42.7150 N.3   330  SER330     -0.1217
    131  CA       -76.3520  -21.8320   43.7620 C.3   330  SER330      0.1889
    132  C        -76.8840  -20.5080   43.2130 C.2   330  SER330      0.2288
    133  O        -77.9490  -20.4830   42.6060 O.2   330  SER330     -0.2866
    134  CB       -75.3700  -21.6260   44.9150 C.3   330  SER330      0.2089
    135  OG       -75.1310  -22.8700   45.5920 O.3   330  SER330     -0.2183
@<TRIPOS>BOND
     1   125   124    2
     2   124   123    1
     3   122   123    1
     4   123   126    1
     5   133   132    2
     6   130   131    1
     7   132   131    1
     8   126   127    1
     9   131   134    1
    10   118   117    2
    11   117   116    1
    12   127   128    1
    13   115   116    1
    14   115   112   am
    15   134   135    1
    16     1     2    1
    17   116   119    1
    18   112   111    1
    19   112   113    2
    20   110   111    1
    21   111   114    1
    22   128   129    1
    23     4     3    2
    24     2     5    1
    25     2     3    1
    26     5     6    1
    27   119   121    1
    28   119   120    1
    29     7     6    1
    30     7     8    1
    31    10     9    1
    32     8     9    2
    33     9    11    1
    34    90    91    1
    35    90    89    1
    36    92    91    1
    37    98    99    1
    38    12    13    1
    39    99   100    1
    40    16    13    1
    41    16    17    1
    42    86    89    1
    43    86    87    1
    44    86    85    1
    45    19    17   am
    46    87    88    2
    47    95    94    1
    48    95    96    2
    49    94    93    1
    50    94    97    1
    51    13    14    1
    52    17    18    2
    53    33    31   ar
    54   100   101    2
    55   100   102   am
    56    30    31    1
    57    30    27    1
    58    15    14    2
    59    31    32   ar
    60   102   103    1
    61    26    27    1
    62    27    28    1
    63    74    75    1
    64    74    73    1
    65    72    73    1
    66    72    71    1
    67   103   104    1
    68   103   106    1
    69   104   105    2
    70    29    28    2
    71    28    34   am
    72    71    68    1
    73    24    25    1
    74    24    21    1
    75   108   107   ar
    76    68    67    1
    77    68    69    1
    78    83    82   ar
    79    20    21    1
    80    22    21    1
    81    22    23    2
    82   106   107    1
    83   107   109   ar
    84    80    77    1
    85    80    81    1
    86    69    70    2
    87    34    35    1
    88    82    84   ar
    89    82    81    1
    90    77    76    1
    91    77    78    1
    92    55    54    1
    93    37    36    2
    94    48    47   ar
    95    35    36    1
    96    35    38    1
    97    78    79    2
    98    47    49   ar
    99    47    46    1
   100    54    51    1
   101    51    50    1
   102    51    52    1
   103    66    64   ar
   104    66    65   ar
   105    38    40    1
   106    38    39    1
   107    46    45    1
   108    56    52   am
   109    56    57    1
   110    64    62   ar
   111    65    63   ar
   112    52    53    2
   113    62    61   ar
   114    63    61   ar
   115    57    58    1
   116    57    60    1
   117    61    60    1
   118    45    42    1
   119    58    59    2
   120    42    41    1
   121    42    43    1
   122    43    44    2
