@<TRIPOS>MOLECULE
tmp/4hz0A00.pdb
 109 100 0 0 0
SMALL
GASTEIGER

@<TRIPOS>ATOM
      1  N         15.3020   -2.2760    0.2020 N.3    26  VAL26      -0.1245
      2  CA        14.9630   -1.1980   -0.7050 C.3    26  VAL26       0.1561
      3  C         15.7590   -1.3410   -1.9940 C.2    26  VAL26       0.2260
      4  O         15.1920   -1.2900   -3.0910 O.2    26  VAL26      -0.2867
      5  CB        15.1640    0.1930   -0.0740 C.3    26  VAL26       0.0252
      6  CG1       14.6700    1.2850   -1.0210 C.3    26  VAL26       0.0019
      7  CG2       14.4270    0.2840    1.2640 C.3    26  VAL26       0.0019
      8  N         14.4910   -3.9640   -4.4420 N.3    29  ASN29      -0.1225
      9  CA        13.4010   -3.4740   -5.2620 C.3    29  ASN29       0.1785
     10  C         13.8800   -2.6680   -6.4570 C.2    29  ASN29       0.2597
     11  O         13.3800   -2.8730   -7.5660 O.2    29  ASN29      -0.2718
     12  CB        12.4110   -2.6560   -4.4550 C.3    29  ASN29       0.1169
     13  CG        11.9130   -3.3840   -3.2410 C.2    29  ASN29       0.2627
     14  OD1       11.5120   -2.7490   -2.2690 O.2    29  ASN29      -0.2716
     15  ND2       11.9360   -4.7210   -3.2750 N.am   29  ASN29      -0.0877
     16  N         14.8320   -1.7510   -6.2370 N.am   30  SER30      -0.1952
     17  CA        15.3360   -0.8920   -7.3300 C.3    30  SER30       0.1924
     18  C         16.0900   -1.7710   -8.3300 C.2    30  SER30       0.2314
     19  O         15.9350   -1.6230   -9.5520 O.2    30  SER30      -0.2863
     20  CB        16.2150    0.2710   -6.8050 C.3    30  SER30       0.2116
     21  OG        15.4630    1.1970   -6.0040 O.3    30  SER30      -0.2180
     22  N         13.7060   -3.6030  -10.7730 N.3    33  GLU33      -0.1245
     23  CA        13.4050   -2.7300  -11.9090 C.3    33  GLU33       0.1567
     24  C         14.4730   -2.7850  -12.9940 C.2    33  GLU33       0.2260
     25  O         14.1570   -2.7780  -14.1940 O.2    33  GLU33      -0.2867
     26  CB        13.2320   -1.2640  -11.4800 C.3    33  GLU33       0.0388
     27  CG        11.8240   -0.8630  -11.1670 C.3    33  GLU33       0.1160
     28  CD        10.8850   -0.9420  -12.3780 C.2    33  GLU33       0.3649
     29  OE1       10.7550    0.0500  -13.1160 O.co2  33  GLU33      -0.2457
     30  OE2       10.2350   -1.9950  -12.5430 O.co2  33  GLU33      -0.2457
     31  N         16.0980    5.1800   -7.9630 N.3    56  ASP56      -0.1239
     32  CA        16.2770    4.4960   -9.2310 C.3    56  ASP56       0.1674
     33  C         15.5280    5.2710  -10.3060 C.2    56  ASP56       0.2266
     34  O         14.6040    6.0350  -10.0070 O.2    56  ASP56      -0.2867
     35  CB        15.7800    3.0310   -9.1710 C.3    56  ASP56       0.1410
     36  CG        14.2480    2.9130   -8.9460 C.2    56  ASP56       0.3668
     37  OD1       13.4570    3.3970   -9.7860 O.co2  56  ASP56      -0.2456
     38  OD2       13.8250    2.3300   -7.9260 O.co2  56  ASP56      -0.2456
     39  N         10.2210    2.6860  -13.5100 N.3    59  ARG59      -0.1231
     40  CA         8.8880    3.1370  -13.9550 C.3    59  ARG59       0.1694
     41  C          8.2000    4.0160  -12.9100 C.2    59  ARG59       0.2593
     42  O          7.3360    4.8310  -13.2400 O.2    59  ARG59      -0.2718
     43  CB         7.9900    1.9450  -14.3350 C.3    59  ARG59       0.0321
     44  CG         8.4560    1.1780  -15.5710 C.3    59  ARG59       0.0489
     45  CD         7.7080   -0.1560  -15.7440 C.3    59  ARG59       0.2205
     46  NE         8.0290   -1.1220  -14.6970 N.pl3  59  ARG59      -0.0865
     47  CZ         7.3810   -2.2660  -14.4820 C.cat  59  ARG59       0.5346
     48  NH1        6.3600   -2.6130  -15.2450 N.pl3  59  ARG59       0.1354
     49  NH2        7.7530   -3.0690  -13.4920 N.pl3  59  ARG59       0.1354
     50  N          8.6260    3.8820  -11.6570 N.am   60  GLY60      -0.1942
     51  CA         7.9080    4.4770  -10.5540 C.3    60  GLY60       0.2014
     52  C          7.0910    3.3830   -9.9170 C.2    60  GLY60       0.2639
     53  O          6.4870    2.5490  -10.6170 O.2    60  GLY60      -0.2714
     54  N          7.1100    3.3500   -8.5880 N.am   61  MET61      -0.1963
     55  CA         6.2210    2.4750   -7.8450 C.3    61  MET61       0.1722
     56  C          4.8340    2.8570   -8.2920 C.2    61  MET61       0.2458
     57  O          4.6000    4.0400   -8.5580 O.2    61  MET61      -0.2730
     58  CB         6.3980    2.6700   -6.3360 C.3    61  MET61       0.0427
     59  CG         7.7200    2.1090   -5.8390 C.3    61  MET61       0.0599
     60  SD         7.9430    1.9880   -4.0510 S.3    61  MET61      -0.1393
     61  CE         6.7580    0.7180   -3.6170 C.3    61  MET61       0.0692
     62  N          3.9180    1.8690   -8.4030 N.am   62  PRO62      -0.2727
     63  CA         2.5820    2.1690   -8.9380 C.3    62  PRO62       0.1402
     64  C          1.7770    3.0530   -7.9960 C.2    62  PRO62       0.2269
     65  O          1.8000    2.8360   -6.7780 O.2    62  PRO62      -0.2865
     66  CB         1.9260    0.7860   -9.0870 C.3    62  PRO62       0.0296
     67  CG         2.7450   -0.1580   -8.2710 C.3    62  PRO62       0.0237
     68  CD         4.1240    0.4170   -8.1990 C.3    62  PRO62       0.0939
     69  N          1.6430   -1.4710   -0.7630 N.3    77  ILE77      -0.1245
     70  CA         2.9950   -2.0020   -0.7440 C.3    77  ILE77       0.1561
     71  C          3.7580   -1.7220    0.5700 C.2    77  ILE77       0.2260
     72  O          4.3850   -2.6330    1.1480 O.2    77  ILE77      -0.2867
     73  CB         3.7730   -1.4720   -1.9680 C.3    77  ILE77       0.0252
     74  CG1        3.0270   -1.8630   -3.2540 C.3    77  ILE77       0.0019
     75  CG2        5.2030   -1.9850   -1.9560 C.3    77  ILE77       0.0019
     76  CD1        3.6930   -1.4700   -4.5570 C.3    77  ILE77       0.0001
     77  N          9.4430   -3.9160    1.5140 N.3   101  ILE101     -0.1245
     78  CA         9.6870   -2.5790    2.0090 C.3   101  ILE101      0.1561
     79  C          8.7880   -2.2780    3.2310 C.2   101  ILE101      0.2260
     80  O          9.0440   -1.3400    3.9630 O.2   101  ILE101     -0.2867
     81  CB         9.4850   -1.5180    0.9040 C.3   101  ILE101      0.0252
     82  CG1        9.8480   -0.1180    1.4250 C.3   101  ILE101      0.0019
     83  CG2        8.0530   -1.5800    0.3470 C.3   101  ILE101      0.0019
     84  CD1       10.1900    0.8700    0.3470 C.3   101  ILE101      0.0001
     85  N          6.2050    9.9330  -12.1070 N.3   117  ARG117     -0.1245
     86  CA         5.3610    9.2630  -13.1060 C.3   117  ARG117      0.1563
     87  C          4.5590   10.2980  -13.9280 C.2   117  ARG117      0.2260
     88  O          3.9290   11.2100  -13.3700 O.2   117  ARG117     -0.2867
     89  CB         4.4180    8.2370  -12.4500 C.3   117  ARG117      0.0307
     90  CG         5.1230    6.9810  -11.9510 C.3   117  ARG117      0.0489
     91  CD         4.1850    5.9420  -11.3460 C.3   117  ARG117      0.2205
     92  NE         3.3570    5.3790  -12.3880 N.pl3 117  ARG117     -0.0865
     93  CZ         3.5180    4.1800  -12.9390 C.cat 117  ARG117      0.5346
     94  NH1        4.4720    3.3360  -12.5430 N.pl3 117  ARG117      0.1354
     95  NH2        2.6870    3.8250  -13.9020 N.pl3 117  ARG117      0.1354
     96  N         11.7890    6.1740   -8.7530 N.3   148  THR148     -0.1218
     97  CA        11.3710    6.1340   -7.3510 C.3   148  THR148      0.1862
     98  C         12.5210    6.5510   -6.4510 C.2   148  THR148      0.2287
     99  O         13.6460    6.1470   -6.6680 O.2   148  THR148     -0.2866
    100  CB        10.9110    4.6970   -6.9730 C.3   148  THR148      0.1770
    101  OG1        9.8710    4.2880   -7.8690 O.3   148  THR148     -0.2211
    102  CG2       10.3770    4.5990   -5.5130 C.3   148  THR148      0.0375
    103  N         13.2560    6.2390   -2.3180 N.3   150  VAL150     -0.1245
    104  CA        12.8320    5.8590   -0.9800 C.3   150  VAL150      0.1561
    105  C         13.8800    6.3930   -0.0160 C.2   150  VAL150      0.2260
    106  O         15.0740    6.0750   -0.1680 O.2   150  VAL150     -0.2867
    107  CB        12.7110    4.3270   -0.8220 C.3   150  VAL150      0.0252
    108  CG1       12.3630    3.9540    0.6340 C.3   150  VAL150      0.0019
    109  CG2       11.6960    3.7610   -1.8090 C.3   150  VAL150      0.0019
@<TRIPOS>BOND
     1    45    44    1
     2    45    46    1
     3    44    43    1
     4    48    47    1
     5    46    47    2
     6    47    49    1
     7    43    40    1
     8    25    24    2
     9    40    39    1
    10    40    41    1
    11    87    88    2
    12    87    86    1
    13    95    93    1
    14    42    41    2
    15    29    28   ar
    16    86    89    1
    17    86    85    1
    18    24    23    1
    19    93    94    1
    20    93    92    2
    21    41    50   am
    22    30    28   ar
    23    89    90    1
    24    92    91    1
    25    28    27    1
    26    90    91    1
    27    23    26    1
    28    23    22    1
    29    50    51    1
    30    26    27    1
    31    53    52    2
    32    51    52    1
    33    33    34    2
    34    33    32    1
    35    52    54   am
    36    37    36   ar
    37    19    18    2
    38    32    35    1
    39    32    31    1
    40    35    36    1
    41    66    63    1
    42    66    67    1
    43    36    38   ar
    44    63    62    1
    45    63    64    1
    46    96    97    1
    47    54    55    1
    48    57    56    2
    49    62    56   am
    50    62    68    1
    51    18    17    1
    52    56    55    1
    53    67    68    1
    54    64    65    2
    55   101   100    1
    56    55    58    1
    57    11    10    2
    58    97   100    1
    59    97    98    1
    60    17    20    1
    61    17    16    1
    62   100   102    1
    63    20    21    1
    64    99    98    2
    65    10    16   am
    66    10     9    1
    67    58    59    1
    68    59    60    1
    69     9    12    1
    70     9     8    1
    71    76    74    1
    72    12    13    1
    73    60    61    1
    74    15    13   am
    75    74    73    1
    76    13    14    2
    77     4     3    2
    78   103   104    1
    79     3     2    1
    80    73    75    1
    81    73    70    1
    82   109   107    1
    83     6     5    1
    84   104   107    1
    85   104   105    1
    86   107   108    1
    87    69    70    1
    88    70    71    1
    89     2     5    1
    90     2     1    1
    91   106   105    2
    92     5     7    1
    93    83    81    1
    94    84    82    1
    95    71    72    2
    96    81    82    1
    97    81    78    1
    98    77    78    1
    99    78    79    1
   100    79    80    2
