@<TRIPOS>MOLECULE
tmp/4hz2B00.pdb
 156 149 0 0 0
SMALL
GASTEIGER

@<TRIPOS>ATOM
      1  N         28.3550   34.0970   49.3610 N.3     7  MET7       -0.1245
      2  CA        29.4410   33.5120   50.1240 C.3     7  MET7        0.1570
      3  C         30.3680   32.8270   49.1350 C.2     7  MET7        0.2261
      4  O         29.9280   32.0030   48.3400 O.2     7  MET7       -0.2867
      5  CB        28.8820   32.4690   51.1030 C.3     7  MET7        0.0387
      6  CG        28.0070   33.0550   52.1890 C.3     7  MET7        0.0595
      7  SD        27.2140   31.7310   53.1290 S.3     7  MET7       -0.1393
      8  CE        26.0880   32.6900   54.1460 C.3     7  MET7        0.0692
      9  N         30.1190   28.9650   47.7650 N.3    10  SER10      -0.1217
     10  CA        28.7260   28.4980   47.6710 C.3    10  SER10       0.1889
     11  C         28.2890   28.2140   46.2390 C.2    10  SER10       0.2288
     12  O         28.4200   29.0570   45.3350 O.2    10  SER10      -0.2866
     13  CB        27.7870   29.5670   48.2360 C.3    10  SER10       0.2089
     14  OG        26.4230   29.3090   47.8800 O.3    10  SER10      -0.2183
     15  N         25.1620   27.6940   45.3360 N.3    12  ASN12      -0.1240
     16  CA        23.9530   28.4980   45.0360 C.3    12  ASN12       0.1653
     17  C         24.3320   29.9050   44.5850 C.2    12  ASN12       0.2266
     18  O         23.7020   30.4540   43.6720 O.2    12  ASN12      -0.2867
     19  CB        22.9750   28.5290   46.2130 C.3    12  ASN12       0.1155
     20  CG        22.3170   27.1730   46.4410 C.2    12  ASN12       0.2627
     21  OD1       21.9050   26.5050   45.4830 O.2    12  ASN12      -0.2716
     22  ND2       22.2410   26.7400   47.7070 N.am   12  ASN12      -0.0877
     23  N         27.4570   34.3330   57.4340 N.3    34  SER34      -0.1202
     24  CA        26.3140   33.6480   58.0250 C.3    34  SER34       0.2020
     25  C         26.1100   34.1190   59.4700 C.2    34  SER34       0.2619
     26  O         27.0310   34.0680   60.2770 O.2    34  SER34      -0.2717
     27  CB        26.5340   32.1290   57.9770 C.3    34  SER34       0.2103
     28  OG        25.4180   31.4260   58.4880 O.3    34  SER34      -0.2182
     29  N         24.9080   34.5830   59.8010 N.am   35  GLY35      -0.1956
     30  CA        24.6260   34.9970   61.1750 C.3    35  GLY35       0.1869
     31  C         24.3380   36.4800   61.3150 C.2    35  GLY35       0.2309
     32  O         24.0780   37.1630   60.3250 O.2    35  GLY35      -0.2863
     33  N         23.6350   37.2780   56.9570 N.3    39  THR39      -0.1203
     34  CA        22.3270   36.7400   56.5810 C.3    39  THR39       0.1994
     35  C         21.2360   36.9540   57.6360 C.2    39  THR39       0.2617
     36  O         20.0500   36.9550   57.3030 O.2    39  THR39      -0.2717
     37  CB        22.4000   35.2280   56.3100 C.3    39  THR39       0.1784
     38  OG1       22.9890   34.5690   57.4400 O.3    39  THR39      -0.2211
     39  CG2       23.2190   34.9190   55.0380 C.3    39  THR39       0.0376
     40  N         21.6120   37.1160   58.9010 N.am   40  ARG40      -0.1979
     41  CA        20.6080   37.3910   59.9360 C.3    40  ARG40       0.1597
     42  C         20.6330   38.8430   60.4160 C.2    40  ARG40       0.2287
     43  O         20.0250   39.1630   61.4430 O.2    40  ARG40      -0.2864
     44  CB        20.7550   36.4420   61.1330 C.3    40  ARG40       0.0334
     45  CG        20.7690   34.9580   60.7820 C.3    40  ARG40       0.0492
     46  CD        19.5480   34.5110   59.9790 C.3    40  ARG40       0.2205
     47  NE        18.2700   34.9470   60.5490 N.pl3  40  ARG40      -0.0865
     48  CZ        17.0740   34.5970   60.0770 C.cat  40  ARG40       0.5346
     49  NH1       16.9750   33.7860   59.0240 N.pl3  40  ARG40       0.1354
     50  NH2       15.9700   35.0540   60.6580 N.pl3  40  ARG40       0.1354
     51  N         16.4060   35.2580   54.6750 N.3    51  GLY51      -0.1210
     52  CA        17.7200   35.2800   55.3130 C.3    51  GLY51       0.1956
     53  C         18.7530   34.3650   54.6690 C.2    51  GLY51       0.2612
     54  O         19.6200   33.8170   55.3590 O.2    51  GLY51      -0.2717
     55  N         18.6740   34.1920   53.3490 N.am   52  LYS52      -0.1965
     56  CA        19.6160   33.3380   52.6360 C.3    52  LYS52       0.1728
     57  C         20.2750   34.0770   51.4790 C.2    52  LYS52       0.2616
     58  O         19.6570   34.9450   50.8590 O.2    52  LYS52      -0.2715
     59  CB        18.8830   32.1240   52.0940 C.3    52  LYS52       0.0311
     60  CG        18.4020   31.1490   53.1690 C.3    52  LYS52       0.0038
     61  CD        17.7240   29.9530   52.5170 C.3    52  LYS52       0.0206
     62  CE        17.0010   29.0840   53.5380 C.3    52  LYS52       0.1093
     63  NZ        17.9020   28.5800   54.6080 N.3    52  LYS52      -0.1314
     64  N         21.5180   33.7180   51.1770 N.am   53  VAL53      -0.1964
     65  CA        22.1530   34.1340   49.9370 C.3    53  VAL53       0.1712
     66  C         22.0380   32.9990   48.8930 C.2    53  VAL53       0.2458
     67  O         21.9010   31.8140   49.2520 O.2    53  VAL53      -0.2730
     68  CB        23.6330   34.5410   50.1500 C.3    53  VAL53       0.0289
     69  CG1       23.7330   35.7990   51.0060 C.3    53  VAL53       0.0023
     70  CG2       24.4330   33.4080   50.7780 C.3    53  VAL53       0.0023
     71  N         22.1140   33.3330   47.5910 N.am   54  PRO54      -0.2727
     72  CA        22.3820   34.6390   46.9850 C.3    54  PRO54       0.1402
     73  C         21.1880   35.5650   46.9690 C.2    54  PRO54       0.2269
     74  O         20.0330   35.1260   46.9120 O.2    54  PRO54      -0.2865
     75  CB        22.7440   34.2840   45.5400 C.3    54  PRO54       0.0296
     76  CG        21.9860   32.9920   45.2820 C.3    54  PRO54       0.0237
     77  CD        22.1270   32.2470   46.5830 C.3    54  PRO54       0.0939
     78  N         16.5740   33.4980   45.8780 N.3    66  GLU66      -0.1231
     79  CA        16.4000   32.1010   45.4210 C.3    66  GLU66       0.1699
     80  C         17.2120   31.8290   44.1600 C.2    66  GLU66       0.2593
     81  O         16.8500   32.2430   43.0500 O.2    66  GLU66      -0.2718
     82  CB        14.9230   31.6980   45.2270 C.3    66  GLU66       0.0402
     83  CG        14.1570   31.6230   46.5360 C.3    66  GLU66       0.1161
     84  CD        14.7230   30.5330   47.4340 C.2    66  GLU66       0.3649
     85  OE1       15.1140   29.4590   46.8830 O.co2  66  GLU66      -0.2457
     86  OE2       14.7770   30.7330   48.6690 O.co2  66  GLU66      -0.2457
     87  N         18.3020   31.0950   44.3160 N.am   67  SER67      -0.1938
     88  CA        19.2280   30.9110   43.2050 C.3    67  SER67       0.2055
     89  C         18.5610   30.4070   41.9310 C.2    67  SER67       0.2643
     90  O         18.9490   30.8170   40.8460 O.2    67  SER67      -0.2714
     91  CB        20.4190   30.0210   43.6030 C.3    67  SER67       0.2130
     92  OG        19.9820   28.7130   43.9090 O.3    67  SER67      -0.2179
     93  N         17.6100   29.4730   42.0400 N.am   68  ASN68      -0.1971
     94  CA        17.0140   28.9470   40.8240 C.3    68  ASN68       0.1688
     95  C         16.0280   29.9490   40.1840 C.2    68  ASN68       0.2292
     96  O         15.8200   29.9480   38.9440 O.2    68  ASN68      -0.2864
     97  CB        16.3610   27.5900   41.0680 C.3    68  ASN68       0.1181
     98  CG        17.3900   26.4540   41.2740 C.2    68  ASN68       0.2629
     99  OD1       18.5980   26.6590   41.2050 O.2    68  ASN68      -0.2716
    100  ND2       16.8880   25.2530   41.5050 N.am   68  ASN68      -0.0877
    101  N         16.3650   21.3440   44.0180 N.3    99  GLN99      -0.1245
    102  CA        16.1690   21.9590   45.3250 C.3    99  GLN99       0.1566
    103  C         15.6550   20.9720   46.3710 C.2    99  GLN99       0.2260
    104  O         15.9060   21.1340   47.5630 O.2    99  GLN99      -0.2867
    105  CB        15.2100   23.1500   45.1860 C.3    99  GLN99       0.0367
    106  CG        15.8960   24.3660   44.5780 C.3    99  GLN99       0.0905
    107  CD        16.8280   25.0740   45.5160 C.2    99  GLN99       0.2608
    108  OE1       16.3930   25.5630   46.5650 O.2    99  GLN99      -0.2717
    109  NE2       18.1300   25.1610   45.1420 N.am   99  GLN99      -0.0878
    110  N         20.2940   19.1700   46.1560 N.3   103  GLU103     -0.1245
    111  CA        20.9900   20.1750   46.9730 C.3   103  GLU103      0.1567
    112  C         21.0270   19.8190   48.4770 C.2   103  GLU103      0.2260
    113  O         22.0850   19.9170   49.1090 O.2   103  GLU103     -0.2867
    114  CB        20.3570   21.5670   46.7570 C.3   103  GLU103      0.0388
    115  CG        21.2930   22.7270   47.0840 C.3   103  GLU103      0.1160
    116  CD        21.1930   23.1940   48.5180 C.2   103  GLU103      0.3649
    117  OE1       20.4870   22.5390   49.3170 O.co2 103  GLU103     -0.2457
    118  OE2       21.8360   24.2030   48.8660 O.co2 103  GLU103     -0.2457
    119  N         29.2750   21.0550   52.6010 N.3   111  TYR111     -0.1241
    120  CA        29.3670   22.0810   53.6210 C.3   111  TYR111      0.1605
    121  C         29.8910   21.5280   54.9540 C.2   111  TYR111      0.2264
    122  O         30.8560   22.0350   55.5380 O.2   111  TYR111     -0.2867
    123  CB        28.0090   22.7410   53.8030 C.3   111  TYR111      0.0534
    124  CG        28.0330   23.8930   54.7710 C.ar  111  TYR111     -0.0201
    125  CD1       28.6000   25.1110   54.4110 C.ar  111  TYR111     -0.0009
    126  CD2       27.5080   23.7640   56.0440 C.ar  111  TYR111     -0.0009
    127  CE1       28.6270   26.1700   55.2980 C.ar  111  TYR111      0.0417
    128  CE2       27.5380   24.8120   56.9390 C.ar  111  TYR111      0.0417
    129  CZ        28.0960   26.0120   56.5590 C.ar  111  TYR111      0.1957
    130  OH        28.1190   27.0550   57.4470 O.3   111  TYR111     -0.2866
    131  N         33.6930   22.2910   54.2350 N.3   115  TRP115     -0.1241
    132  CA        33.6410   23.7180   54.5520 C.3   115  TRP115      0.1605
    133  C         33.8330   23.9180   56.0570 C.2   115  TRP115      0.2264
    134  O         34.7930   24.5650   56.4870 O.2   115  TRP115     -0.2867
    135  CB        32.3150   24.3110   54.0800 C.3   115  TRP115      0.0550
    136  CG        32.2270   25.8100   54.0750 C.ar  115  TRP115      0.0003
    137  CD1       32.5990   26.6720   55.0840 C.ar  115  TRP115      0.0946
    138  CD2       31.6860   26.6320   53.0250 C.ar  115  TRP115      0.0152
    139  NE1       32.3380   27.9740   54.7130 N.ar  115  TRP115     -0.2442
    140  CE2       31.7810   27.9810   53.4570 C.ar  115  TRP115      0.0810
    141  CE3       31.1410   26.3620   51.7550 C.ar  115  TRP115      0.0012
    142  CZ2       31.3340   29.0580   52.6650 C.ar  115  TRP115      0.0191
    143  CZ3       30.6990   27.4340   50.9690 C.ar  115  TRP115      0.0001
    144  CH2       30.8010   28.7640   51.4280 C.ar  115  TRP115      0.0015
    145  N         26.6990   22.2870   42.3440 N.3   165  TYR165     -0.1241
    146  CA        27.3200   21.4360   43.3630 C.3   165  TYR165      0.1605
    147  C         27.8890   20.1320   42.8280 C.2   165  TYR165      0.2264
    148  O         28.8460   19.6020   43.3950 O.2   165  TYR165     -0.2867
    149  CB        26.3380   21.1560   44.5110 C.3   165  TYR165      0.0534
    150  CG        26.0960   22.3980   45.3360 C.ar  165  TYR165     -0.0201
    151  CD1       27.0240   22.8230   46.2880 C.ar  165  TYR165     -0.0009
    152  CD2       24.9500   23.1500   45.1500 C.ar  165  TYR165     -0.0009
    153  CE1       26.7980   23.9500   47.0670 C.ar  165  TYR165      0.0417
    154  CE2       24.7210   24.2840   45.9090 C.ar  165  TYR165      0.0417
    155  CZ        25.6540   24.6780   46.8550 C.ar  165  TYR165      0.1957
    156  OH        25.4250   25.8110   47.6080 O.3   165  TYR165     -0.2866
@<TRIPOS>BOND
     1    96    95    2
     2    95    94    1
     3    94    97    1
     4    94    93    1
     5    90    89    2
     6    97    98    1
     7    99    98    2
     8    98   100   am
     9    89    93   am
    10    89    88    1
    11   145   146    1
    12   147   146    1
    13   147   148    2
    14    81    80    2
    15    88    91    1
    16    88    87    1
    17   146   149    1
    18    91    92    1
    19    18    17    2
    20   101   102    1
    21    80    87   am
    22    80    79    1
    23   149   150    1
    24   106   105    1
    25   106   107    1
    26    17    16    1
    27    16    15    1
    28    16    19    1
    29   109   107   am
    30   152   150   ar
    31   152   154   ar
    32   105   102    1
    33    82    79    1
    34    82    83    1
    35    76    75    1
    36    76    77    1
    37   102   103    1
    38    12    11    2
    39   150   151   ar
    40    79    78    1
    41    21    20    2
    42   107   108    2
    43    75    72    1
    44   154   155   ar
    45   110   111    1
    46    19    20    1
    47    11    10    1
    48   151   153   ar
    49   103   104    2
    50    20    22   am
    51    83    84    1
    52    77    71    1
    53   114   111    1
    54   114   115    1
    55   155   153   ar
    56   155   156    1
    57    85    84   ar
    58    74    73    2
    59    73    72    1
    60   111   112    1
    61    72    71    1
    62   115   116    1
    63    84    86   ar
    64    71    66   am
    65    10     9    1
    66    10    13    1
    67    14    13    1
    68     4     3    2
    69   112   113    2
    70   116   118   ar
    71   116   117   ar
    72    66    67    2
    73    66    65    1
    74     3     2    1
    75     1     2    1
    76    65    68    1
    77    65    64    1
    78     2     5    1
    79    68    70    1
    80    68    69    1
    81    58    57    2
    82   143   144   ar
    83   143   141   ar
    84     5     6    1
    85    64    57   am
    86   144   142   ar
    87    57    56    1
    88   141   138   ar
    89    59    56    1
    90    59    60    1
    91     6     7    1
    92    61    60    1
    93    61    62    1
    94   119   120    1
    95    56    55    1
    96   142   140   ar
    97   138   140   ar
    98   138   136   ar
    99     7     8    1
   100    55    53   am
   101   140   139   ar
   102    62    63    1
   103   120   123    1
   104   120   121    1
   105   123   124    1
   106   136   135    1
   107   136   137   ar
   108   135   132    1
   109   131   132    1
   110   125   124   ar
   111   125   127   ar
   112   132   133    1
   113    53    52    1
   114    53    54    2
   115    51    52    1
   116   139   137   ar
   117   124   126   ar
   118   121   122    2
   119    39    37    1
   120   127   129   ar
   121   126   128   ar
   122   133   134    2
   123    37    34    1
   124    37    38    1
   125   129   128   ar
   126   129   130    1
   127    34    33    1
   128    34    35    1
   129    36    35    2
   130    23    24    1
   131    35    40   am
   132    27    24    1
   133    27    28    1
   134    24    25    1
   135    40    41    1
   136    49    48    1
   137    25    29   am
   138    25    26    2
   139    29    30    1
   140    41    42    1
   141    41    44    1
   142    46    47    1
   143    46    45    1
   144    48    47    2
   145    48    50    1
   146    32    31    2
   147    42    43    2
   148    45    44    1
   149    30    31    1
