@<TRIPOS>MOLECULE
tmp/4hz2A01.pdb
 103 99 0 0 0
SMALL
GASTEIGER

@<TRIPOS>ATOM
      1  N         -1.2470   10.4290   45.9250 N.3     7  MET7       -0.1230
      2  CA        -1.6380    9.8810   47.2100 C.3     7  MET7        0.1702
      3  C         -2.7220   10.7590   47.8080 C.2     7  MET7        0.2592
      4  O         -2.5750   11.9900   47.8960 O.2     7  MET7       -0.2718
      5  CB        -0.4280    9.8000   48.1360 C.3     7  MET7        0.0401
      6  CG         0.5840    8.7740   47.6990 C.3     7  MET7        0.0596
      7  SD         2.1470    8.9700   48.5930 S.3     7  MET7       -0.1393
      8  CE         3.1670    7.7250   47.7490 C.3     7  MET7        0.0692
      9  N         -3.8290   10.1400   48.2040 N.am    8  ASN8       -0.1960
     10  CA        -4.9500   10.8830   48.7490 C.3     8  ASN8        0.1819
     11  C         -4.5090   11.5230   50.0540 C.2     8  ASN8        0.2622
     12  O         -3.9450   10.8480   50.9270 O.2     8  ASN8       -0.2715
     13  CB        -6.0820    9.9140   49.0410 C.3     8  ASN8        0.1195
     14  CG        -7.4050   10.6080   49.2810 C.2     8  ASN8        0.2630
     15  OD1       -7.5810   11.7980   48.9790 O.2     8  ASN8       -0.2716
     16  ND2       -8.3410    9.8720   49.8350 N.am    8  ASN8       -0.0877
     17  N         -4.7330   12.8250   50.2000 N.am    9  GLY9       -0.1940
     18  CA        -4.2730   13.5220   51.3980 C.3     9  GLY9        0.2014
     19  C         -2.9750   14.2980   51.1750 C.2     9  GLY9        0.2639
     20  O         -2.6050   15.1270   51.9990 O.2     9  GLY9       -0.2714
     21  N         -2.2730   14.0360   50.0720 N.am   10  SER10      -0.1949
     22  CA        -0.9900   14.7030   49.8080 C.3    10  SER10       0.1924
     23  C         -1.2020   16.1470   49.3210 C.2    10  SER10       0.2314
     24  O         -1.9540   16.3800   48.3820 O.2    10  SER10      -0.2863
     25  CB        -0.1870   13.9380   48.7630 C.3    10  SER10       0.2116
     26  OG         0.8720   14.7480   48.2510 O.3    10  SER10      -0.2180
     27  N          1.1900   17.9850   47.8950 N.3    12  ASN12      -0.1240
     28  CA         1.8420   18.1170   46.5750 C.3    12  ASN12       0.1653
     29  C          0.9350   17.5820   45.4750 C.2    12  ASN12       0.2266
     30  O          0.8410   18.1430   44.3830 O.2    12  ASN12      -0.2867
     31  CB         3.2150   17.4310   46.5440 C.3    12  ASN12       0.1155
     32  CG         4.2300   18.1490   47.4250 C.2    12  ASN12       0.2627
     33  OD1        4.3780   19.3910   47.3530 O.2    12  ASN12      -0.2716
     34  ND2        4.9780   17.3940   48.2170 N.am   12  ASN12      -0.0877
     35  N          5.3530   10.9410   43.5920 N.3    53  VAL53      -0.1245
     36  CA         4.1100   11.5320   43.1170 C.3    53  VAL53       0.1561
     37  C          4.0870   12.9940   43.5850 C.2    53  VAL53       0.2260
     38  O          4.7460   13.3200   44.5740 O.2    53  VAL53      -0.2867
     39  CB         2.8770   10.8040   43.6980 C.3    53  VAL53       0.0252
     40  CG1        2.7560    9.4280   43.0670 C.3    53  VAL53       0.0019
     41  CG2        2.9800   10.6970   45.2210 C.3    53  VAL53       0.0019
     42  N          5.0430   19.8710   55.6140 N.3   107  ALA107     -0.1245
     43  CA         4.4720   18.6480   55.0130 C.3   107  ALA107      0.1562
     44  C          4.9850   17.4070   55.7430 C.2   107  ALA107      0.2260
     45  O          4.2230   16.4650   56.0210 O.2   107  ALA107     -0.2867
     46  CB         4.7830   18.5340   53.5080 C.3   107  ALA107      0.0290
     47  N          3.3760   16.9930   59.2660 N.3   110  ARG110     -0.1231
     48  CA         1.9850   16.5760   59.1000 C.3   110  ARG110      0.1694
     49  C          1.9240   15.0800   58.8030 C.2   110  ARG110      0.2592
     50  O          1.0690   14.3780   59.3370 O.2   110  ARG110     -0.2718
     51  CB         1.3090   17.3640   57.9730 C.3   110  ARG110      0.0321
     52  CG        -0.0270   16.8070   57.5010 C.3   110  ARG110      0.0489
     53  CD        -0.7310   17.8190   56.6370 C.3   110  ARG110      0.2205
     54  NE        -1.9940   17.3800   56.0410 N.pl3 110  ARG110     -0.0865
     55  CZ        -2.1050   16.7610   54.8560 C.cat 110  ARG110      0.5346
     56  NH1       -1.0030   16.4430   54.1590 N.pl3 110  ARG110      0.1354
     57  NH2       -3.3200   16.4680   54.3700 N.pl3 110  ARG110      0.1354
     58  N          2.8110   14.6110   57.9320 N.am  111  TYR111     -0.1976
     59  CA         2.8190   13.2100   57.5150 C.3   111  TYR111      0.1639
     60  C          3.2330   12.3010   58.6880 C.2   111  TYR111      0.2290
     61  O          2.5650   11.3040   59.0060 O.2   111  TYR111     -0.2864
     62  CB         3.7900   13.0700   56.3600 C.3   111  TYR111      0.0560
     63  CG         3.9920   11.6730   55.8820 C.ar  111  TYR111     -0.0198
     64  CD1        3.0380   11.0390   55.0980 C.ar  111  TYR111     -0.0009
     65  CD2        5.1540   10.9790   56.1970 C.ar  111  TYR111     -0.0009
     66  CE1        3.2430    9.7490   54.6260 C.ar  111  TYR111      0.0417
     67  CE2        5.3580    9.6860   55.7450 C.ar  111  TYR111      0.0417
     68  CZ         4.3940    9.0760   54.9660 C.ar  111  TYR111      0.1957
     69  OH         4.5980    7.7860   54.5180 O.3   111  TYR111     -0.2866
     70  N         -0.4660   11.4600   59.7050 N.3   115  TRP115     -0.1241
     71  CA        -0.7100   10.3340   58.8150 C.3   115  TRP115      0.1605
     72  C         -0.2100    9.0210   59.4540 C.2   115  TRP115      0.2264
     73  O         -0.9810    8.0620   59.6530 O.2   115  TRP115     -0.2867
     74  CB        -0.1230   10.5730   57.4040 C.3   115  TRP115      0.0550
     75  CG        -0.4630    9.4070   56.4820 C.ar  115  TRP115      0.0003
     76  CD1        0.3920    8.4400   56.0190 C.ar  115  TRP115      0.0946
     77  CD2       -1.7700    9.0640   55.9650 C.ar  115  TRP115      0.0152
     78  NE1       -0.2970    7.5350   55.2230 N.ar  115  TRP115     -0.2442
     79  CE2       -1.6210    7.8910   55.1790 C.ar  115  TRP115      0.0810
     80  CE3       -3.0380    9.6450   56.0760 C.ar  115  TRP115      0.0012
     81  CZ2       -2.6970    7.2890   54.5160 C.ar  115  TRP115      0.0191
     82  CZ3       -4.1060    9.0530   55.4150 C.ar  115  TRP115      0.0001
     83  CH2       -3.9290    7.8810   54.6420 C.ar  115  TRP115      0.0015
     84  N         -0.1440   22.8880   51.7190 N.3   165  TYR165     -0.1241
     85  CA         0.0750   22.3860   53.0820 C.3   165  TYR165      0.1605
     86  C         -0.2860   23.4060   54.1610 C.2   165  TYR165      0.2264
     87  O         -0.6630   23.0260   55.2480 O.2   165  TYR165     -0.2867
     88  CB         1.5130   21.9040   53.2850 C.3   165  TYR165      0.0534
     89  CG         1.7990   20.6250   52.5490 C.ar  165  TYR165     -0.0201
     90  CD1        1.3450   19.3980   53.0630 C.ar  165  TYR165     -0.0009
     91  CD2        2.4850   20.6320   51.3260 C.ar  165  TYR165     -0.0009
     92  CE1        1.6030   18.2070   52.3930 C.ar  165  TYR165      0.0417
     93  CE2        2.7220   19.4530   50.6400 C.ar  165  TYR165      0.0417
     94  CZ         2.2700   18.2450   51.1840 C.ar  165  TYR165      0.1957
     95  OH         2.5360   17.0820   50.5000 O.3   165  TYR165     -0.2866
     96  N         -7.0640   14.4980   57.5850 N.3   201  LEU201     -0.1245
     97  CA        -6.4900   13.1500   57.4500 C.3   201  LEU201      0.1561
     98  C         -7.2550   12.0790   58.2430 C.2   201  LEU201      0.2260
     99  O         -7.3340   10.9330   57.8050 O.2   201  LEU201     -0.2867
    100  CB        -5.0010   13.1200   57.7960 C.3   201  LEU201      0.0270
    101  CG        -4.0950   13.8540   56.8060 C.3   201  LEU201      0.0019
    102  CD1       -2.6420   13.8450   57.2930 C.3   201  LEU201      0.0001
    103  CD2       -4.2100   13.2360   55.4110 C.3   201  LEU201      0.0001
@<TRIPOS>BOND
     1    40    39    1
     2    36    37    1
     3    36    35    1
     4    36    39    1
     5    37    38    2
     6    39    41    1
     7    30    29    2
     8    29    28    1
     9     1     2    1
    10    31    28    1
    11    31    32    1
    12    28    27    1
    13     2     3    1
    14     2     5    1
    15    33    32    2
    16    32    34   am
    17     6     5    1
    18     6     7    1
    19     8     7    1
    20     3     4    2
    21     3     9   am
    22     9    10    1
    23    26    25    1
    24    24    23    2
    25    10    13    1
    26    10    11    1
    27    25    22    1
    28    15    14    2
    29    13    14    1
    30    14    16   am
    31    23    22    1
    32    22    21    1
    33    11    17   am
    34    11    12    2
    35    21    19   am
    36    17    18    1
    37    95    94    1
    38    93    94   ar
    39    93    91   ar
    40    19    18    1
    41    19    20    2
    42    94    92   ar
    43    91    89   ar
    44    84    85    1
    45    92    90   ar
    46    89    90   ar
    47    89    88    1
    48    85    88    1
    49    85    86    1
    50    46    43    1
    51    56    55    1
    52    86    87    2
    53    57    55    1
    54    81    83   ar
    55    81    79   ar
    56    69    68    1
    57    66    68   ar
    58    66    64   ar
    59    83    82   ar
    60    55    54    2
    61    68    67   ar
    62    43    42    1
    63    43    44    1
    64    64    63   ar
    65    79    78   ar
    66    79    77   ar
    67    78    76   ar
    68   103   101    1
    69    82    80   ar
    70    44    45    2
    71    67    65   ar
    72    63    65   ar
    73    63    62    1
    74    77    80   ar
    75    77    75   ar
    76    76    75   ar
    77    54    53    1
    78    62    59    1
    79    75    74    1
    80    53    52    1
    81   101   102    1
    82   101   100    1
    83    74    71    1
    84    97    96    1
    85    97   100    1
    86    97    98    1
    87    52    51    1
    88    59    58    1
    89    59    60    1
    90    99    98    2
    91    58    49   am
    92    51    48    1
    93    60    61    2
    94    49    48    1
    95    49    50    2
    96    71    72    1
    97    71    70    1
    98    48    47    1
    99    72    73    2
