@<TRIPOS>MOLECULE
tmp/4hz5F00.pdb
 138 129 0 0 0
SMALL
GASTEIGER

@<TRIPOS>ATOM
      1  N         39.9980   58.4680  -45.7460 N.3    28  ILE28      -0.1245
      2  CA        38.9930   59.4990  -45.5000 C.3    28  ILE28       0.1561
      3  C         39.5920   60.8840  -45.7610 C.2    28  ILE28       0.2260
      4  O         38.9310   61.7420  -46.3490 O.2    28  ILE28      -0.2867
      5  CB        38.3720   59.3890  -44.0810 C.3    28  ILE28       0.0252
      6  CG1       37.8370   57.9720  -43.8240 C.3    28  ILE28       0.0019
      7  CG2       37.2600   60.4150  -43.8820 C.3    28  ILE28       0.0019
      8  CD1       36.7410   57.5150  -44.7730 C.3    28  ILE28       0.0001
      9  N         39.6140   61.8630  -49.5240 N.3    31  ASN31      -0.1225
     10  CA        38.3990   62.4380  -50.0840 C.3    31  ASN31       0.1785
     11  C         38.2830   63.9270  -49.7550 C.2    31  ASN31       0.2597
     12  O         37.7660   64.7130  -50.5550 O.2    31  ASN31      -0.2718
     13  CB        37.1720   61.6780  -49.5980 C.3    31  ASN31       0.1169
     14  CG        37.0630   60.2980  -50.2080 C.2    31  ASN31       0.2627
     15  OD1       36.3420   60.0960  -51.1810 O.2    31  ASN31      -0.2716
     16  ND2       37.7860   59.3410  -49.6440 N.am   31  ASN31      -0.0877
     17  N         38.7820   64.3020  -48.5770 N.am   32  ALA32      -0.1979
     18  CA        38.8070   65.6930  -48.1330 C.3    32  ALA32       0.1597
     19  C         39.7630   66.5610  -48.9630 C.2    32  ALA32       0.2287
     20  O         39.5250   67.7600  -49.1260 O.2    32  ALA32      -0.2864
     21  CB        39.1530   65.7720  -46.6550 C.3    32  ALA32       0.0319
     22  N         38.1820   66.8070  -52.5950 N.3    35  GLU35      -0.1245
     23  CA        37.2770   67.9490  -52.5910 C.3    35  GLU35       0.1567
     24  C         38.0390   69.2730  -52.6440 C.2    35  GLU35       0.2260
     25  O         37.6740   70.1520  -53.4130 O.2    35  GLU35      -0.2867
     26  CB        36.3240   67.8980  -51.3850 C.3    35  GLU35       0.0388
     27  CG        35.2850   69.0180  -51.3250 C.3    35  GLU35       0.1160
     28  CD        34.2860   69.0100  -52.4800 C.2    35  GLU35       0.3649
     29  OE1       34.2720   68.0500  -53.2800 O.co2  35  GLU35      -0.2457
     30  OE2       33.4950   69.9730  -52.5850 O.co2  35  GLU35      -0.2457
     31  N         37.5020   62.9590  -39.1190 N.3    56  VAL56      -0.1245
     32  CA        38.0660   63.6920  -40.2530 C.3    56  VAL56       0.1561
     33  C         37.0090   64.6620  -40.7680 C.2    56  VAL56       0.2260
     34  O         35.9890   64.2390  -41.3200 O.2    56  VAL56      -0.2867
     35  CB        38.5130   62.7470  -41.3950 C.3    56  VAL56       0.0252
     36  CG1       39.0890   63.5390  -42.5620 C.3    56  VAL56       0.0019
     37  CG2       39.5300   61.7330  -40.8970 C.3    56  VAL56       0.0019
     38  N         36.0500   68.2580  -43.0110 N.3    58  ASP58      -0.1239
     39  CA        36.4170   69.2360  -44.0390 C.3    58  ASP58       0.1674
     40  C         35.3990   70.3820  -44.1730 C.2    58  ASP58       0.2266
     41  O         34.3420   70.3660  -43.5320 O.2    58  ASP58      -0.2867
     42  CB        36.6820   68.5530  -45.3950 C.3    58  ASP58       0.1410
     43  CG        35.4150   68.0340  -46.0670 C.2    58  ASP58       0.3668
     44  OD1       34.4060   68.7700  -46.1320 O.co2  58  ASP58      -0.2456
     45  OD2       35.4410   66.8890  -46.5670 O.co2  58  ASP58      -0.2456
     46  N         31.9010   71.3180  -50.1450 N.3    61  ARG61      -0.1231
     47  CA        30.4990   71.4940  -50.5190 C.3    61  ARG61       0.1694
     48  C         29.5500   70.6960  -49.6270 C.2    61  ARG61       0.2593
     49  O         28.3770   71.0540  -49.4820 O.2    61  ARG61      -0.2718
     50  CB        30.2780   71.0980  -51.9790 C.3    61  ARG61       0.0321
     51  CG        30.8440   72.0760  -52.9930 C.3    61  ARG61       0.0489
     52  CD        30.6150   71.5790  -54.4100 C.3    61  ARG61       0.2205
     53  NE        31.4550   70.4270  -54.7380 N.pl3  61  ARG61      -0.0865
     54  CZ        31.3260   69.6870  -55.8380 C.cat  61  ARG61       0.5346
     55  NH1       32.1400   68.6610  -56.0470 N.pl3  61  ARG61       0.1354
     56  NH2       30.3830   69.9670  -56.7320 N.pl3  61  ARG61       0.1354
     57  N         30.0620   69.6200  -49.0320 N.am   62  GLY62      -0.1942
     58  CA        29.2320   68.6860  -48.2770 C.3    62  GLY62       0.2014
     59  C         28.6120   67.6820  -49.2280 C.2    62  GLY62       0.2639
     60  O         28.1330   68.0570  -50.2990 O.2    62  GLY62      -0.2714
     61  N         28.6260   66.4060  -48.8430 N.am   63  MET63      -0.1963
     62  CA        28.1150   65.3280  -49.7000 C.3    63  MET63       0.1722
     63  C         26.6640   65.5430  -50.1280 C.2    63  MET63       0.2458
     64  O         25.8380   65.9630  -49.3140 O.2    63  MET63      -0.2730
     65  CB        28.2390   63.9730  -49.0040 C.3    63  MET63       0.0427
     66  CG        29.6550   63.4340  -48.9140 C.3    63  MET63       0.0599
     67  SD        29.7010   61.7090  -48.3960 S.3    63  MET63      -0.1393
     68  CE        28.9140   61.8290  -46.7940 C.3    63  MET63       0.0692
     69  N         26.3520   65.2570  -51.4100 N.am   64  PRO64      -0.2727
     70  CA        24.9830   65.3580  -51.9180 C.3    64  PRO64       0.1402
     71  C         24.0120   64.5020  -51.1090 C.2    64  PRO64       0.2269
     72  O         24.3160   63.3500  -50.7740 O.2    64  PRO64      -0.2865
     73  CB        25.0980   64.8270  -53.3530 C.3    64  PRO64       0.0296
     74  CG        26.5110   65.0900  -53.7320 C.3    64  PRO64       0.0237
     75  CD        27.2970   64.8620  -52.4720 C.3    64  PRO64       0.0939
     76  N         27.8010   55.6870  -51.4320 N.3    78  ILE78      -0.1231
     77  CA        29.2190   55.9890  -51.2530 C.3    78  ILE78       0.1692
     78  C         29.8310   55.1470  -50.1290 C.2    78  ILE78       0.2592
     79  O         30.9530   54.6520  -50.2590 O.2    78  ILE78      -0.2718
     80  CB        29.4370   57.5030  -51.0000 C.3    78  ILE78       0.0266
     81  CG1       29.0440   58.3100  -52.2460 C.3    78  ILE78       0.0019
     82  CG2       30.8810   57.8000  -50.6070 C.3    78  ILE78       0.0020
     83  CD1       28.7060   59.7610  -51.9700 C.3    78  ILE78       0.0001
     84  N         29.0800   54.9640  -49.0450 N.am   79  PHE79      -0.1976
     85  CA        29.5860   54.2630  -47.8650 C.3    79  PHE79       0.1639
     86  C         29.2810   52.7630  -47.8020 C.2    79  PHE79       0.2290
     87  O         29.8210   52.0660  -46.9400 O.2    79  PHE79      -0.2864
     88  CB        29.1070   54.9550  -46.5840 C.3    79  PHE79       0.0560
     89  CG        29.8550   56.2190  -46.2590 C.ar   79  PHE79      -0.0200
     90  CD1       29.3530   57.4580  -46.6390 C.ar   79  PHE79      -0.0042
     91  CD2       31.0600   56.1730  -45.5640 C.ar   79  PHE79      -0.0042
     92  CE1       30.0360   58.6250  -46.3370 C.ar   79  PHE79      -0.0003
     93  CE2       31.7500   57.3380  -45.2600 C.ar   79  PHE79      -0.0003
     94  CZ        31.2350   58.5670  -45.6460 C.ar   79  PHE79      -0.0000
     95  N         32.7150   57.7560  -57.0760 N.3    84  HIS84      -0.1226
     96  CA        32.6600   59.1700  -56.7190 C.3    84  HIS84       0.1752
     97  C         33.3620   59.4630  -55.4210 C.2    84  HIS84       0.2596
     98  O         33.9050   60.5560  -55.2370 O.2    84  HIS84      -0.2718
     99  CB        31.2130   59.6530  -56.6600 C.3    84  HIS84       0.0759
    100  CG        30.5240   59.6740  -58.0040 C.ar   84  HIS84       0.0818
    101  ND1       30.7010   60.6690  -58.8920 N.ar   84  HIS84      -0.2268
    102  CD2       29.6350   58.7750  -58.5910 C.ar   84  HIS84       0.1154
    103  CE1       29.9670   60.4230  -59.9940 C.ar   84  HIS84       0.1986
    104  NE2       29.3140   59.2630  -59.8090 N.ar   84  HIS84      -0.2212
    105  N         33.3540   58.4890  -54.5110 N.am   85  GLY85      -0.1957
    106  CA        33.9910   58.6320  -53.2020 C.3    85  GLY85       0.1869
    107  C         34.7810   57.3990  -52.8110 C.2    85  GLY85       0.2309
    108  O         34.4970   56.7630  -51.7960 O.2    85  GLY85      -0.2863
    109  N         35.8060   55.1620  -49.2050 N.3    88  ALA88      -0.1245
    110  CA        34.8550   55.4270  -48.1290 C.3    88  ALA88       0.1562
    111  C         34.1390   54.1610  -47.6680 C.2    88  ALA88       0.2260
    112  O         34.0220   53.9180  -46.4680 O.2    88  ALA88      -0.2867
    113  CB        33.8490   56.4850  -48.5570 C.3    88  ALA88       0.0290
    114  N         24.9260   71.4490  -45.7920 N.3   104  ARG104     -0.1245
    115  CA        24.6890   71.9980  -47.1240 C.3   104  ARG104      0.1563
    116  C         23.6910   73.1520  -47.0730 C.2   104  ARG104      0.2260
    117  O         22.5080   72.9460  -46.7890 O.2   104  ARG104     -0.2867
    118  CB        24.1930   70.9110  -48.0840 C.3   104  ARG104      0.0307
    119  CG        25.2820   70.0130  -48.6480 C.3   104  ARG104      0.0489
    120  CD        24.7280   69.0470  -49.6840 C.3   104  ARG104      0.2205
    121  NE        24.3580   69.7120  -50.9340 N.pl3 104  ARG104     -0.0865
    122  CZ        25.1230   69.7660  -52.0230 C.cat 104  ARG104      0.5346
    123  NH1       26.3210   69.1930  -52.0450 N.pl3 104  ARG104      0.1354
    124  NH2       24.6870   70.3990  -53.1030 N.pl3 104  ARG104      0.1354
    125  N         31.8560   68.3760  -44.6800 N.3   135  THR135     -0.1218
    126  CA        31.5720   66.9880  -44.3360 C.3   135  THR135      0.1862
    127  C         32.5200   66.5750  -43.2180 C.2   135  THR135      0.2287
    128  O         33.6730   67.0070  -43.1880 O.2   135  THR135     -0.2866
    129  CB        31.7760   66.0580  -45.5500 C.3   135  THR135      0.1770
    130  OG1       31.1500   66.6260  -46.7070 O.3   135  THR135     -0.2211
    131  CG2       31.1820   64.6810  -45.2950 C.3   135  THR135      0.0375
    132  N         33.5840   62.8850  -41.1190 N.3   137  VAL137     -0.1245
    133  CA        33.4240   61.4470  -40.9060 C.3   137  VAL137      0.1561
    134  C         34.1300   61.0300  -39.6250 C.2   137  VAL137      0.2260
    135  O         35.3010   61.3520  -39.4130 O.2   137  VAL137     -0.2867
    136  CB        33.9510   60.6080  -42.0940 C.3   137  VAL137      0.0252
    137  CG1       33.7150   59.1240  -41.8550 C.3   137  VAL137      0.0019
    138  CG2       33.2870   61.0350  -43.3930 C.3   137  VAL137      0.0019
@<TRIPOS>BOND
     1   103   104   ar
     2   103   101   ar
     3   104   102   ar
     4   101   100   ar
     5   102   100   ar
     6   100    99    1
     7    95    96    1
     8    56    54    1
     9    96    99    1
    10    96    97    1
    11    55    54    1
    12    54    53    2
    13    97    98    2
    14    97   105   am
    15    53    52    1
    16   105   106    1
    17    52    51    1
    18    74    73    1
    19    74    75    1
    20    25    24    2
    21    73    70    1
    22    29    28   ar
    23   106   107    1
    24   124   122    1
    25    51    50    1
    26   107   108    2
    27    24    23    1
    28    22    23    1
    29    23    26    1
    30    30    28   ar
    31    28    27    1
    32    75    69    1
    33    81    83    1
    34    81    80    1
    35   123   122    1
    36   122   121    2
    37    50    47    1
    38    70    69    1
    39    70    71    1
    40    76    77    1
    41    69    63   am
    42    26    27    1
    43    77    80    1
    44    77    78    1
    45    15    14    2
    46    71    72    2
    47    80    82    1
    48   121   120    1
    49    12    11    2
    50    47    46    1
    51    47    48    1
    52    60    59    2
    53    79    78    2
    54    14    16   am
    55    14    13    1
    56    78    84   am
    57    63    62    1
    58    63    64    2
    59    10    11    1
    60    10    13    1
    61    10     9    1
    62    11    17   am
    63    62    65    1
    64    62    61    1
    65   120   119    1
    66    48    49    2
    67    48    57   am
    68    59    61   am
    69    59    58    1
    70   109   110    1
    71    20    19    2
    72    84    85    1
    73    57    58    1
    74    65    66    1
    75    19    18    1
    76    66    67    1
    77   119   118    1
    78    17    18    1
    79   113   110    1
    80    67    68    1
    81    18    21    1
    82   110   111    1
    83   118   115    1
    84    85    86    1
    85    85    88    1
    86    86    87    2
    87   111   112    2
    88   115   116    1
    89   115   114    1
    90   116   117    2
    91   130   129    1
    92    90    92   ar
    93    90    89   ar
    94    88    89    1
    95    45    43   ar
    96     4     3    2
    97    92    94   ar
    98    89    91   ar
    99    44    43   ar
   100    43    42    1
   101     3     2    1
   102     1     2    1
   103    94    93   ar
   104    91    93   ar
   105   129   131    1
   106   129   126    1
   107     2     5    1
   108    42    39    1
   109     8     6    1
   110   125   126    1
   111   126   127    1
   112    40    39    1
   113    40    41    2
   114     5     7    1
   115     5     6    1
   116    39    38    1
   117   138   136    1
   118   127   128    2
   119    36    35    1
   120   136   137    1
   121   136   133    1
   122    35    37    1
   123    35    32    1
   124    34    33    2
   125   132   133    1
   126   133   134    1
   127    33    32    1
   128    32    31    1
   129   134   135    2
