@<TRIPOS>MOLECULE
tmp/4hz7A00.pdb
 140 141 0 0 0
SMALL
GASTEIGER

@<TRIPOS>ATOM
      1  N         39.1750   -1.5220  -11.1170 N.3    17  GLN17      -0.1245
      2  CA        40.0490   -0.9520  -10.1000 C.3    17  GLN17       0.1566
      3  C         41.3790   -1.6990   -9.9880 C.2    17  GLN17       0.2260
      4  O         42.3550   -1.1310   -9.4100 O.2    17  GLN17      -0.2867
      5  CB        39.3750   -0.8570   -8.7420 C.3    17  GLN17       0.0367
      6  CG        38.1510    0.0480   -8.7310 C.3    17  GLN17       0.0905
      7  CD        37.4490    0.0310   -7.3880 C.2    17  GLN17       0.2608
      8  OE1       36.6190   -0.8310   -7.1250 O.2    17  GLN17      -0.2717
      9  NE2       37.8050    0.9680   -6.5190 N.am   17  GLN17      -0.0878
     10  N         30.2520   -4.0390  -11.9650 N.3   118  HIS118     -0.1226
     11  CA        30.8570   -3.1540  -10.9670 C.3   118  HIS118      0.1752
     12  C         31.2820   -1.8610  -11.7260 C.2   118  HIS118      0.2596
     13  O         32.3980   -1.3710  -11.5680 O.2   118  HIS118     -0.2718
     14  CB        32.0060   -3.8370  -10.2320 C.3   118  HIS118      0.0759
     15  CG        32.2990   -3.2680   -8.8560 C.ar  118  HIS118      0.0818
     16  ND1       32.6550   -1.9400   -8.6570 N.ar  118  HIS118     -0.2268
     17  CD2       32.3790   -3.8660   -7.6400 C.ar  118  HIS118      0.1154
     18  CE1       32.8940   -1.7330   -7.3690 C.ar  118  HIS118      0.1986
     19  NE2       32.7300   -2.8860   -6.7300 N.ar  118  HIS118     -0.2212
     20  N         30.3310   -1.3130  -12.5040 N.am  119  TRP119     -0.1976
     21  CA        30.3900    0.1280  -12.9470 C.3   119  TRP119      0.1640
     22  C         31.0860    0.3540  -14.3000 C.2   119  TRP119      0.2290
     23  O         30.8500    1.3750  -14.9530 O.2   119  TRP119     -0.2864
     24  CB        31.0220    1.0830  -11.9090 C.3   119  TRP119      0.0576
     25  CG        30.4250    1.0290  -10.5350 C.ar  119  TRP119      0.0006
     26  CD1       29.3170    0.3060  -10.1560 C.ar  119  TRP119      0.0946
     27  CD2       30.8800    1.7320   -9.3420 C.ar  119  TRP119      0.0152
     28  NE1       29.0610    0.5220   -8.8140 N.ar  119  TRP119     -0.2442
     29  CE2       29.9800    1.3920   -8.2910 C.ar  119  TRP119      0.0810
     30  CE3       31.9440    2.6090   -9.0630 C.ar  119  TRP119      0.0012
     31  CZ2       30.1270    1.8820   -6.9610 C.ar  119  TRP119      0.0191
     32  CZ3       32.0530    3.1420   -7.7540 C.ar  119  TRP119      0.0001
     33  CH2       31.1580    2.7590   -6.7260 C.ar  119  TRP119      0.0015
     34  N         26.7340   -4.1790   -8.3000 N.3   162  ASN162     -0.1225
     35  CA        27.2930   -3.5700   -7.1370 C.3   162  ASN162      0.1785
     36  C         26.7650   -2.1280   -6.9970 C.2   162  ASN162      0.2597
     37  O         26.9780   -1.2970   -7.9070 O.2   162  ASN162     -0.2718
     38  CB        28.8090   -3.5390   -7.2790 C.3   162  ASN162      0.1169
     39  CG        29.4830   -2.8960   -6.0860 C.2   162  ASN162      0.2627
     40  OD1       29.4460   -3.4540   -4.9870 O.2   162  ASN162     -0.2716
     41  ND2       30.0790   -1.6840   -6.2800 N.am  162  ASN162     -0.0877
     42  N         26.1230   -1.8180   -5.8640 N.am  163  GLU163     -0.1979
     43  CA        25.7890   -0.4320   -5.5090 C.3   163  GLU163      0.1602
     44  C         25.1120    0.3490   -6.6360 C.2   163  GLU163      0.2287
     45  O         25.6660    1.3520   -7.0900 O.2   163  GLU163     -0.2864
     46  CB        27.0400    0.3250   -5.0430 C.3   163  GLU163      0.0415
     47  CG        27.7460   -0.3680   -3.8400 C.3   163  GLU163      0.1163
     48  CD        28.8220    0.4880   -3.1890 C.2   163  GLU163      0.3649
     49  OE1       29.2460    1.4830   -3.8030 O.co2 163  GLU163     -0.2457
     50  OE2       29.2630    0.1800   -2.0540 O.co2 163  GLU163     -0.2457
     51  N         25.0310    4.2210   -6.3740 N.3   166  VAL166     -0.1245
     52  CA        26.1800    5.1070   -6.6680 C.3   166  VAL166      0.1561
     53  C         26.1520    5.4360   -8.1580 C.2   166  VAL166      0.2260
     54  O         26.3890    6.5870   -8.5680 O.2   166  VAL166     -0.2867
     55  CB        27.5520    4.4770   -6.2490 C.3   166  VAL166      0.0252
     56  CG1       28.7000    5.3030   -6.7700 C.3   166  VAL166      0.0019
     57  CG2       27.6220    4.3100   -4.7200 C.3   166  VAL166      0.0019
     58  N         30.4830    1.4290    4.9880 N.3   292  TYR292     -0.1241
     59  CA        31.7060    2.0800    5.4350 C.3   292  TYR292      0.1605
     60  C         31.4320    3.0620    6.6070 C.2   292  TYR292      0.2264
     61  O         32.2280    3.1810    7.5490 O.2   292  TYR292     -0.2867
     62  CB        32.3280    2.8610    4.2460 C.3   292  TYR292      0.0534
     63  CG        32.8190    1.9410    3.1670 C.ar  292  TYR292     -0.0201
     64  CD1       34.1090    1.4170    3.2300 C.ar  292  TYR292     -0.0009
     65  CD2       31.9780    1.5300    2.1270 C.ar  292  TYR292     -0.0009
     66  CE1       34.5820    0.5210    2.2360 C.ar  292  TYR292      0.0417
     67  CE2       32.4210    0.6140    1.1450 C.ar  292  TYR292      0.0417
     68  CZ        33.7130    0.1260    1.1970 C.ar  292  TYR292      0.1957
     69  OH        34.1410   -0.7320    0.1950 O.3   292  TYR292     -0.2866
     70  N         35.3310    9.9390    6.1400 N.3   320  TRP320     -0.1241
     71  CA        34.1480    9.1530    6.5690 C.3   320  TRP320      0.1605
     72  C         34.2240    8.7620    8.0340 C.2   320  TRP320      0.2264
     73  O         35.2370    8.2030    8.4730 O.2   320  TRP320     -0.2867
     74  CB        34.0560    7.8590    5.7580 C.3   320  TRP320      0.0550
     75  CG        34.0050    8.1050    4.2690 C.ar  320  TRP320      0.0003
     76  CD1       33.7720    9.3060    3.6220 C.ar  320  TRP320      0.0946
     77  CD2       34.1500    7.1230    3.2470 C.ar  320  TRP320      0.0152
     78  NE1       33.7890    9.1130    2.2770 N.ar  320  TRP320     -0.2442
     79  CE2       34.0130    7.7780    2.0210 C.ar  320  TRP320      0.0810
     80  CE3       34.3820    5.7280    3.2620 C.ar  320  TRP320      0.0012
     81  CZ2       34.1270    7.0970    0.7960 C.ar  320  TRP320      0.0191
     82  CZ3       34.4890    5.0610    2.0730 C.ar  320  TRP320      0.0001
     83  CH2       34.3830    5.7420    0.8500 C.ar  320  TRP320      0.0015
     84  N         31.4120   -5.7560    1.2150 N.3   347  GLU347     -0.1245
     85  CA        32.5220   -4.7810    1.3250 C.3   347  GLU347      0.1567
     86  C         32.4140   -4.0440    2.6400 C.2   347  GLU347      0.2260
     87  O         31.3230   -3.5210    2.9680 O.2   347  GLU347     -0.2867
     88  CB        32.4750   -3.6770    0.2370 C.3   347  GLU347      0.0388
     89  CG        32.6750   -4.2060   -1.1700 C.3   347  GLU347      0.1160
     90  CD        32.6560   -3.0950   -2.2190 C.2   347  GLU347      0.3649
     91  OE1       32.4950   -3.4620   -3.4200 O.co2 347  GLU347     -0.2457
     92  OE2       32.7690   -1.8770   -1.8250 O.co2 347  GLU347     -0.2457
     93  N         36.9540   -5.0120    2.1110 N.3   394  TRP394     -0.1241
     94  CA        37.4030   -4.0980    1.0210 C.3   394  TRP394      0.1605
     95  C         38.7200   -3.4180    1.4190 C.2   394  TRP394      0.2264
     96  O         38.7620   -2.6800    2.4280 O.2   394  TRP394     -0.2867
     97  CB        36.3620   -3.0520    0.6480 C.3   394  TRP394      0.0550
     98  CG        36.8150   -2.3370   -0.5850 C.ar  394  TRP394      0.0003
     99  CD1       37.5750   -1.1880   -0.6400 C.ar  394  TRP394      0.0946
    100  CD2       36.6270   -2.7630   -1.9440 C.ar  394  TRP394      0.0152
    101  NE1       37.8520   -0.8740   -1.9510 N.ar  394  TRP394     -0.2442
    102  CE2       37.2910   -1.8250   -2.7750 C.ar  394  TRP394      0.0810
    103  CE3       35.9540   -3.8520   -2.5440 C.ar  394  TRP394      0.0012
    104  CZ2       37.2920   -1.9290   -4.1830 C.ar  394  TRP394      0.0191
    105  CZ3       35.9600   -3.9700   -3.9380 C.ar  394  TRP394      0.0001
    106  CH2       36.6170   -2.9980   -4.7430 C.ar  394  TRP394      0.0015
    107  N         41.0050    4.0690   -6.7790 N.3   401  GLU401     -0.1231
    108  CA        39.8640    4.5270   -6.0150 C.3   401  GLU401      0.1699
    109  C         39.1210    5.5830   -6.8110 C.2   401  GLU401      0.2592
    110  O         39.0470    6.7750   -6.3910 O.2   401  GLU401     -0.2718
    111  CB        40.2940    5.0440   -4.6380 C.3   401  GLU401      0.0402
    112  CG        39.1410    5.5950   -3.8040 C.3   401  GLU401      0.1161
    113  CD        38.0010    4.6130   -3.6380 C.2   401  GLU401      0.3649
    114  OE1       38.2070    3.3440   -3.6870 O.co2 401  GLU401     -0.2457
    115  OE2       36.8760    5.1180   -3.4400 O.co2 401  GLU401     -0.2457
    116  N         38.5970    5.1610   -7.9810 N.am  402  TRP402     -0.1976
    117  CA        37.7230    6.0690   -8.7840 C.3   402  TRP402      0.1640
    118  C         38.2660    7.5450   -8.9110 C.2   402  TRP402      0.2290
    119  O         39.3920    7.7640   -9.3350 O.2   402  TRP402     -0.2864
    120  CB        36.3120    6.0290   -8.1980 C.3   402  TRP402      0.0576
    121  CG        35.8590    4.5760   -8.0780 C.ar  402  TRP402      0.0006
    122  CD1       35.5940    3.8890   -6.9090 C.ar  402  TRP402      0.0946
    123  CD2       35.6690    3.6230   -9.1530 C.ar  402  TRP402      0.0152
    124  NE1       35.2290    2.5950   -7.1980 N.ar  402  TRP402     -0.2442
    125  CE2       35.2680    2.3990   -8.5540 C.ar  402  TRP402      0.0810
    126  CE3       35.7700    3.6880  -10.5620 C.ar  402  TRP402      0.0012
    127  CZ2       34.9880    1.2580   -9.3080 C.ar  402  TRP402      0.0191
    128  CZ3       35.4780    2.5510  -11.3070 C.ar  402  TRP402      0.0001
    129  CH2       35.0940    1.3410  -10.6780 C.ar  402  TRP402      0.0015
    130  N         42.9400    1.4840    0.1710 N.3   410  PHE410     -0.1241
    131  CA        41.9700    0.6620    0.9300 C.3   410  PHE410      0.1605
    132  C         42.4660   -0.7600    1.1720 C.2   410  PHE410      0.2264
    133  O         41.7710   -1.5670    1.8320 O.2   410  PHE410     -0.2867
    134  CB        40.6380    0.5740    0.1790 C.3   410  PHE410      0.0534
    135  CG        39.6930    1.7030    0.4610 C.ar  410  PHE410     -0.0203
    136  CD1       39.6640    2.8260   -0.3840 C.ar  410  PHE410     -0.0042
    137  CD2       38.8150    1.6500    1.5500 C.ar  410  PHE410     -0.0042
    138  CE1       38.7460    3.9020   -0.1440 C.ar  410  PHE410     -0.0003
    139  CE2       37.8860    2.7300    1.8050 C.ar  410  PHE410     -0.0003
    140  CZ        37.8850    3.8320    0.9590 C.ar  410  PHE410     -0.0000
@<TRIPOS>BOND
     1    23    22    2
     2    22    21    1
     3    21    20    1
     4    21    24    1
     5    20    12   am
     6    10    11    1
     7    24    25    1
     8    12    13    2
     9    12    11    1
    10   128   129   ar
    11   128   126   ar
    12     1     2    1
    13    11    14    1
    14   129   127   ar
    15   126   123   ar
    16    25    26   ar
    17    25    27   ar
    18    14    15    1
    19    26    28   ar
    20     2     3    1
    21     2     5    1
    22     3     4    2
    23    27    30   ar
    24    27    29   ar
    25   119   118    2
    26   127   125   ar
    27   123   125   ar
    28   123   121   ar
    29    30    32   ar
    30   118   117    1
    31    15    16   ar
    32    15    17   ar
    33    28    29   ar
    34   117   120    1
    35   117   116    1
    36     5     6    1
    37     6     7    1
    38    16    18   ar
    39    54    53    2
    40   125   124   ar
    41    34    35    1
    42    29    31   ar
    43   120   121    1
    44    53    52    1
    45   121   122   ar
    46   116   109   am
    47    37    36    2
    48    32    33   ar
    49    17    19   ar
    50     7     8    2
    51     7     9   am
    52    18    19   ar
    53    38    35    1
    54    38    39    1
    55   124   122   ar
    56    35    36    1
    57    45    44    2
    58    36    42   am
    59    31    33   ar
    60   109   110    2
    61   109   108    1
    62   107   108    1
    63    56    55    1
    64    52    51    1
    65    52    55    1
    66    44    43    1
    67    41    39   am
    68    55    57    1
    69    39    40    2
    70   108   111    1
    71    42    43    1
    72    43    46    1
    73    46    47    1
    74   106   104   ar
    75   106   105   ar
    76   111   112    1
    77   104   102   ar
    78   105   103   ar
    79    47    48    1
    80   112   113    1
    81    49    48   ar
    82   114   113   ar
    83   113   115   ar
    84    91    90   ar
    85    48    50   ar
    86   102   101   ar
    87   102   100   ar
    88   103   100   ar
    89    90    92   ar
    90    90    89    1
    91   101    99   ar
    92   100    98   ar
    93    89    88    1
    94    99    98   ar
    95    98    97    1
    96   136   138   ar
    97   136   135   ar
    98   138   140   ar
    99   130   131    1
   100   134   135    1
   101   134   131    1
   102    69    68    1
   103    88    85    1
   104   135   137   ar
   105    97    94    1
   106    81    83   ar
   107    81    79   ar
   108    83    82   ar
   109   131   132    1
   110   140   139   ar
   111    94    95    1
   112    94    93    1
   113    67    68   ar
   114    67    65   ar
   115   132   133    2
   116    68    66   ar
   117    84    85    1
   118    85    86    1
   119    95    96    2
   120   137   139   ar
   121    79    78   ar
   122    79    77   ar
   123    82    80   ar
   124    65    63   ar
   125    66    64   ar
   126    78    76   ar
   127    86    87    2
   128    63    64   ar
   129    63    62    1
   130    77    80   ar
   131    77    75   ar
   132    76    75   ar
   133    62    59    1
   134    75    74    1
   135    58    59    1
   136    59    60    1
   137    74    71    1
   138    70    71    1
   139    71    72    1
   140    60    61    2
   141    72    73    2
