@<TRIPOS>MOLECULE
tmp/4hzdA00.pdb
 112 106 0 0 0
SMALL
GASTEIGER

@<TRIPOS>ATOM
      1  N         -7.3790   11.0590   -5.1350 N.3   157  ASP157     -0.1225
      2  CA        -8.5400   10.1930   -5.0470 C.3   157  ASP157      0.1805
      3  C         -8.0330    8.7710   -4.9260 C.2   157  ASP157      0.2597
      4  O         -7.2870    8.3210   -5.7880 O.2   157  ASP157     -0.2718
      5  CB        -9.4140   10.3800   -6.3170 C.3   157  ASP157      0.1424
      6  CG       -10.7330    9.5490   -6.2870 C.2   157  ASP157      0.3668
      7  OD1      -11.1530    9.0630   -5.2130 O.co2 157  ASP157     -0.2456
      8  OD2      -11.3510    9.3930   -7.3610 O.co2 157  ASP157     -0.2456
      9  N         -8.4050    8.0690   -3.8470 N.am  158  HIS158     -0.1975
     10  CA        -7.9710    6.6420   -3.6050 C.3   158  HIS158      0.1656
     11  C         -6.5380    6.5600   -3.1450 C.2   158  HIS158      0.2291
     12  O         -6.2720    5.9030   -2.1510 O.2   158  HIS158     -0.2864
     13  CB        -8.2300    5.7130   -4.8140 C.3   158  HIS158      0.0771
     14  CG        -9.6710    5.6760   -5.2550 C.ar  158  HIS158      0.0820
     15  ND1      -10.6780    5.3230   -4.4270 N.ar  158  HIS158     -0.2267
     16  CD2      -10.2700    5.9850   -6.4930 C.ar  158  HIS158      0.1154
     17  CE1      -11.8700    5.4090   -5.0810 C.ar  158  HIS158      0.1986
     18  NE2      -11.6220    5.8150   -6.3410 N.ar  158  HIS158     -0.2212
     19  N         -5.2820   10.4300   -9.2940 N.3   177  LEU177     -0.1231
     20  CA        -5.7730    9.1400   -8.8180 C.3   177  LEU177      0.1693
     21  C         -4.6700    8.2320   -8.2450 C.2   177  LEU177      0.2592
     22  O         -3.5310    8.6360   -8.1900 O.2   177  LEU177     -0.2718
     23  CB        -6.6700    8.4790   -9.8900 C.3   177  LEU177      0.0284
     24  CG        -8.0730    9.0090   -9.4790 C.3   177  LEU177      0.0019
     25  CD1       -8.5540   10.2000  -10.2900 C.3   177  LEU177      0.0001
     26  CD2       -9.1060    7.9030   -9.3510 C.3   177  LEU177      0.0001
     27  N         -5.0280    7.0410   -7.7690 N.am  178  HIS178     -0.1976
     28  CA        -4.0440    6.0310   -7.2960 C.3   178  HIS178      0.1656
     29  C         -3.2130    5.4880   -8.4470 C.2   178  HIS178      0.2291
     30  O         -3.6280    5.5530   -9.6240 O.2   178  HIS178     -0.2864
     31  CB        -4.7660    4.8490   -6.6700 C.3   178  HIS178      0.0771
     32  CG        -5.7890    4.2290   -7.5920 C.ar  178  HIS178      0.0820
     33  ND1       -6.9250    4.8720   -7.9390 N.ar  178  HIS178     -0.2267
     34  CD2       -5.8070    3.0000   -8.2600 C.ar  178  HIS178      0.1154
     35  CE1       -7.6500    4.0940   -8.7680 C.ar  178  HIS178      0.1986
     36  NE2       -6.9570    2.9480   -8.9780 N.ar  178  HIS178     -0.2212
     37  N         -6.4800   16.7450  -14.5530 N.3   201  LEU201     -0.1245
     38  CA        -6.8450   15.4420  -14.0330 C.3   201  LEU201      0.1561
     39  C         -5.8700   14.3500  -14.5170 C.2   201  LEU201      0.2260
     40  O         -5.6020   14.1920  -15.7230 O.2   201  LEU201     -0.2867
     41  CB        -8.2970   15.1160  -14.4000 C.3   201  LEU201      0.0270
     42  CG        -8.8170   13.6760  -14.3180 C.3   201  LEU201      0.0019
     43  CD1       -8.8760   13.2060  -12.8710 C.3   201  LEU201      0.0001
     44  CD2      -10.1980   13.5860  -14.9770 C.3   201  LEU201      0.0001
     45  N         -5.3710   10.3380  -14.4640 N.3   203  GLY203     -0.1210
     46  CA        -6.0850    9.0730  -14.3010 C.3   203  GLY203      0.1956
     47  C         -5.2750    7.9740  -13.6260 C.2   203  GLY203      0.2611
     48  O         -4.0420    8.0890  -13.5120 O.2   203  GLY203     -0.2717
     49  N         -5.9540    6.8970  -13.2160 N.am  204  ALA204     -0.1979
     50  CA        -5.3390    5.8320  -12.4000 C.3   204  ALA204      0.1597
     51  C         -4.1890    5.1500  -13.0930 C.2   204  ALA204      0.2287
     52  O         -4.2850    4.7740  -14.2840 O.2   204  ALA204     -0.2864
     53  CB        -6.3720    4.7770  -11.9920 C.3   204  ALA204      0.0319
     54  N         -6.0670   16.4100  -19.4270 N.3   219  LYS219     -0.1231
     55  CA        -6.4250   15.1610  -18.7710 C.3   219  LYS219      0.1693
     56  C         -5.5550   13.9880  -19.2330 C.2   219  LYS219      0.2592
     57  O         -5.3120   13.8000  -20.4300 O.2   219  LYS219     -0.2718
     58  CB        -7.9020   14.8300  -18.9760 C.3   219  LYS219      0.0285
     59  CG        -8.8820   15.8510  -18.4130 C.3   219  LYS219      0.0035
     60  CD       -10.2840   15.5890  -18.9530 C.3   219  LYS219      0.0206
     61  CE       -11.3410   16.4840  -18.3000 C.3   219  LYS219      0.1093
     62  NZ       -10.7840   17.8160  -17.9150 N.3   219  LYS219     -0.1314
     63  N         -5.0820   13.2090  -18.2620 N.am  220  ILE220     -0.1966
     64  CA        -4.2590   12.0330  -18.5410 C.3   220  ILE220      0.1727
     65  C         -5.0900   10.7880  -18.2830 C.2   220  ILE220      0.2616
     66  O         -5.4720   10.4910  -17.1390 O.2   220  ILE220     -0.2715
     67  CB        -2.9120   12.0280  -17.7380 C.3   220  ILE220      0.0290
     68  CG1       -2.2200   13.4010  -17.7410 C.3   220  ILE220      0.0022
     69  CG2       -1.9760   10.8860  -18.1730 C.3   220  ILE220      0.0023
     70  CD1       -1.5150   13.8170  -19.0240 C.3   220  ILE220      0.0001
     71  N         -5.4080   10.0680  -19.3510 N.am  221  ALA221     -0.1963
     72  CA        -6.2470    8.8670  -19.2270 C.3   221  ALA221      0.1728
     73  C         -5.6010    7.8020  -18.3450 C.2   221  ALA221      0.2616
     74  O         -4.3850    7.7940  -18.1720 O.2   221  ALA221     -0.2715
     75  CB        -6.5630    8.2880  -20.6010 C.3   221  ALA221      0.0334
     76  N         -6.4080    6.8900  -17.8030 N.am  222  ALA222     -0.1963
     77  CA        -5.8830    5.8450  -16.9120 C.3   222  ALA222      0.1728
     78  C         -4.8160    5.0740  -17.6740 C.2   222  ALA222      0.2616
     79  O         -4.9550    4.8350  -18.8930 O.2   222  ALA222     -0.2715
     80  CB        -6.9990    4.8860  -16.4890 C.3   222  ALA222      0.0334
     81  N         -3.7460    4.7030  -16.9820 N.am  223  GLY223     -0.1955
     82  CA        -2.6990    3.8750  -17.5700 C.3   223  GLY223      0.1869
     83  C         -1.7730    4.4870  -18.6230 C.2   223  GLY223      0.2309
     84  O         -0.9290    3.7840  -19.1680 O.2   223  GLY223     -0.2863
     85  N         -6.8840   15.8450  -24.0360 N.3   235  THR235     -0.1218
     86  CA        -6.7810   14.5500  -23.3660 C.3   235  THR235      0.1862
     87  C         -5.7240   13.7030  -24.0410 C.2   235  THR235      0.2287
     88  O         -5.6840   13.6400  -25.2740 O.2   235  THR235     -0.2866
     89  CB        -8.1090   13.7930  -23.3030 C.3   235  THR235      0.1770
     90  OG1       -9.1220   14.6550  -22.7790 O.3   235  THR235     -0.2211
     91  CG2       -7.9810   12.5660  -22.4060 C.3   235  THR235      0.0375
     92  N         -3.8900    9.7230  -24.0160 N.3   237  ALA237     -0.1231
     93  CA        -4.0150    8.3300  -23.5680 C.3   237  ALA237      0.1694
     94  C         -2.9860    7.4940  -24.2650 C.2   237  ALA237      0.2592
     95  O         -2.4560    7.9120  -25.2820 O.2   237  ALA237     -0.2718
     96  CB        -5.4220    7.8110  -23.8300 C.3   237  ALA237      0.0304
     97  N         -2.6750    6.3290  -23.7020 N.am  238  GLY238     -0.1957
     98  CA        -1.8550    5.3340  -24.3710 C.3   238  GLY238      0.1869
     99  C         -0.4370    5.1240  -23.8380 C.2   238  GLY238      0.2309
    100  O          0.0610    5.8780  -22.9830 O.2   238  GLY238     -0.2863
    101  N         -5.5950   12.4500  -27.7290 N.3   244  ILE244     -0.1231
    102  CA        -6.7450   11.7120  -28.2290 C.3   244  ILE244      0.1696
    103  C         -7.9210   12.6590  -28.3770 C.2   244  ILE244      0.2631
    104  O         -8.9770   12.2540  -28.8460 O.2   244  ILE244     -0.2714
    105  CB        -7.1380   10.4760  -27.3510 C.3   244  ILE244      0.0266
    106  CG1       -7.3980   10.8680  -25.8890 C.3   244  ILE244      0.0019
    107  CG2       -6.0900    9.3720  -27.3850 C.3   244  ILE244      0.0020
    108  CD1       -8.8610   11.0030  -25.5810 C.3   244  ILE244      0.0001
    109  N         -7.7460   13.9140  -27.9780 N.am  245  GLY245     -0.1732
    110  CA        -8.8230   14.8680  -28.0870 C.2   245  GLY245      0.1340
    111  C         -8.6170   16.1730  -27.3590 C.2   245  GLY245      0.2521
    112  O         -7.5620   16.4340  -26.7910 O.2   245  GLY245     -0.2816
@<TRIPOS>BOND
     1   104   103    2
     2   103   102    1
     3   103   109    1
     4   102   101    1
     5   102   105    1
     6   110   109    2
     7   110   111    1
     8   107   105    1
     9   111   112    2
    10   105   106    1
    11   106   108    1
    12    95    94    2
    13    88    87    2
    14    98    99    1
    15    98    97    1
    16    94    97   am
    17    94    93    1
    18    87    86    1
    19    85    86    1
    20    92    93    1
    21    99   100    2
    22    96    93    1
    23    86    89    1
    24    89    90    1
    25    89    91    1
    26    75    72    1
    27    57    56    2
    28    54    55    1
    29    71    72    1
    30    71    65   am
    31    56    55    1
    32    56    63   am
    33    72    73    1
    34    84    83    2
    35    70    68    1
    36    58    55    1
    37    58    59    1
    38    60    59    1
    39    60    61    1
    40    79    78    2
    41    83    82    1
    42    64    65    1
    43    64    63    1
    44    64    67    1
    45    73    74    2
    46    73    76   am
    47    61    62    1
    48    65    66    2
    49    69    67    1
    50    76    77    1
    51    68    67    1
    52    78    81   am
    53    78    77    1
    54    82    81    1
    55    77    80    1
    56    40    39    2
    57    44    42    1
    58    37    38    1
    59    39    38    1
    60    45    46    1
    61    41    42    1
    62    41    38    1
    63    42    43    1
    64    46    47    1
    65    52    51    2
    66    47    48    2
    67    47    49   am
    68    49    50    1
    69    51    50    1
    70    50    53    1
    71    25    24    1
    72    23    24    1
    73    23    20    1
    74    30    29    2
    75    24    26    1
    76    19    20    1
    77    36    35   ar
    78    36    34   ar
    79    20    21    1
    80    35    33   ar
    81    29    28    1
    82    34    32   ar
    83    21    22    2
    84    21    27   am
    85    33    32   ar
    86    27    28    1
    87    32    31    1
    88     8     6   ar
    89    28    31    1
    90    16    18   ar
    91    16    14   ar
    92    18    17   ar
    93     5     6    1
    94     5     2    1
    95     6     7   ar
    96     4     3    2
    97    14    13    1
    98    14    15   ar
    99     1     2    1
   100    17    15   ar
   101     2     3    1
   102     3     9   am
   103    13    10    1
   104     9    10    1
   105    10    11    1
   106    11    12    2
