@<TRIPOS>MOLECULE
tmp/4hzeB00.pdb
 126 116 0 0 0
SMALL
GASTEIGER

@<TRIPOS>ATOM
      1  N         54.3350   50.9960   44.7890 N.3    97  HIS97      -0.1241
      2  CA        53.2240   50.7580   43.8680 C.3    97  HIS97       0.1621
      3  C         53.6270   50.3050   42.4650 C.2    97  HIS97       0.2264
      4  O         52.7610   49.9470   41.6760 O.2    97  HIS97      -0.2867
      5  CB        52.3330   51.9930   43.7730 C.3    97  HIS97       0.0745
      6  CG        50.8760   51.6740   43.6800 C.ar   97  HIS97       0.0817
      7  ND1       49.8950   52.5460   44.0840 N.ar   97  HIS97      -0.2268
      8  CD2       50.2360   50.5590   43.2440 C.ar   97  HIS97       0.1154
      9  CE1       48.7070   51.9930   43.9030 C.ar   97  HIS97       0.1986
     10  NE2       48.8880   50.7860   43.4050 N.ar   97  HIS97      -0.2212
     11  N         47.2040   59.6320   44.5120 N.3   122  HIS122     -0.1241
     12  CA        47.9000   59.9360   43.2590 C.3   122  HIS122      0.1621
     13  C         47.3410   59.1100   42.1100 C.2   122  HIS122      0.2264
     14  O         46.7680   58.0390   42.3240 O.2   122  HIS122     -0.2867
     15  CB        49.3860   59.6090   43.3830 C.3   122  HIS122      0.0745
     16  CG        50.0450   60.2650   44.5500 C.ar  122  HIS122      0.0817
     17  ND1       50.1740   59.6530   45.7820 N.ar  122  HIS122     -0.2268
     18  CD2       50.6040   61.4900   44.6680 C.ar  122  HIS122      0.1154
     19  CE1       50.7950   60.4810   46.6060 C.ar  122  HIS122      0.1986
     20  NE2       51.0590   61.6030   45.9590 N.ar  122  HIS122     -0.2212
     21  N         49.2610   57.9630   39.5360 N.3   124  ASP124     -0.1239
     22  CA        50.2760   56.9780   39.1510 C.3   124  ASP124      0.1674
     23  C         50.2530   56.6930   37.6520 C.2   124  ASP124      0.2266
     24  O         50.4700   55.5650   37.2290 O.2   124  ASP124     -0.2867
     25  CB        50.0970   55.6710   39.9500 C.3   124  ASP124      0.1410
     26  CG        50.3200   55.8560   41.4320 C.2   124  ASP124      0.3668
     27  OD1       50.6710   56.9840   41.8550 O.co2 124  ASP124     -0.2456
     28  OD2       50.1410   54.8660   42.1830 O.co2 124  ASP124     -0.2456
     29  N         51.7800   58.9380   35.2120 N.3   126  ASN126     -0.1240
     30  CA        52.8780   59.4950   34.4200 C.3   126  ASN126      0.1653
     31  C         53.4720   58.4260   33.5070 C.2   126  ASN126      0.2266
     32  O         53.4520   57.2360   33.8170 O.2   126  ASN126     -0.2867
     33  CB        53.9770   60.0700   35.3100 C.3   126  ASN126      0.1155
     34  CG        53.6420   61.4560   35.8150 C.2   126  ASN126      0.2627
     35  OD1       53.5030   62.3990   35.0280 O.2   126  ASN126     -0.2716
     36  ND2       53.4930   61.5890   37.1310 N.am  126  ASN126     -0.0877
     37  N         57.0620   61.9030   33.5900 N.3   131  THR131     -0.1203
     38  CA        57.4680   61.8840   34.9960 C.3   131  THR131      0.1994
     39  C         58.5220   62.9540   35.2740 C.2   131  THR131      0.2619
     40  O         59.4540   63.1410   34.4860 O.2   131  THR131     -0.2717
     41  CB        58.0250   60.5020   35.4390 C.3   131  THR131      0.1784
     42  OG1       58.4790   60.5850   36.7980 O.3   131  THR131     -0.2211
     43  CG2       59.1890   60.0590   34.5590 C.3   131  THR131      0.0376
     44  N         58.3680   63.6630   36.3880 N.am  132  SER132     -0.1937
     45  CA        59.4060   64.6030   36.7980 C.3   132  SER132      0.2055
     46  C         60.2770   64.0340   37.9070 C.2   132  SER132      0.2643
     47  O         61.2780   64.6450   38.2900 O.2   132  SER132     -0.2714
     48  CB        58.8120   65.9540   37.2210 C.3   132  SER132      0.2130
     49  OG        58.0720   65.8580   38.4300 O.3   132  SER132     -0.2179
     50  N         59.9180   62.8560   38.4090 N.am  133  SER133     -0.1949
     51  CA        60.6750   62.2300   39.4950 C.3   133  SER133      0.1924
     52  C         61.5780   61.1140   38.9830 C.2   133  SER133      0.2314
     53  O         62.6420   60.8520   39.5500 O.2   133  SER133     -0.2863
     54  CB        59.7330   61.6770   40.5640 C.3   133  SER133      0.2116
     55  OG        58.9520   60.6090   40.0460 O.3   133  SER133     -0.2180
     56  N         60.5580   58.1060   39.1260 N.3   135  ASN135     -0.1240
     57  CA        60.2180   56.9660   39.9790 C.3   135  ASN135      0.1653
     58  C         59.0760   56.1490   39.4040 C.2   135  ASN135      0.2266
     59  O         57.9830   56.6700   39.1820 O.2   135  ASN135     -0.2867
     60  CB        59.8550   57.4520   41.3930 C.3   135  ASN135      0.1155
     61  CG        61.0180   58.1440   42.0740 C.2   135  ASN135      0.2627
     62  OD1       62.1780   57.8170   41.8190 O.2   135  ASN135     -0.2716
     63  ND2       60.7160   59.0980   42.9480 N.am  135  ASN135     -0.0877
     64  N         57.0950   53.9970   40.5890 N.3   137  HIS137     -0.1226
     65  CA        55.8610   53.8560   41.3640 C.3   137  HIS137      0.1752
     66  C         54.8180   54.9350   41.0430 C.2   137  HIS137      0.2596
     67  O         53.6570   54.8010   41.4330 O.2   137  HIS137     -0.2718
     68  CB        56.1120   53.7840   42.8840 C.3   137  HIS137      0.0759
     69  CG        56.4570   55.0960   43.5170 C.ar  137  HIS137      0.0818
     70  ND1       56.2300   55.3450   44.8520 N.ar  137  HIS137     -0.2268
     71  CD2       57.0190   56.2230   43.0130 C.ar  137  HIS137      0.1154
     72  CE1       56.6210   56.5730   45.1430 C.ar  137  HIS137      0.1986
     73  NE2       57.1090   57.1260   44.0480 N.ar  137  HIS137     -0.2212
     74  N         55.2320   55.9660   40.3060 N.am  138  GLY138     -0.1957
     75  CA        54.3350   57.0350   39.9250 C.3   138  GLY138      0.1869
     76  C         53.9360   56.9740   38.4720 C.2   138  GLY138      0.2309
     77  O         53.2600   57.8240   37.9460 O.2   138  GLY138     -0.2863
     78  N         46.6610   64.6580   44.6100 N.3   177  ASP177     -0.1239
     79  CA        47.9640   65.1780   44.1950 C.3   177  ASP177      0.1674
     80  C         48.2790   64.6050   42.8300 C.2   177  ASP177      0.2266
     81  O         48.8000   63.4990   42.7140 O.2   177  ASP177     -0.2867
     82  CB        49.0350   64.7790   45.2020 C.3   177  ASP177      0.1410
     83  CG        50.3880   65.3780   44.8860 C.2   177  ASP177      0.3668
     84  OD1       50.4850   66.2480   44.0020 O.co2 177  ASP177     -0.2456
     85  OD2       51.3650   64.9830   45.5430 O.co2 177  ASP177     -0.2456
     86  N         49.8950   65.3560   38.9250 N.3   179  ASP179     -0.1239
     87  CA        50.8000   66.2340   38.1750 C.3   179  ASP179      0.1674
     88  C         50.0680   66.7610   36.9450 C.2   179  ASP179      0.2266
     89  O         49.1380   66.1240   36.4660 O.2   179  ASP179     -0.2867
     90  CB        52.0690   65.4900   37.7440 C.3   179  ASP179      0.1410
     91  CG        52.8410   64.9260   38.9150 C.2   179  ASP179      0.3668
     92  OD1       52.7860   65.5110   40.0190 O.co2 179  ASP179     -0.2456
     93  OD2       53.5080   63.8860   38.7190 O.co2 179  ASP179     -0.2456
     94  N         49.5530   64.3370   34.1240 N.3   182  GLU182     -0.1245
     95  CA        48.5850   63.2920   34.4690 C.3   182  GLU182      0.1567
     96  C         47.1620   63.7900   34.3160 C.2   182  GLU182      0.2260
     97  O         46.2770   63.0450   33.8850 O.2   182  GLU182     -0.2867
     98  CB        48.7920   62.8250   35.9080 C.3   182  GLU182      0.0388
     99  CG        50.1280   62.1570   36.1570 C.3   182  GLU182      0.1160
    100  CD        50.2510   61.7280   37.6010 C.2   182  GLU182      0.3649
    101  OE1       50.3950   62.6100   38.4830 O.co2 182  GLU182     -0.2457
    102  OE2       50.1510   60.5100   37.8720 O.co2 182  GLU182     -0.2457
    103  N         46.6600   52.0300   47.5820 N.3   228  ASP228     -0.1239
    104  CA        47.8490   52.7120   48.1100 C.3   228  ASP228      0.1674
    105  C         47.4450   53.2640   49.4700 C.2   228  ASP228      0.2266
    106  O         46.4620   53.9980   49.5920 O.2   228  ASP228     -0.2867
    107  CB        48.2060   53.8490   47.1400 C.3   228  ASP228      0.1410
    108  CG        49.5180   54.5200   47.4400 C.2   228  ASP228      0.3668
    109  OD1       49.9210   54.5310   48.6120 O.co2 228  ASP228     -0.2456
    110  OD2       50.1270   55.0930   46.4950 O.co2 228  ASP228     -0.2456
    111  N         54.9280   59.1650   50.4250 N.3   242  THR242     -0.1218
    112  CA        54.4150   60.3840   49.8030 C.3   242  THR242      0.1862
    113  C         53.0870   60.7880   50.4450 C.2   242  THR242      0.2287
    114  O         52.0320   60.7710   49.8070 O.2   242  THR242     -0.2866
    115  CB        54.2680   60.2080   48.2720 C.3   242  THR242      0.1770
    116  OG1       53.3780   59.1240   47.9960 O.3   242  THR242     -0.2211
    117  CG2       55.5770   59.8610   47.6450 C.3   242  THR242      0.0375
    118  N         52.7360   50.5490   49.6740 N.3   273  GLU273     -0.1245
    119  CA        53.3530   51.7920   50.1420 C.3   273  GLU273      0.1567
    120  C         53.3870   51.9820   51.6630 C.2   273  GLU273      0.2260
    121  O         53.7340   53.0680   52.1390 O.2   273  GLU273     -0.2867
    122  CB        52.7860   53.0280   49.4150 C.3   273  GLU273      0.0388
    123  CG        53.0230   53.0250   47.8820 C.3   273  GLU273      0.1160
    124  CD        54.4370   53.4240   47.4490 C.2   273  GLU273      0.3649
    125  OE1       55.2960   53.7210   48.3170 O.co2 273  GLU273     -0.2457
    126  OE2       54.7050   53.4660   46.2140 O.co2 273  GLU273     -0.2457
@<TRIPOS>BOND
     1    31    32    2
     2    31    30    1
     3    37    38    1
     4    97    96    2
     5    94    95    1
     6    96    95    1
     7    30    29    1
     8    30    33    1
     9    95    98    1
    10    40    39    2
    11    43    41    1
    12    38    39    1
    13    38    41    1
    14    35    34    2
    15    39    44   am
    16    33    34    1
    17    41    42    1
    18    34    36   am
    19    98    99    1
    20    99   100    1
    21    44    45    1
    22    89    88    2
    23    45    48    1
    24    45    46    1
    25    88    87    1
    26    48    49    1
    27    24    23    2
    28   100   102   ar
    29   100   101   ar
    30    23    22    1
    31    90    87    1
    32    90    91    1
    33    46    47    2
    34    46    50   am
    35    77    76    2
    36    87    86    1
    37    50    51    1
    38    76    75    1
    39    93    91   ar
    40    91    92   ar
    41    52    51    1
    42    52    53    2
    43    56    57    1
    44    22    21    1
    45    22    25    1
    46    59    58    2
    47    58    57    1
    48    51    54    1
    49    75    74    1
    50    25    26    1
    51    57    60    1
    52    55    54    1
    53    74    66   am
    54    64    65    1
    55    66    65    1
    56    66    67    2
    57    65    68    1
    58    60    61    1
    59    26    27   ar
    60    26    28   ar
    61     4     3    2
    62    62    61    2
    63    61    63   am
    64    13    14    2
    65    13    12    1
    66     3     2    1
    67    81    80    2
    68    80    79    1
    69    68    69    1
    70    71    69   ar
    71    71    73   ar
    72     8    10   ar
    73     8     6   ar
    74    12    15    1
    75    12    11    1
    76    15    16    1
    77    10     9   ar
    78    69    70   ar
    79     6     5    1
    80     6     7   ar
    81     5     2    1
    82     2     1    1
    83     9     7   ar
    84    84    83   ar
    85    73    72   ar
    86    79    78    1
    87    79    82    1
    88    16    18   ar
    89    16    17   ar
    90    18    20   ar
    91    70    72   ar
    92    83    82    1
    93    83    85   ar
    94    17    19   ar
    95    20    19   ar
    96   126   124   ar
    97   110   108   ar
    98   107   108    1
    99   107   104    1
   100   108   109   ar
   101   124   123    1
   102   124   125   ar
   103   103   104    1
   104   117   115    1
   105   123   122    1
   106   116   115    1
   107   104   105    1
   108   115   112    1
   109   122   119    1
   110   105   106    2
   111   118   119    1
   112   112   111    1
   113   112   113    1
   114   114   113    2
   115   119   120    1
   116   120   121    2
