@<TRIPOS>MOLECULE
tmp/4hzoA00.pdb
 194 191 0 0 0
SMALL
GASTEIGER

@<TRIPOS>ATOM
      1  N         21.7740   11.5010   14.4150 N.3    30  TRP30      -0.1241
      2  CA        22.1530   10.0920   14.1960 C.3    30  TRP30       0.1605
      3  C         20.9100    9.2010   14.6100 C.2    30  TRP30       0.2264
      4  O         20.6020    8.2580   13.8860 O.2    30  TRP30      -0.2867
      5  CB        23.3230    9.7210   15.0300 C.3    30  TRP30       0.0550
      6  CG        24.6010   10.0400   14.2730 C.ar   30  TRP30       0.0003
      7  CD1       24.7700   11.0320   13.3550 C.ar   30  TRP30       0.0946
      8  CD2       25.8720    9.3720   14.4120 C.ar   30  TRP30       0.0152
      9  NE1       26.1090   11.0110   12.8870 N.ar   30  TRP30      -0.2442
     10  CE2       26.7770    9.9990   13.5210 C.ar   30  TRP30       0.0810
     11  CE3       26.3000    8.2650   15.1590 C.ar   30  TRP30       0.0012
     12  CZ2       28.0920    9.5620   13.3680 C.ar   30  TRP30       0.0191
     13  CZ3       27.6490    7.8220   15.0250 C.ar   30  TRP30       0.0001
     14  CH2       28.5120    8.4940   14.1750 C.ar   30  TRP30       0.0015
     15  N         31.0410    6.1050    9.0700 N.3    53  TYR53      -0.1227
     16  CA        30.5570    7.0980    9.9820 C.3    53  TYR53       0.1736
     17  C         29.7140    8.1150    9.2370 C.2    53  TYR53       0.2595
     18  O         30.0360    8.4690    8.1290 O.2    53  TYR53      -0.2718
     19  CB        31.7800    7.8450   10.5820 C.3    53  TYR53       0.0548
     20  CG        32.7930    6.8820   11.1660 C.ar   53  TYR53      -0.0200
     21  CD1       32.4460    6.0330   12.2150 C.ar   53  TYR53      -0.0009
     22  CD2       34.0660    6.8210   10.6770 C.ar   53  TYR53      -0.0009
     23  CE1       33.3720    5.1360   12.7500 C.ar   53  TYR53       0.0417
     24  CE2       34.9900    5.9480   11.2290 C.ar   53  TYR53       0.0417
     25  CZ        34.6210    5.1160   12.2330 C.ar   53  TYR53       0.1957
     26  OH        35.5500    4.2380   12.7430 O.3    53  TYR53      -0.2866
     27  N         28.6090    8.5240    9.8320 N.am   54  LEU54      -0.1966
     28  CA        27.7310    9.4520    9.1690 C.3    54  LEU54       0.1728
     29  C         28.2490   10.8740    9.5730 C.2    54  LEU54       0.2616
     30  O         27.7990   11.4830   10.4840 O.2    54  LEU54      -0.2715
     31  CB        26.2750    9.2460    9.6580 C.3    54  LEU54       0.0311
     32  CG        25.3200   10.1280    8.8840 C.3    54  LEU54       0.0022
     33  CD1       25.3110   10.0150    7.3780 C.3    54  LEU54       0.0001
     34  CD2       23.9660    9.7570    9.5210 C.3    54  LEU54       0.0001
     35  N         29.2590   11.2870    8.8160 N.am   55  ALA55      -0.1963
     36  CA        30.0870   12.4580    9.1530 C.3    55  ALA55       0.1728
     37  C         29.2760   13.7380    8.9260 C.2    55  ALA55       0.2616
     38  O         28.5960   13.8280    7.9060 O.2    55  ALA55      -0.2715
     39  CB        31.2390   12.4500    8.2430 C.3    55  ALA55       0.0334
     40  N         29.4770   14.6730    9.8260 N.am   56  PHE56      -0.1960
     41  CA        28.9070   16.1170    9.6860 C.3    56  PHE56       0.1771
     42  C         29.6230   16.8360    8.5760 C.2    56  PHE56       0.2619
     43  O         30.8920   16.8030    8.4980 O.2    56  PHE56      -0.2715
     44  CB        28.9060   16.7970   11.0430 C.3    56  PHE56       0.0574
     45  CG        27.9390   16.1330   12.0020 C.ar   56  PHE56      -0.0200
     46  CD1       26.5690   16.5610   12.0690 C.ar   56  PHE56      -0.0042
     47  CD2       28.3460   15.0540   12.7720 C.ar   56  PHE56      -0.0042
     48  CE1       25.6590   15.8250   12.9390 C.ar   56  PHE56      -0.0003
     49  CE2       27.4000   14.3270   13.6370 C.ar   56  PHE56      -0.0003
     50  CZ        26.0780   14.7600   13.7020 C.ar   56  PHE56      -0.0000
     51  N         28.8900   17.4650    7.6570 N.am   57  TYR57      -0.1974
     52  CA        29.4730   18.1070    6.5070 C.3    57  TYR57       0.1639
     53  C         29.0340   19.6170    6.4670 C.2    57  TYR57       0.2290
     54  O         29.8340   20.5320    6.3590 O.2    57  TYR57      -0.2864
     55  CB        29.1910   17.3880    5.2010 C.3    57  TYR57       0.0560
     56  CG        30.0020   18.0040    4.1200 C.ar   57  TYR57      -0.0198
     57  CD1       31.3720   17.6680    3.9480 C.ar   57  TYR57      -0.0009
     58  CD2       29.4860   19.0600    3.3510 C.ar   57  TYR57      -0.0009
     59  CE1       32.1880   18.3360    3.0010 C.ar   57  TYR57       0.0417
     60  CE2       30.3120   19.7280    2.4070 C.ar   57  TYR57       0.0417
     61  CZ        31.6750   19.3710    2.2710 C.ar   57  TYR57       0.1957
     62  OH        32.4600   20.0080    1.3330 O.3    57  TYR57      -0.2866
     63  N         27.3740   12.9520    5.4360 N.3   131  ARG131     -0.1245
     64  CA        27.8200   12.1140    4.3430 C.3   131  ARG131      0.1563
     65  C         28.5100   10.9100    4.9630 C.2   131  ARG131      0.2260
     66  O         29.3060   11.0760    5.8750 O.2   131  ARG131     -0.2867
     67  CB        28.8720   12.8870    3.5130 C.3   131  ARG131      0.0307
     68  CG        28.2500   14.0830    2.8150 C.3   131  ARG131      0.0489
     69  CD        29.3180   15.1230    2.3990 C.3   131  ARG131      0.2205
     70  NE        30.2200   14.7640    1.3100 N.pl3 131  ARG131     -0.0865
     71  CZ        29.9050   14.4690    0.0470 C.cat 131  ARG131      0.5346
     72  NH1       28.6300   14.3500   -0.3540 N.pl3 131  ARG131      0.1354
     73  NH2       30.9010   14.2320   -0.8160 N.pl3 131  ARG131      0.1354
     74  N         31.2250    8.2460    5.4430 N.3   133  VAL133     -0.1245
     75  CA        32.6570    8.1100    5.0520 C.3   133  VAL133      0.1561
     76  C         33.3030    6.9630    5.7770 C.2   133  VAL133      0.2260
     77  O         32.8170    6.5600    6.8340 O.2   133  VAL133     -0.2867
     78  CB        33.4450    9.3770    5.4470 C.3   133  VAL133      0.0252
     79  CG1       32.8440   10.5930    4.7440 C.3   133  VAL133      0.0019
     80  CG2       33.5080    9.5910    6.9750 C.3   133  VAL133      0.0019
     81  N         39.5050   10.8530    3.7760 N.3   144  LEU144     -0.1231
     82  CA        38.3210   10.0030    4.0720 C.3   144  LEU144      0.1693
     83  C         37.6650    9.6400    2.7470 C.2   144  LEU144      0.2592
     84  O         37.7490   10.4440    1.7950 O.2   144  LEU144     -0.2718
     85  CB        37.3480   10.7360    4.9990 C.3   144  LEU144      0.0284
     86  CG        38.0130   11.0370    6.3500 C.3   144  LEU144      0.0019
     87  CD1       37.1190   11.7860    7.3220 C.3   144  LEU144      0.0001
     88  CD2       38.7220    9.8310    7.0560 C.3   144  LEU144      0.0001
     89  N         37.0170    8.4730    2.6830 N.am  145  VAL145     -0.1966
     90  CA        36.4330    8.0180    1.4290 C.3   145  VAL145      0.1727
     91  C         34.9170    7.9060    1.5360 C.2   145  VAL145      0.2616
     92  O         34.4330    7.5770    2.5880 O.2   145  VAL145     -0.2715
     93  CB        37.0510    6.6960    0.9490 C.3   145  VAL145      0.0290
     94  CG1       38.5720    6.7770    0.9890 C.3   145  VAL145      0.0023
     95  CG2       36.6180    5.5480    1.7920 C.3   145  VAL145      0.0023
     96  N         34.2040    8.1880    0.4560 N.am  146  LYS146     -0.1977
     97  CA        32.7460    8.1060    0.4480 C.3   146  LYS146      0.1596
     98  C         32.2980    6.6480    0.6010 C.2   146  LYS146      0.2287
     99  O         32.9670    5.7250    0.1030 O.2   146  LYS146     -0.2864
    100  CB        32.2160    8.6660   -0.8520 C.3   146  LYS146      0.0298
    101  CG        32.1410   10.1380   -0.8350 C.3   146  LYS146      0.0038
    102  CD        31.9440   10.6850   -2.2450 C.3   146  LYS146      0.0206
    103  CE        31.0490    9.7520   -3.0720 C.3   146  LYS146      0.1093
    104  NZ        30.2660   10.5560   -4.0430 N.3   146  LYS146     -0.1314
    105  N         32.9420   27.2920    0.7580 N.3   174  ARG174     -0.1245
    106  CA        34.2620   26.7180    0.5630 C.3   174  ARG174      0.1563
    107  C         35.0540   27.6800   -0.3230 C.2   174  ARG174      0.2260
    108  O         36.3040   27.7530   -0.1910 O.2   174  ARG174     -0.2867
    109  CB        34.0750   25.4210   -0.1710 C.3   174  ARG174      0.0307
    110  CG        35.2650   24.5570   -0.4300 C.3   174  ARG174      0.0489
    111  CD        35.3010   24.0910   -1.9140 C.3   174  ARG174      0.2205
    112  NE        34.3150   23.1380   -2.4400 N.pl3 174  ARG174     -0.0865
    113  CZ        33.3920   22.4830   -1.7460 C.cat 174  ARG174      0.5346
    114  NH1       33.2800   22.6450   -0.4230 N.pl3 174  ARG174      0.1354
    115  NH2       32.5740   21.6610   -2.4030 N.pl3 174  ARG174      0.1354
    116  N         37.0290   12.3220   19.2890 N.3   207  ASN207     -0.1240
    117  CA        35.8010   11.5090   19.5270 C.3   207  ASN207      0.1653
    118  C         36.1550   10.0420   19.8010 C.2   207  ASN207      0.2266
    119  O         37.3440    9.6520   19.8470 O.2   207  ASN207     -0.2867
    120  CB        34.7540   11.6410   18.3820 C.3   207  ASN207      0.1155
    121  CG        35.1690   11.0080   17.0560 C.2   207  ASN207      0.2627
    122  OD1       36.1410   10.1880   16.9630 O.2   207  ASN207     -0.2716
    123  ND2       34.4380   11.3920   15.9790 N.am  207  ASN207     -0.0877
    124  N         38.7510   10.3990   15.5930 N.3   211  LEU211     -0.1231
    125  CA        38.6600   11.5020   14.6450 C.3   211  LEU211      0.1693
    126  C         38.4370   12.7950   15.4650 C.2   211  LEU211      0.2591
    127  O         38.1450   12.7210   16.6500 O.2   211  LEU211     -0.2718
    128  CB        37.4820   11.3350   13.6880 C.3   211  LEU211      0.0284
    129  CG        37.5520   10.1790   12.6500 C.3   211  LEU211      0.0019
    130  CD1       36.1430    9.8720   12.0980 C.3   211  LEU211      0.0001
    131  CD2       38.3880   10.6950   11.5370 C.3   211  LEU211      0.0001
    132  N         38.6300   13.9480   14.8580 N.am  212  LEU212     -0.1980
    133  CA        38.2610   15.1720   15.5750 C.3   212  LEU212      0.1596
    134  C         36.7170   15.1110   15.6460 C.2   212  LEU212      0.2287
    135  O         36.1240   14.8180   14.6500 O.2   212  LEU212     -0.2864
    136  CB        38.6170   16.4010   14.7830 C.3   212  LEU212      0.0297
    137  CG        40.1640   16.5490   14.6330 C.3   212  LEU212      0.0022
    138  CD1       40.3680   17.9410   14.0130 C.3   212  LEU212      0.0001
    139  CD2       40.8320   16.5160   16.0250 C.3   212  LEU212      0.0001
    140  N         32.8610   16.3470   15.9420 N.3   214  PHE214     -0.1241
    141  CA        32.3050   17.3800   15.0710 C.3   214  PHE214      0.1605
    142  C         31.9980   18.5740   16.0230 C.2   214  PHE214      0.2264
    143  O         32.0830   19.7420   15.5780 O.2   214  PHE214     -0.2867
    144  CB        30.9960   16.9020   14.3480 C.3   214  PHE214      0.0534
    145  CG        29.8500   16.7430   15.3020 C.ar  214  PHE214     -0.0203
    146  CD1       28.8900   17.7860   15.4540 C.ar  214  PHE214     -0.0042
    147  CD2       29.7050   15.5770   16.0790 C.ar  214  PHE214     -0.0042
    148  CE1       27.8450   17.6550   16.3700 C.ar  214  PHE214     -0.0003
    149  CE2       28.6200   15.4350   16.9650 C.ar  214  PHE214     -0.0003
    150  CZ        27.6990   16.4660   17.1510 C.ar  214  PHE214     -0.0000
    151  N         34.7270   21.4350   16.5650 N.3   217  TYR217     -0.1241
    152  CA        34.8840   22.4550   15.5230 C.3   217  TYR217      0.1605
    153  C         34.2070   23.7200   16.0000 C.2   217  TYR217      0.2264
    154  O         34.7460   24.8660   15.8620 O.2   217  TYR217     -0.2867
    155  CB        34.3990   22.0670   14.1280 C.3   217  TYR217      0.0534
    156  CG        35.2370   21.0150   13.4180 C.ar  217  TYR217     -0.0201
    157  CD1       35.8540   21.3090   12.2020 C.ar  217  TYR217     -0.0009
    158  CD2       35.2340   19.6610   13.9080 C.ar  217  TYR217     -0.0009
    159  CE1       36.5530   20.3420   11.4610 C.ar  217  TYR217      0.0417
    160  CE2       35.9650   18.6710   13.2390 C.ar  217  TYR217      0.0417
    161  CZ        36.6210   19.0180   12.0170 C.ar  217  TYR217      0.1957
    162  OH        37.3170   18.0400   11.3360 O.3   217  TYR217     -0.2866
    163  N         32.3050   21.4210    7.1640 N.3   251  TYR251     -0.1227
    164  CA        33.3810   20.5040    7.5770 C.3   251  TYR251      0.1736
    165  C         34.0910   19.9540    6.3020 C.2   251  TYR251      0.2595
    166  O         33.6880   18.9770    5.6270 O.2   251  TYR251     -0.2718
    167  CB        32.8230   19.3220    8.4510 C.3   251  TYR251      0.0548
    168  CG        32.1880   19.6600    9.7590 C.ar  251  TYR251     -0.0200
    169  CD1       32.9090   19.6340   10.9400 C.ar  251  TYR251     -0.0009
    170  CD2       30.8030   20.0400    9.8060 C.ar  251  TYR251     -0.0009
    171  CE1       32.3800   19.8510   12.1690 C.ar  251  TYR251      0.0417
    172  CE2       30.2650   20.3320   11.0310 C.ar  251  TYR251      0.0417
    173  CZ        31.0130   20.2860   12.1920 C.ar  251  TYR251      0.1957
    174  OH        30.4980   20.4800   13.3930 O.3   251  TYR251     -0.2866
    175  N         35.1300   20.6540    5.8820 N.am  252  LEU252     -0.1966
    176  CA        35.8510   20.2360    4.6750 C.3   252  LEU252      0.1728
    177  C         36.7640   19.0430    4.8940 C.2   252  LEU252      0.2617
    178  O         37.0020   18.3160    3.9490 O.2   252  LEU252     -0.2715
    179  CB        36.7050   21.3370    4.1080 C.3   252  LEU252      0.0311
    180  CG        35.8890   22.5440    3.5480 C.3   252  LEU252      0.0022
    181  CD1       35.5860   23.5170    4.6020 C.3   252  LEU252      0.0001
    182  CD2       36.7490   23.2540    2.5010 C.3   252  LEU252      0.0001
    183  N         37.2740   18.8860    6.0870 N.am  253  GLY253     -0.1940
    184  CA        38.1440   17.6900    6.3990 C.3   253  GLY253      0.2014
    185  C         38.2850   17.4940    7.8750 C.2   253  GLY253      0.2638
    186  O         37.8550   18.3340    8.7240 O.2   253  GLY253     -0.2714
    187  N         38.8850   16.3440    8.2200 N.am  254  ASN254     -0.1972
    188  CA        39.2640   16.0040    9.5210 C.3   254  ASN254      0.1688
    189  C         40.7930   16.1650    9.5960 C.2   254  ASN254      0.2292
    190  O         41.3850   16.7490    8.6680 O.2   254  ASN254     -0.2864
    191  CB        38.8390   14.5850    9.8790 C.3   254  ASN254      0.1181
    192  CG        38.5250   14.4520   11.4060 C.2   254  ASN254      0.2629
    193  OD1       39.4220   14.2550   12.1860 O.2   254  ASN254     -0.2716
    194  ND2       37.2040   14.6380   11.8270 N.am  254  ASN254     -0.0877
@<TRIPOS>BOND
     1   104   103    1
     2   103   102    1
     3   112   111    1
     4   112   113    2
     5   115   113    1
     6   102   101    1
     7   111   110    1
     8   113   114    1
     9   100   101    1
    10   100    97    1
    11    73    71    1
    12   110   109    1
    13    72    71    1
    14   107   108    2
    15   107   106    1
    16   109   106    1
    17    71    70    2
    18    99    98    2
    19    97    96    1
    20    97    98    1
    21    96    91   am
    22   106   105    1
    23    93    94    1
    24    93    90    1
    25    93    95    1
    26    70    69    1
    27    62    61    1
    28    90    91    1
    29    90    89    1
    30    91    92    2
    31    84    83    2
    32    61    60   ar
    33    61    59   ar
    34    69    68    1
    35    60    58   ar
    36   182   180    1
    37    89    83   am
    38    83    82    1
    39    68    67    1
    40    59    57   ar
    41    58    56   ar
    42    67    64    1
    43   180   179    1
    44   180   181    1
    45    81    82    1
    46    57    56   ar
    47   178   177    2
    48    82    85    1
    49   179   176    1
    50    56    55    1
    51    64    65    1
    52    64    63    1
    53   176   177    1
    54   176   175    1
    55    79    78    1
    56   177   183   am
    57    65    66    2
    58    85    86    1
    59    75    74    1
    60    75    78    1
    61    75    76    1
    62    55    52    1
    63    78    80    1
    64   166   165    2
    65    76    77    2
    66   175   165   am
    67   183   184    1
    68   165   164    1
    69    86    88    1
    70    86    87    1
    71    54    53    2
    72   184   185    1
    73    53    52    1
    74    52    51    1
    75   163   164    1
    76    33    32    1
    77   164   167    1
    78    51    42   am
    79   185   187   am
    80   185   186    2
    81    38    37    2
    82    18    17    2
    83   187   188    1
    84    39    36    1
    85   167   168    1
    86    43    42    2
    87    42    41    1
    88   190   189    2
    89    35    36    1
    90    35    29   am
    91    32    34    1
    92    32    31    1
    93    37    36    1
    94    37    40   am
    95    15    16    1
    96    28    29    1
    97    28    31    1
    98    28    27    1
    99    17    27   am
   100    17    16    1
   101   188   189    1
   102   188   191    1
   103    29    30    2
   104    41    40    1
   105    41    44    1
   106   168   170   ar
   107   168   169   ar
   108   170   172   ar
   109   191   192    1
   110    16    19    1
   111    19    20    1
   112    22    20   ar
   113    22    24   ar
   114   169   171   ar
   115   172   173   ar
   116    44    45    1
   117    20    21   ar
   118    24    25   ar
   119   162   161    1
   120   192   194   am
   121   192   193    2
   122   159   161   ar
   123   159   157   ar
   124   131   129    1
   125    45    46   ar
   126    45    47   ar
   127   161   160   ar
   128    46    48   ar
   129   130   129    1
   130   171   173   ar
   131   173   174    1
   132   157   156   ar
   133    21    23   ar
   134    25    26    1
   135    25    23   ar
   136   129   128    1
   137    47    49   ar
   138     9     7   ar
   139     9    10   ar
   140    48    50   ar
   141   160   158   ar
   142     7     6   ar
   143    12    10   ar
   144    12    14   ar
   145   156   158   ar
   146   156   155    1
   147    10     8   ar
   148    49    50   ar
   149   128   125    1
   150     4     3    2
   151   138   137    1
   152   155   152    1
   153    14    13   ar
   154     2     1    1
   155     2     3    1
   156     2     5    1
   157     6     8   ar
   158     6     5    1
   159   144   141    1
   160   144   145    1
   161     8    11   ar
   162   137   136    1
   163   137   139    1
   164   125   126    1
   165   125   124    1
   166   135   134    2
   167   136   133    1
   168   132   126   am
   169   132   133    1
   170    13    11   ar
   171   141   140    1
   172   141   142    1
   173   145   146   ar
   174   145   147   ar
   175   146   148   ar
   176   126   127    2
   177   152   153    1
   178   152   151    1
   179   133   134    1
   180   143   142    2
   181   154   153    2
   182   123   121   am
   183   147   149   ar
   184   148   150   ar
   185   122   121    2
   186   149   150   ar
   187   121   120    1
   188   120   117    1
   189   116   117    1
   190   117   118    1
   191   118   119    2
