@<TRIPOS>MOLECULE
tmp/4hztA00.pdb
 168 159 0 0 0
SMALL
GASTEIGER

@<TRIPOS>ATOM
      1  N          5.5070  -23.3490   13.3040 N.3    15  GLY15      -0.1210
      2  CA         5.8040  -22.9100   11.9440 C.3    15  GLY15       0.1956
      3  C          5.9320  -21.3990   11.8080 C.2    15  GLY15       0.2612
      4  O          6.3060  -20.9040   10.7260 O.2    15  GLY15      -0.2717
      5  N          5.6890  -20.6540   12.8910 N.am   16  GLN16      -0.1965
      6  CA         5.7880  -19.1890   12.8460 C.3    16  GLN16       0.1733
      7  C          6.5900  -18.6430   14.0300 C.2    16  GLN16       0.2616
      8  O          6.3620  -17.5190   14.4880 O.2    16  GLN16      -0.2715
      9  CB         4.3870  -18.5440   12.7760 C.3    16  GLN16       0.0408
     10  CG         3.5060  -19.3950   11.8660 C.3    16  GLN16       0.0908
     11  CD         2.0830  -18.8740   11.7070 C.2    16  GLN16       0.2608
     12  OE1        1.4050  -18.5320   12.6930 O.2    16  GLN16      -0.2717
     13  NE2        1.6010  -18.8720   10.4550 N.am   16  GLN16      -0.0878
     14  N          7.5470  -19.4540   14.4830 N.am   17  GLY17      -0.1955
     15  CA         8.5820  -19.0220   15.4240 C.3    17  GLY17       0.1869
     16  C          8.1040  -18.8430   16.8490 C.2    17  GLY17       0.2309
     17  O          6.9590  -19.2400   17.2400 O.2    17  GLY17      -0.2863
     18  N          9.3600  -11.6010   17.7490 N.3    34  LEU34      -0.1245
     19  CA         9.9820  -12.8700   17.3220 C.3    34  LEU34       0.1561
     20  C         11.4230  -12.9420   17.7450 C.2    34  LEU34       0.2260
     21  O         12.1850  -12.0130   17.5000 O.2    34  LEU34      -0.2867
     22  CB         9.9020  -12.9890   15.7610 C.3    34  LEU34       0.0270
     23  CG        10.4240  -14.3060   15.1440 C.3    34  LEU34       0.0019
     24  CD1        9.3710  -15.4230   15.2710 C.3    34  LEU34       0.0001
     25  CD2       10.6360  -14.0340   13.6470 C.3    34  LEU34       0.0001
     26  N         14.9180  -14.1290   16.9430 N.3    36  ASP36      -0.1239
     27  CA        15.5780  -14.4710   15.6600 C.3    36  ASP36       0.1674
     28  C         17.0980  -14.4580   15.7620 C.2    36  ASP36       0.2266
     29  O         17.7350  -13.3760   15.6950 O.2    36  ASP36      -0.2867
     30  CB        15.1090  -13.5900   14.4810 C.3    36  ASP36       0.1410
     31  CG        15.7120  -14.0470   13.1190 C.2    36  ASP36       0.3668
     32  OD1       15.7370  -13.2300   12.1470 O.co2  36  ASP36      -0.2456
     33  OD2       16.1790  -15.2120   13.0010 O.co2  36  ASP36      -0.2456
     34  N         14.0940  -10.0310    1.6220 N.3    75  TYR75      -0.1241
     35  CA        14.2900  -11.4470    1.8360 C.3    75  TYR75       0.1605
     36  C         13.9650  -12.1150    0.4960 C.2    75  TYR75       0.2264
     37  O         13.3170  -11.4930   -0.3710 O.2    75  TYR75      -0.2867
     38  CB        13.2900  -11.9730    2.8610 C.3    75  TYR75       0.0534
     39  CG        13.6430  -11.6320    4.3190 C.ar   75  TYR75      -0.0201
     40  CD1       14.3010  -12.5760    5.1080 C.ar   75  TYR75      -0.0009
     41  CD2       13.2960  -10.3910    4.8890 C.ar   75  TYR75      -0.0009
     42  CE1       14.6320  -12.2850    6.4500 C.ar   75  TYR75       0.0417
     43  CE2       13.6100  -10.0730    6.2290 C.ar   75  TYR75       0.0417
     44  CZ        14.2530  -11.0350    6.9940 C.ar   75  TYR75       0.1957
     45  OH        14.5410  -10.7710    8.2980 O.3    75  TYR75      -0.2866
     46  N         11.7890  -14.1300    0.2470 N.3    77  GLN77      -0.1231
     47  CA        10.3620  -14.4160    0.4830 C.3    77  GLN77       0.1698
     48  C          9.4460  -13.1650    0.6500 C.2    77  GLN77       0.2593
     49  O          8.2110  -13.3010    0.7500 O.2    77  GLN77      -0.2718
     50  CB        10.2720  -15.3450    1.7300 C.3    77  GLN77       0.0381
     51  CG        11.6040  -15.2820    2.6340 C.3    77  GLN77       0.0905
     52  CD        11.9590  -16.5870    3.4090 C.2    77  GLN77       0.2608
     53  OE1       11.2730  -17.6310    3.3060 O.2    77  GLN77      -0.2717
     54  NE2       13.0480  -16.5220    4.1800 N.am   77  GLN77      -0.0878
     55  N         10.0360  -11.9610    0.6540 N.am   78  GLY78      -0.1942
     56  CA         9.3100  -10.7270    0.9470 C.3    78  GLY78       0.2014
     57  C         10.2620   -9.6420    1.3950 C.2    78  GLY78       0.2638
     58  O         11.4310   -9.6890    1.0430 O.2    78  GLY78      -0.2714
     59  N          9.7750   -8.6560    2.1470 N.am   79  LYS79      -0.1977
     60  CA        10.6560   -7.5930    2.6230 C.3    79  LYS79       0.1596
     61  C         10.0100   -6.8150    3.7660 C.2    79  LYS79       0.2287
     62  O          8.7890   -6.8290    3.9320 O.2    79  LYS79      -0.2864
     63  CB        11.0620   -6.5980    1.4750 C.3    79  LYS79       0.0298
     64  CG         9.9050   -6.0160    0.7210 C.3    79  LYS79       0.0038
     65  CD         9.5150   -4.5620    1.1410 C.3    79  LYS79       0.0206
     66  CE         9.1350   -3.7670   -0.0930 C.3    79  LYS79       0.1093
     67  NZ         8.1990   -2.6890    0.1150 N.3    79  LYS79      -0.1314
     68  N          4.6270   -9.7650    2.7830 N.3   111  LYS111     -0.1231
     69  CA         4.7740  -11.1430    3.1160 C.3   111  LYS111      0.1693
     70  C          5.6310  -11.3970    4.3560 C.2   111  LYS111      0.2592
     71  O          6.2030  -12.4870    4.5130 O.2   111  LYS111     -0.2718
     72  CB         5.3420  -11.9450    1.9210 C.3   111  LYS111      0.0285
     73  CG         4.5590  -11.8600    0.6110 C.3   111  LYS111      0.0035
     74  CD         5.5920  -12.1670   -0.5350 C.3   111  LYS111      0.0206
     75  CE         5.0120  -12.1890   -1.9410 C.3   111  LYS111      0.1093
     76  NZ         4.2370  -13.4840   -2.1190 N.3   111  LYS111     -0.1314
     77  N          5.6740  -10.4170    5.2610 N.am  112  PHE112     -0.1976
     78  CA         6.4620  -10.4900    6.4880 C.3   112  PHE112      0.1639
     79  C          5.5380  -10.8050    7.6970 C.2   112  PHE112      0.2290
     80  O          5.6880  -11.8310    8.3400 O.2   112  PHE112     -0.2864
     81  CB         7.2090   -9.1510    6.6770 C.3   112  PHE112      0.0560
     82  CG         8.2100   -9.1720    7.7980 C.ar  112  PHE112     -0.0200
     83  CD1        9.2810  -10.0340    7.7540 C.ar  112  PHE112     -0.0042
     84  CD2        8.0360   -8.3680    8.9130 C.ar  112  PHE112     -0.0042
     85  CE1       10.2410  -10.0560    8.7750 C.ar  112  PHE112     -0.0003
     86  CE2        8.9550   -8.3840    9.9690 C.ar  112  PHE112     -0.0003
     87  CZ        10.0640   -9.2360    9.9270 C.ar  112  PHE112     -0.0000
     88  N          2.2140  -12.3180    8.8720 N.3   114  ILE114     -0.1245
     89  CA         1.2480  -13.3210    8.3480 C.3   114  ILE114      0.1561
     90  C         -0.0760  -13.3110    9.1230 C.2   114  ILE114      0.2260
     91  O         -0.1080  -13.0420   10.3220 O.2   114  ILE114     -0.2867
     92  CB         1.8190  -14.7960    8.4000 C.3   114  ILE114      0.0252
     93  CG1        3.3320  -14.8240    8.2130 C.3   114  ILE114      0.0019
     94  CG2        1.1300  -15.6860    7.3700 C.3   114  ILE114      0.0019
     95  CD1        3.9740  -16.2390    8.3330 C.3   114  ILE114      0.0001
     96  N          2.9780  -12.0220   16.3350 N.3   119  TRP119     -0.1241
     97  CA         4.1300  -11.1930   16.6910 C.3   119  TRP119      0.1605
     98  C          4.0400   -9.9280   15.8710 C.2   119  TRP119      0.2264
     99  O          3.5100   -9.9330   14.7420 O.2   119  TRP119     -0.2867
    100  CB         5.5220  -11.8860   16.5670 C.3   119  TRP119      0.0550
    101  CG         5.7670  -12.6370   15.2840 C.ar  119  TRP119      0.0003
    102  CD1        5.4320  -13.9640   15.0370 C.ar  119  TRP119      0.0946
    103  CD2        6.3190  -12.1370   14.0480 C.ar  119  TRP119      0.0152
    104  NE1        5.7640  -14.2940   13.7570 N.ar  119  TRP119     -0.2442
    105  CE2        6.3250  -13.2090   13.1290 C.ar  119  TRP119      0.0810
    106  CE3        6.8730  -10.9250   13.6600 C.ar  119  TRP119      0.0012
    107  CZ2        6.8440  -13.0820   11.8110 C.ar  119  TRP119      0.0191
    108  CZ3        7.3760  -10.7820   12.3550 C.ar  119  TRP119      0.0001
    109  CH2        7.3630  -11.8650   11.4500 C.ar  119  TRP119      0.0015
    110  N         10.5130   -8.0620   15.2650 N.3   122  ILE122     -0.1245
    111  CA        11.5290   -9.1220   15.2320 C.3   122  ILE122      0.1561
    112  C         12.7630   -8.6620   16.0320 C.2   122  ILE122      0.2260
    113  O         13.1830   -7.4970   15.9500 O.2   122  ILE122     -0.2867
    114  CB        11.9110   -9.4370   13.7590 C.3   122  ILE122      0.0252
    115  CG1       12.9530  -10.5600   13.6760 C.3   122  ILE122      0.0019
    116  CG2       12.4290   -8.1510   13.0740 C.3   122  ILE122      0.0019
    117  CD1       13.0910  -11.1120   12.1750 C.3   122  ILE122      0.0001
    118  N         19.7040  -21.0870   13.9710 N.3   222  ASP222     -0.1239
    119  CA        18.7300  -20.0260   13.5760 C.3   222  ASP222      0.1674
    120  C         17.3560  -20.3080   14.0660 C.2   222  ASP222      0.2266
    121  O         16.5940  -21.0700   13.4520 O.2   222  ASP222     -0.2867
    122  CB        18.7180  -19.9120   12.0370 C.3   222  ASP222      0.1410
    123  CG        17.8340  -18.7430   11.5930 C.2   222  ASP222      0.3668
    124  OD1       17.3740  -18.0270   12.4860 O.co2 222  ASP222     -0.2456
    125  OD2       17.5450  -18.6270   10.4010 O.co2 222  ASP222     -0.2456
    126  N         14.9320  -18.3670   13.9220 N.3   224  GLY224     -0.1210
    127  CA        14.0340  -17.7370   12.9580 C.3   224  GLY224      0.1956
    128  C         13.6930  -18.6200   11.7460 C.2   224  GLY224      0.2613
    129  O         12.8500  -18.2640   10.9410 O.2   224  GLY224     -0.2717
    130  N         14.2910  -19.8000   11.6460 N.am  225  THR225     -0.1938
    131  CA        14.0040  -20.7440   10.5500 C.3   225  THR225      0.2028
    132  C         13.2440  -21.9390   11.1580 C.2   225  THR225      0.2643
    133  O         13.4960  -22.3460   12.3110 O.2   225  THR225     -0.2714
    134  CB        15.2990  -21.1780    9.8850 C.3   225  THR225      0.1808
    135  OG1       15.8560  -20.0720    9.1510 O.3   225  THR225     -0.2208
    136  CG2       15.1460  -22.3910    8.9850 C.3   225  THR225      0.0379
    137  N         12.2360  -22.4200   10.4540 N.am  226  THR226     -0.1936
    138  CA        11.5180  -23.5690   10.9260 C.3   226  THR226      0.2028
    139  C         12.2600  -24.8840   10.6910 C.2   226  THR226      0.2642
    140  O         12.3970  -25.7180   11.6060 O.2   226  THR226     -0.2714
    141  CB        10.1250  -23.6490   10.2360 C.3   226  THR226      0.1808
    142  OG1        9.3770  -22.4580   10.5190 O.3   226  THR226     -0.2208
    143  CG2        9.3400  -24.8380   10.7380 C.3   226  THR226      0.0379
    144  N         12.6630  -25.1130    9.4360 N.am  227  ASN227     -0.1971
    145  CA        13.1440  -26.4230    9.0470 C.3   227  ASN227      0.1688
    146  C         14.6080  -26.6550    9.4030 C.2   227  ASN227      0.2292
    147  O         15.3400  -25.7400    9.7840 O.2   227  ASN227     -0.2864
    148  CB        12.9810  -26.5680    7.5270 C.3   227  ASN227      0.1181
    149  CG        11.5130  -26.6460    7.1360 C.2   227  ASN227      0.2629
    150  OD1       10.6720  -26.6520    8.0000 O.2   227  ASN227     -0.2716
    151  ND2       11.2190  -26.7970    5.8370 N.am  227  ASN227     -0.0877
    152  N         17.5750  -27.0580    7.2100 N.3   229  ARG229     -0.1245
    153  CA        17.8280  -26.7620    5.7840 C.3   229  ARG229      0.1563
    154  C         19.2200  -27.2660    5.5030 C.2   229  ARG229      0.2260
    155  O         20.1100  -27.0660    6.3040 O.2   229  ARG229     -0.2867
    156  CB        17.6270  -25.2550    5.4750 C.3   229  ARG229      0.0307
    157  CG        16.2650  -24.7100    6.0960 C.3   229  ARG229      0.0489
    158  CD        15.9000  -23.2910    5.4800 C.3   229  ARG229      0.2205
    159  NE        15.9470  -23.2740    4.0090 N.pl3 229  ARG229     -0.0865
    160  CZ        16.9020  -22.6870    3.2380 C.cat 229  ARG229      0.5346
    161  NH1       16.7920  -22.7490    1.9210 N.pl3 229  ARG229      0.1354
    162  NH2       17.9590  -22.0240    3.7320 N.pl3 229  ARG229      0.1354
    163  N         14.5650  -29.3950    4.2540 N.3   319  SER319     -0.1217
    164  CA        14.4400  -28.7950    2.9340 C.3   319  SER319      0.1889
    165  C         15.8280  -28.4570    2.3210 C.2   319  SER319      0.2288
    166  O         16.8570  -28.2870    3.0240 O.2   319  SER319     -0.2866
    167  CB        13.4920  -27.5960    3.0470 C.3   319  SER319      0.2089
    168  OG        14.0720  -26.5500    3.7700 O.3   319  SER319     -0.2183
@<TRIPOS>BOND
     1    76    75    1
     2    75    74    1
     3    74    73    1
     4    37    36    2
     5    66    67    1
     6    66    65    1
     7    46    47    1
     8    47    48    1
     9    47    50    1
    10    36    35    1
    11    73    72    1
    12    48    55   am
    13    48    49    2
    14    55    56    1
    15    64    65    1
    16    64    63    1
    17    56    57    1
    18    58    57    2
    19    57    59   am
    20    63    60    1
    21    34    35    1
    22    50    51    1
    23    35    38    1
    24    72    69    1
    25   161   160    1
    26    59    60    1
    27   165   164    1
    28   165   166    2
    29    60    61    1
    30    51    52    1
    31    68    69    1
    32    38    39    1
    33   164   167    1
    34   164   163    1
    35   167   168    1
    36    69    70    1
    37   160   162    1
    38   160   159    2
    39    53    52    2
    40    52    54   am
    41    61    62    2
    42   159   158    1
    43    39    41   ar
    44    39    40   ar
    45    70    71    2
    46    70    77   am
    47    41    43   ar
    48    40    42   ar
    49    77    78    1
    50   156   153    1
    51   156   157    1
    52   158   157    1
    53   154   153    1
    54   154   155    2
    55   153   152    1
    56   151   149   am
    57    43    44   ar
    58    42    44   ar
    59    78    81    1
    60    78    79    1
    61    81    82    1
    62    44    45    1
    63   149   148    1
    64   149   150    2
    65    94    92    1
    66   148   145    1
    67    79    80    2
    68    83    82   ar
    69    83    85   ar
    70    82    84   ar
    71    93    95    1
    72    93    92    1
    73    89    92    1
    74    89    88    1
    75    89    90    1
    76    85    87   ar
    77    84    86   ar
    78   136   134    1
    79   145   146    1
    80   145   144    1
    81    90    91    2
    82   135   134    1
    83   146   147    2
    84   144   139   am
    85   134   131    1
    86    87    86   ar
    87   141   142    1
    88   141   143    1
    89   141   138    1
    90   125   123   ar
    91   137   138    1
    92   137   132   am
    93    13    11   am
    94   131   132    1
    95   131   130    1
    96   139   138    1
    97   139   140    2
    98     4     3    2
    99   129   128    2
   100   132   133    2
   101   109   107   ar
   102   109   108   ar
   103   123   122    1
   104   123   124   ar
   105   130   128   am
   106    11    10    1
   107    11    12    2
   108   128   127    1
   109     3     2    1
   110     3     5   am
   111   107   105   ar
   112    10     9    1
   113     2     1    1
   114   122   119    1
   115    32    31   ar
   116   117   115    1
   117   108   106   ar
   118     9     6    1
   119     6     5    1
   120     6     7    1
   121   127   126    1
   122    33    31   ar
   123   116   114    1
   124    31    30    1
   125   105   104   ar
   126   105   103   ar
   127   121   120    2
   128   119   118    1
   129   119   120    1
   130    25    23    1
   131   106   103   ar
   132   115   114    1
   133   104   102   ar
   134   114   111    1
   135     7    14   am
   136     7     8    2
   137   103   101   ar
   138    30    27    1
   139    14    15    1
   140    99    98    2
   141   102   101   ar
   142    23    24    1
   143    23    22    1
   144   111   110    1
   145   111   112    1
   146   101   100    1
   147    15    16    1
   148    27    28    1
   149    27    26    1
   150    29    28    2
   151    22    19    1
   152    98    97    1
   153   113   112    2
   154    96    97    1
   155   100    97    1
   156    16    17    2
   157    19    20    1
   158    19    18    1
   159    21    20    2
