@<TRIPOS>MOLECULE
tmp/4hzwA01.pdb
 171 160 0 0 0
SMALL
GASTEIGER

@<TRIPOS>ATOM
      1  N         -3.2860  -20.0000   35.8480 N.3    37  ARG37      -0.1231
      2  CA        -2.6970  -21.3390   35.7050 C.3    37  ARG37       0.1694
      3  C         -2.9490  -21.7990   34.2700 C.2    37  ARG37       0.2591
      4  O         -3.5850  -21.0890   33.5020 O.2    37  ARG37      -0.2718
      5  CB        -3.2380  -22.3660   36.7210 C.3    37  ARG37       0.0321
      6  CG        -2.2630  -22.6830   37.8820 C.3    37  ARG37       0.0489
      7  CD        -2.3550  -24.1550   38.3310 C.3    37  ARG37       0.2205
      8  NE        -1.8340  -25.0530   37.3030 N.pl3  37  ARG37      -0.0865
      9  CZ        -2.2290  -26.3140   37.1360 C.cat  37  ARG37       0.5346
     10  NH1       -3.1480  -26.8380   37.9360 N.pl3  37  ARG37       0.1354
     11  NH2       -1.7150  -27.0450   36.1580 N.pl3  37  ARG37       0.1354
     12  N         -2.4330  -22.9730   33.9140 N.am   38  GLU38      -0.1979
     13  CA        -2.5790  -23.5150   32.5670 C.3    38  GLU38       0.1602
     14  C         -2.1460  -22.5130   31.4950 C.2    38  GLU38       0.2287
     15  O         -2.9090  -22.1890   30.5870 O.2    38  GLU38      -0.2864
     16  CB        -4.0140  -23.9970   32.3210 C.3    38  GLU38       0.0415
     17  CG        -4.4630  -25.1210   33.2490 C.3    38  GLU38       0.1163
     18  CD        -4.9960  -24.6230   34.5820 C.2    38  GLU38       0.3649
     19  OE1       -5.5760  -23.5110   34.6350 O.co2  38  GLU38      -0.2457
     20  OE2       -4.8510  -25.3590   35.5800 O.co2  38  GLU38      -0.2457
     21  N         -5.0480  -19.1380   31.7450 N.3    53  LEU53      -0.1245
     22  CA        -6.3800  -19.0410   32.3250 C.3    53  LEU53       0.1561
     23  C         -6.2890  -18.2370   33.6130 C.2    53  LEU53       0.2260
     24  O         -5.7660  -18.7110   34.6180 O.2    53  LEU53      -0.2867
     25  CB        -6.9570  -20.4330   32.6020 C.3    53  LEU53       0.0270
     26  CG        -7.1350  -21.3240   31.3710 C.3    53  LEU53       0.0019
     27  CD1       -7.6630  -22.6960   31.7820 C.3    53  LEU53       0.0001
     28  CD2       -8.0650  -20.6750   30.3370 C.3    53  LEU53       0.0001
     29  N        -10.3280  -25.4550   40.0390 N.3    70  ASP70      -0.1225
     30  CA       -10.0640  -25.5160   38.5990 C.3    70  ASP70       0.1805
     31  C        -11.0410  -24.7220   37.7410 C.2    70  ASP70       0.2597
     32  O        -10.6440  -24.1090   36.7530 O.2    70  ASP70      -0.2718
     33  CB       -10.0770  -26.9630   38.1170 C.3    70  ASP70       0.1424
     34  CG        -8.7840  -27.6870   38.4070 C.2    70  ASP70       0.3668
     35  OD1       -7.6980  -27.1460   38.0910 O.co2  70  ASP70      -0.2456
     36  OD2       -8.8610  -28.8150   38.9300 O.co2  70  ASP70      -0.2456
     37  N        -12.3190  -24.7570   38.1010 N.am   71  ARG71      -0.1979
     38  CA       -13.3490  -24.2000   37.2380 C.3    71  ARG71       0.1597
     39  C        -14.2690  -23.2470   37.9880 C.2    71  ARG71       0.2287
     40  O        -14.9470  -23.6390   38.9330 O.2    71  ARG71      -0.2864
     41  CB       -14.1500  -25.3290   36.5670 C.3    71  ARG71       0.0334
     42  CG       -13.2660  -26.2830   35.7540 C.3    71  ARG71       0.0492
     43  CD       -14.0270  -27.5090   35.2260 C.3    71  ARG71       0.2205
     44  NE       -14.6680  -28.2770   36.2910 N.pl3  71  ARG71      -0.0865
     45  CZ       -14.0320  -29.1310   37.0920 C.cat  71  ARG71       0.5346
     46  NH1      -14.7050  -29.7760   38.0380 N.pl3  71  ARG71       0.1354
     47  NH2      -12.7250  -29.3350   36.9590 N.pl3  71  ARG71       0.1354
     48  N        -13.0120  -17.2680   35.6010 N.3    75  ARG75      -0.1245
     49  CA       -11.8220  -17.5620   34.8220 C.3    75  ARG75       0.1563
     50  C        -12.0030  -17.1360   33.3750 C.2    75  ARG75       0.2260
     51  O        -13.0410  -17.3970   32.7580 O.2    75  ARG75      -0.2867
     52  CB       -11.4680  -19.0490   34.9020 C.3    75  ARG75       0.0307
     53  CG       -11.2120  -19.5260   36.3250 C.3    75  ARG75       0.0489
     54  CD       -10.3510  -20.7750   36.3360 C.3    75  ARG75       0.2205
     55  NE        -8.9490  -20.4770   36.0710 N.pl3  75  ARG75      -0.0865
     56  CZ        -7.9880  -21.3900   36.1260 C.cat  75  ARG75       0.5346
     57  NH1       -8.2910  -22.6440   36.4370 N.pl3  75  ARG75       0.1354
     58  NH2       -6.7260  -21.0540   35.8850 N.pl3  75  ARG75       0.1354
     59  N        -12.5430  -21.7930   31.4060 N.3    98  TRP98      -0.1227
     60  CA       -11.7410  -22.5630   32.3570 C.3    98  TRP98       0.1737
     61  C        -10.9900  -23.7240   31.6880 C.2    98  TRP98       0.2596
     62  O        -10.3630  -24.5450   32.3570 O.2    98  TRP98      -0.2718
     63  CB       -12.5320  -23.0170   33.6000 C.3    98  TRP98       0.0564
     64  CG       -13.9350  -23.5480   33.3860 C.ar   98  TRP98       0.0003
     65  CD1      -15.0930  -22.9840   33.8400 C.ar   98  TRP98       0.0946
     66  CD2      -14.3180  -24.7660   32.7240 C.ar   98  TRP98       0.0152
     67  NE1      -16.1720  -23.7610   33.4880 N.ar   98  TRP98      -0.2442
     68  CE2      -15.7240  -24.8580   32.7980 C.ar   98  TRP98       0.0810
     69  CE3      -13.6090  -25.7790   32.0700 C.ar   98  TRP98       0.0012
     70  CZ2      -16.4380  -25.9230   32.2390 C.ar   98  TRP98       0.0191
     71  CZ3      -14.3190  -26.8400   31.5140 C.ar   98  TRP98       0.0001
     72  CH2      -15.7170  -26.9030   31.6010 C.ar   98  TRP98       0.0015
     73  N        -11.0590  -23.7700   30.3610 N.am   99  SER99      -0.1952
     74  CA       -10.2240  -24.6430   29.5430 C.3    99  SER99       0.1924
     75  C        -10.1490  -23.9780   28.1820 C.2    99  SER99       0.2314
     76  O        -11.1320  -23.3810   27.7360 O.2    99  SER99      -0.2863
     77  CB       -10.8430  -26.0350   29.4100 C.3    99  SER99       0.2116
     78  OG       -10.0000  -26.8860   28.6460 O.3    99  SER99      -0.2180
     79  N        -17.6400  -32.1950   32.0550 N.3   142  ILE142     -0.1245
     80  CA       -16.4430  -31.3630   31.9460 C.3   142  ILE142      0.1561
     81  C        -15.8390  -31.3830   30.5390 C.2   142  ILE142      0.2260
     82  O        -14.6960  -31.8010   30.3290 O.2   142  ILE142     -0.2867
     83  CB       -15.3880  -31.7270   33.0130 C.3   142  ILE142      0.0252
     84  CG1      -16.0540  -31.8710   34.3850 C.3   142  ILE142      0.0019
     85  CG2      -14.2860  -30.6670   33.0600 C.3   142  ILE142      0.0019
     86  CD1      -15.0980  -32.2430   35.5010 C.3   142  ILE142      0.0001
     87  N        -13.7110  -30.2880   27.7620 N.3   144  ARG144     -0.1245
     88  CA       -12.4030  -29.6730   27.9930 C.3   144  ARG144      0.1563
     89  C        -11.4560  -29.8840   26.8180 C.2   144  ARG144      0.2260
     90  O        -11.6790  -30.7500   25.9810 O.2   144  ARG144     -0.2867
     91  CB       -11.7830  -30.2330   29.2740 C.3   144  ARG144      0.0307
     92  CG       -11.6840  -31.7640   29.3130 C.3   144  ARG144      0.0489
     93  CD       -11.5320  -32.2420   30.7530 C.3   144  ARG144      0.2205
     94  NE       -11.2510  -33.6730   30.8590 N.pl3 144  ARG144     -0.0865
     95  CZ       -12.1800  -34.6270   30.8750 C.cat 144  ARG144      0.5346
     96  NH1      -13.4680  -34.3190   30.7670 N.pl3 144  ARG144      0.1354
     97  NH2      -11.8140  -35.8970   30.9870 N.pl3 144  ARG144      0.1354
     98  N         -5.3170  -26.7920   26.5050 N.3   147  GLU147     -0.1245
     99  CA        -4.5280  -25.9140   27.3670 C.3   147  GLU147      0.1567
    100  C         -3.1650  -25.6090   26.7390 C.2   147  GLU147      0.2260
    101  O         -2.2120  -25.2960   27.4340 O.2   147  GLU147     -0.2867
    102  CB        -4.3590  -26.4830   28.7890 C.3   147  GLU147      0.0388
    103  CG        -5.5480  -27.2940   29.3090 C.3   147  GLU147      0.1160
    104  CD        -6.8100  -26.4810   29.5420 C.2   147  GLU147      0.3649
    105  OE1       -6.8410  -25.2720   29.2250 O.co2 147  GLU147     -0.2457
    106  OE2       -7.7900  -27.0730   30.0460 O.co2 147  GLU147     -0.2457
    107  N        -12.6590  -38.4900   34.2110 N.3   166  ALA166     -0.1245
    108  CA       -11.2290  -38.2490   34.3740 C.3   166  ALA166      0.1562
    109  C        -10.4540  -39.5540   34.5440 C.2   166  ALA166      0.2260
    110  O         -9.2620  -39.5990   34.2730 O.2   166  ALA166     -0.2867
    111  CB       -10.9800  -37.3420   35.5700 C.3   166  ALA166      0.0290
    112  N         -6.3380  -36.4870   27.0630 N.3   197  GLU197     -0.1231
    113  CA        -6.6190  -35.1310   27.5230 C.3   197  GLU197      0.1699
    114  C         -5.4450  -34.2240   27.1730 C.2   197  GLU197      0.2592
    115  O         -4.3330  -34.6950   26.9480 O.2   197  GLU197     -0.2718
    116  CB        -6.7660  -35.0930   29.0460 C.3   197  GLU197      0.0402
    117  CG        -7.9050  -35.8970   29.6120 C.3   197  GLU197      0.1161
    118  CD        -8.0010  -35.7580   31.1170 C.2   197  GLU197      0.3649
    119  OE1       -6.9440  -35.6330   31.7890 O.co2 197  GLU197     -0.2457
    120  OE2       -9.1340  -35.7810   31.6340 O.co2 197  GLU197     -0.2457
    121  N         -5.6990  -32.9210   27.1480 N.am  198  GLU198     -0.1979
    122  CA        -4.6340  -31.9250   27.1650 C.3   198  GLU198      0.1602
    123  C         -3.5240  -32.1890   26.1600 C.2   198  GLU198      0.2287
    124  O         -2.3440  -32.2080   26.5080 O.2   198  GLU198     -0.2864
    125  CB        -4.0680  -31.7940   28.5830 C.3   198  GLU198      0.0415
    126  CG        -5.0780  -31.2290   29.5580 C.3   198  GLU198      0.1163
    127  CD        -4.6070  -31.2400   31.0000 C.2   198  GLU198      0.3649
    128  OE1       -3.6430  -31.9660   31.3210 O.co2 198  GLU198     -0.2457
    129  OE2       -5.2260  -30.5270   31.8240 O.co2 198  GLU198     -0.2457
    130  N         -2.1400  -36.5640   27.2970 N.3   212  ARG212     -0.1245
    131  CA        -2.1530  -37.0730   28.6660 C.3   212  ARG212      0.1563
    132  C         -3.2080  -38.1650   28.7940 C.2   212  ARG212      0.2260
    133  O         -4.3820  -37.9360   28.5230 O.2   212  ARG212     -0.2867
    134  CB        -2.4800  -35.9250   29.6310 C.3   212  ARG212      0.0307
    135  CG        -2.8230  -36.3220   31.0630 C.3   212  ARG212      0.0489
    136  CD        -3.2020  -35.0720   31.8620 C.3   212  ARG212      0.2205
    137  NE        -3.6910  -35.3560   33.2120 N.pl3 212  ARG212     -0.0865
    138  CZ        -3.9100  -34.4200   34.1360 C.cat 212  ARG212      0.5346
    139  NH1       -3.6480  -33.1460   33.8690 N.pl3 212  ARG212      0.1354
    140  NH2       -4.3620  -34.7560   35.3410 N.pl3 212  ARG212      0.1354
    141  N         -5.0340  -40.0540   31.5310 N.3   214  ASN214     -0.1240
    142  CA        -5.2150  -39.8170   32.9610 C.3   214  ASN214      0.1653
    143  C         -5.6940  -41.0520   33.7140 C.2   214  ASN214      0.2266
    144  O         -5.9600  -40.9870   34.9180 O.2   214  ASN214     -0.2867
    145  CB        -6.2250  -38.6850   33.1840 C.3   214  ASN214      0.1155
    146  CG        -6.0420  -37.9920   34.5230 C.2   214  ASN214      0.2627
    147  OD1       -4.9710  -37.4590   34.8120 O.2   214  ASN214     -0.2716
    148  ND2       -7.0920  -37.9820   35.3430 N.am  214  ASN214     -0.0877
    149  N          5.0590  -33.0540   40.6750 N.3   289  ARG289     -0.1245
    150  CA         5.3170  -32.0250   39.6870 C.3   289  ARG289      0.1563
    151  C          6.4750  -31.1370   40.1310 C.2   289  ARG289      0.2260
    152  O          6.3100  -29.9390   40.3690 O.2   289  ARG289     -0.2867
    153  CB         4.0490  -31.2090   39.4420 C.3   289  ARG289      0.0307
    154  CG         2.9310  -32.0720   38.8650 C.3   289  ARG289      0.0489
    155  CD         1.5920  -31.3590   38.8580 C.3   289  ARG289      0.2205
    156  NE         0.5970  -32.1830   38.1830 N.pl3 289  ARG289     -0.0865
    157  CZ        -0.6150  -31.7610   37.8450 C.cat 289  ARG289      0.5346
    158  NH1       -0.9920  -30.5240   38.1370 N.pl3 289  ARG289      0.1354
    159  NH2       -1.4430  -32.5780   37.2200 N.pl3 289  ARG289      0.1354
    160  N          2.5370  -28.0370   34.2760 N.3   324  TYR324     -0.1241
    161  CA         2.2200  -28.3240   32.8840 C.3   324  TYR324      0.1605
    162  C          3.3630  -27.9280   31.9550 C.2   324  TYR324      0.2264
    163  O          4.1660  -27.0480   32.2770 O.2   324  TYR324     -0.2867
    164  CB         0.9530  -27.5630   32.4840 C.3   324  TYR324      0.0534
    165  CG        -0.3260  -28.2730   32.8500 C.ar  324  TYR324     -0.0201
    166  CD1       -0.3350  -29.2840   33.8040 C.ar  324  TYR324     -0.0009
    167  CD2       -1.5280  -27.9350   32.2390 C.ar  324  TYR324     -0.0009
    168  CE1       -1.5010  -29.9520   34.1390 C.ar  324  TYR324      0.0417
    169  CE2       -2.7070  -28.5990   32.5700 C.ar  324  TYR324      0.0417
    170  CZ        -2.6820  -29.6010   33.5200 C.ar  324  TYR324      0.1957
    171  OH        -3.8440  -30.2640   33.8330 O.3   324  TYR324     -0.2866
@<TRIPOS>BOND
     1    90    89    2
     2   123   124    2
     3   123   122    1
     4    98    99    1
     5   100    99    1
     6   100   101    2
     7    89    88    1
     8   115   114    2
     9   112   113    1
    10   121   122    1
    11   121   114   am
    12   122   125    1
    13   114   113    1
    14   130   131    1
    15    99   102    1
    16   113   116    1
    17    76    75    2
    18    87    88    1
    19    88    91    1
    20    75    74    1
    21   133   132    2
    22   125   126    1
    23    78    77    1
    24   131   132    1
    25   131   134    1
    26   102   103    1
    27   116   117    1
    28   105   104   ar
    29    91    92    1
    30   103   104    1
    31    92    93    1
    32    77    74    1
    33   104   106   ar
    34    74    73    1
    35   126   127    1
    36   117   118    1
    37   134   135    1
    38    82    81    2
    39    28    26    1
    40    73    61   am
    41    81    80    1
    42    15    14    2
    43    93    94    1
    44    96    95    1
    45    94    95    2
    46    95    97    1
    47   127   128   ar
    48   127   129   ar
    49   135   136    1
    50   118   120   ar
    51   118   119   ar
    52    26    27    1
    53    26    25    1
    54    59    60    1
    55    14    13    1
    56    71    72   ar
    57    71    69   ar
    58   141   142    1
    59    72    70   ar
    60    61    62    2
    61    61    60    1
    62    21    22    1
    63   136   137    1
    64    80    79    1
    65    80    83    1
    66   162   163    2
    67   162   161    1
    68    69    66   ar
    69   167   169   ar
    70   167   165   ar
    71    70    68   ar
    72    16    13    1
    73    16    17    1
    74    22    25    1
    75    22    23    1
    76    60    63    1
    77   164   165    1
    78   164   161    1
    79    13    12    1
    80   169   170   ar
    81    66    68   ar
    82    66    64   ar
    83    51    50    2
    84    68    67   ar
    85   165   166   ar
    86   161   160    1
    87   142   145    1
    88   142   143    1
    89    83    85    1
    90    83    84    1
    91   145   146    1
    92   137   138    2
    93    17    18    1
    94    50    49    1
    95    64    63    1
    96    64    65   ar
    97    67    65   ar
    98     4     3    2
    99   170   171    1
   100   170   168   ar
   101    23    24    2
   102   143   144    2
   103   166   168   ar
   104   139   138    1
   105    12     3   am
   106   138   140    1
   107   107   108    1
   108     3     2    1
   109   110   109    2
   110   108   109    1
   111   108   111    1
   112    84    86    1
   113   146   147    2
   114   146   148   am
   115    18    19   ar
   116    18    20   ar
   117    49    52    1
   118    49    48    1
   119    52    53    1
   120    43    42    1
   121    43    44    1
   122     2     1    1
   123     2     5    1
   124    42    41    1
   125    58    56    1
   126    55    56    2
   127    55    54    1
   128    56    57    1
   129    11     9    1
   130    44    45    2
   131    53    54    1
   132    41    38    1
   133     5     6    1
   134    32    31    2
   135    47    45    1
   136    45    46    1
   137     9     8    2
   138     9    10    1
   139   159   157    1
   140    38    39    1
   141    38    37    1
   142     8     7    1
   143    31    37   am
   144    31    30    1
   145   157   158    1
   146   157   156    2
   147     6     7    1
   148    39    40    2
   149    35    34   ar
   150    33    34    1
   151    33    30    1
   152   156   155    1
   153    34    36   ar
   154    30    29    1
   155   155   154    1
   156   154   153    1
   157   153   150    1
   158   150   151    1
   159   150   149    1
   160   151   152    2
