@<TRIPOS>MOLECULE
tmp/4hzxA00.pdb
 90 84 0 0 0
SMALL
GASTEIGER

@<TRIPOS>ATOM
      1  N         26.6310   -1.7290   -6.5640 N.3     7  PRO7       -0.2116
      2  CA        27.8820   -2.1610   -7.2020 C.3     7  PRO7        0.1372
      3  C         28.0940   -3.6730   -7.1290 C.2     7  PRO7        0.2244
      4  O         29.0690   -4.1180   -6.5240 O.2     7  PRO7       -0.2868
      5  CB        28.9530   -1.4540   -6.3660 C.3     7  PRO7        0.0268
      6  CG        28.3290   -1.2970   -5.0240 C.3     7  PRO7        0.0207
      7  CD        26.8800   -1.0040   -5.3050 C.3     7  PRO7        0.0892
      8  N         25.7500    3.5890  -10.1880 N.3   153  ILE153     -0.1231
      9  CA        26.0200    2.9080   -8.9320 C.3   153  ILE153      0.1692
     10  C         25.6240    3.7830   -7.7470 C.2   153  ILE153      0.2592
     11  O         26.0930    4.9100   -7.6090 O.2   153  ILE153     -0.2718
     12  CB        27.5060    2.5150   -8.8040 C.3   153  ILE153      0.0266
     13  CG1       27.9420    1.6640   -9.9980 C.3   153  ILE153      0.0019
     14  CG2       27.7480    1.7610   -7.5020 C.3   153  ILE153      0.0020
     15  CD1       29.3750    1.1700   -9.8970 C.3   153  ILE153      0.0001
     16  N         24.7470    3.2550   -6.9020 N.am  154  ASP154     -0.1974
     17  CA        24.2950    3.9660   -5.7120 C.3   154  ASP154      0.1709
     18  C         23.7500    5.3610   -6.0160 C.2   154  ASP154      0.2293
     19  O         23.8630    6.2660   -5.1930 O.2   154  ASP154     -0.2864
     20  CB        25.4200    4.0380   -4.6750 C.3   154  ASP154      0.1436
     21  CG        25.7860    2.6740   -4.1240 C.2   154  ASP154      0.3671
     22  OD1       24.8710    1.8360   -3.9770 O.co2 154  ASP154     -0.2456
     23  OD2       26.9810    2.4330   -3.8460 O.co2 154  ASP154     -0.2456
     24  N         24.5800    7.3750   -8.6270 N.3   156  THR156     -0.1218
     25  CA        25.4520    8.1690   -9.4840 C.3   156  THR156      0.1862
     26  C         25.7520    7.4390  -10.7860 C.2   156  THR156      0.2287
     27  O         26.3430    6.3560  -10.7790 O.2   156  THR156     -0.2866
     28  CB        26.7840    8.4890   -8.7830 C.3   156  THR156      0.1770
     29  OG1       26.5290    9.1960   -7.5650 O.3   156  THR156     -0.2211
     30  CG2       27.6680    9.3370   -9.6840 C.3   156  THR156      0.0375
     31  N         24.0590   12.6420  -11.0790 N.3   178  ARG178     -0.1245
     32  CA        23.2000   12.0880  -10.0420 C.3   178  ARG178      0.1563
     33  C         21.8140   12.7110  -10.1110 C.2   178  ARG178      0.2260
     34  O         21.6600   13.9170   -9.9330 O.2   178  ARG178     -0.2867
     35  CB        23.8120   12.3200   -8.6640 C.3   178  ARG178      0.0307
     36  CG        23.0020   11.7370   -7.5200 C.3   178  ARG178      0.0489
     37  CD        23.7580   11.8470   -6.2090 C.3   178  ARG178      0.2205
     38  NE        23.0310   11.2070   -5.1200 N.pl3 178  ARG178     -0.0865
     39  CZ        23.1300    9.9180   -4.8210 C.cat 178  ARG178      0.5346
     40  NH1       23.9330    9.1380   -5.5300 N.pl3 178  ARG178      0.1354
     41  NH2       22.4300    9.4070   -3.8160 N.pl3 178  ARG178      0.1354
     42  N         27.4890   16.2180  -11.5710 N.3   183  ILE183     -0.1245
     43  CA        28.2130   16.4190  -10.3230 C.3   183  ILE183      0.1561
     44  C         29.6350   16.8830  -10.6040 C.2   183  ILE183      0.2260
     45  O         30.1160   17.8370  -10.0000 O.2   183  ILE183     -0.2867
     46  CB        28.2680   15.1250   -9.4910 C.3   183  ILE183      0.0252
     47  CG1       26.8540   14.5900   -9.2580 C.3   183  ILE183      0.0019
     48  CG2       28.9850   15.3700   -8.1640 C.3   183  ILE183      0.0019
     49  CD1       25.9550   15.5580   -8.5230 C.3   183  ILE183      0.0001
     50  N         31.4740   -4.7930   -9.7080 N.3   205  ILE205     -0.1231
     51  CA        31.8100   -3.9270   -8.5750 C.3   205  ILE205      0.1692
     52  C         31.9730   -2.4820   -9.0480 C.2   205  ILE205      0.2592
     53  O         31.1690   -1.6130   -8.7090 O.2   205  ILE205     -0.2718
     54  CB        33.0850   -4.3480   -7.8150 C.3   205  ILE205      0.0266
     55  CG1       33.0440   -5.8290   -7.4310 C.3   205  ILE205      0.0019
     56  CG2       33.2410   -3.4860   -6.5740 C.3   205  ILE205      0.0020
     57  CD1       31.9970   -6.1670   -6.3870 C.3   205  ILE205      0.0001
     58  N         33.0240   -2.2320   -9.8260 N.am  206  ASP206     -0.1974
     59  CA        33.2320   -0.9250  -10.4380 C.3   206  ASP206      0.1709
     60  C         32.7300   -0.9570  -11.8770 C.2   206  ASP206      0.2293
     61  O         32.4340   -2.0230  -12.4160 O.2   206  ASP206     -0.2864
     62  CB        34.7170   -0.5430  -10.4240 C.3   206  ASP206      0.1436
     63  CG        35.2790   -0.4170   -9.0170 C.2   206  ASP206      0.3671
     64  OD1       34.6150    0.1930   -8.1490 O.co2 206  ASP206     -0.2456
     65  OD2       36.3910   -0.9310   -8.7820 O.co2 206  ASP206     -0.2456
     66  N         34.7830    4.1650  -10.5760 N.3   226  ASN226     -0.1225
     67  CA        33.7660    4.0800   -9.5320 C.3   226  ASN226      0.1785
     68  C         32.8730    5.3240   -9.5270 C.2   226  ASN226      0.2597
     69  O         32.9120    6.1230  -10.4610 O.2   226  ASN226     -0.2718
     70  CB        34.3720    3.7780   -8.1510 C.3   226  ASN226      0.1169
     71  CG        35.1860    4.9320   -7.5910 C.2   226  ASN226      0.2627
     72  OD1       35.7990    4.8130   -6.5280 O.2   226  ASN226     -0.2716
     73  ND2       35.1920    6.0540   -8.2940 N.am  226  ASN226     -0.0877
     74  N         32.0670    5.4840   -8.4850 N.am  227  ASN227     -0.1960
     75  CA        31.1060    6.5850   -8.4300 C.3   227  ASN227      0.1819
     76  C         31.7350    7.9480   -8.1350 C.2   227  ASN227      0.2621
     77  O         31.0220    8.9340   -7.9510 O.2   227  ASN227     -0.2715
     78  CB        30.0330    6.2990   -7.3850 C.3   227  ASN227      0.1195
     79  CG        30.5600    6.4160   -5.9740 C.2   227  ASN227      0.2630
     80  OD1       31.5720    5.8080   -5.6220 O.2   227  ASN227     -0.2716
     81  ND2       29.8940    7.2270   -5.1640 N.am  227  ASN227     -0.0877
     82  N         33.0640    8.0010   -8.0910 N.am  228  GLU228     -0.1977
     83  CA        33.7700    9.2250   -7.7180 C.3   228  GLU228      0.1602
     84  C         34.8840    9.6250   -8.6940 C.2   228  GLU228      0.2287
     85  O         35.0980   10.8120   -8.9350 O.2   228  GLU228     -0.2864
     86  CB        34.3390    9.1030   -6.2950 C.3   228  GLU228      0.0415
     87  CG        33.2870    9.1540   -5.1940 C.3   228  GLU228      0.1163
     88  CD        33.8530    8.8630   -3.8110 C.2   228  GLU228      0.3649
     89  OE1       33.1320    9.0760   -2.8130 O.co2 228  GLU228     -0.2457
     90  OE2       35.0130    8.4120   -3.7180 O.co2 228  GLU228     -0.2457
@<TRIPOS>BOND
     1    61    60    2
     2    60    59    1
     3    42    43    1
     4    31    32    1
     5    26    27    2
     6    26    25    1
     7    44    43    1
     8    44    45    2
     9    66    67    1
    10    69    68    2
    11    59    62    1
    12    59    58    1
    13    62    63    1
    14    43    46    1
    15     8     9    1
    16    33    32    1
    17    33    34    2
    18    32    35    1
    19    13    15    1
    20    13    12    1
    21    58    52   am
    22    50    51    1
    23    30    28    1
    24    67    68    1
    25    67    70    1
    26    68    74   am
    27    46    47    1
    28    46    48    1
    29    25    28    1
    30    25    24    1
    31    47    49    1
    32    52    53    2
    33    52    51    1
    34    63    65   ar
    35    63    64   ar
    36    85    84    2
    37     9    12    1
    38     9    10    1
    39    12    14    1
    40    28    29    1
    41    84    83    1
    42    35    36    1
    43    51    54    1
    44    74    75    1
    45    75    76    1
    46    75    78    1
    47    73    71   am
    48    70    71    1
    49    76    82   am
    50    76    77    2
    51    82    83    1
    52    54    55    1
    53    54    56    1
    54    10    11    2
    55    10    16   am
    56    83    86    1
    57    71    72    2
    58    36    37    1
    59    55    57    1
    60    78    79    1
    61     2     3    1
    62     2     1    1
    63     2     5    1
    64     3     4    2
    65    16    17    1
    66     1     7    1
    67     5     6    1
    68    86    87    1
    69    37    38    1
    70    18    17    1
    71    18    19    2
    72    79    80    2
    73    79    81   am
    74    17    20    1
    75    40    39    1
    76     7     6    1
    77    87    88    1
    78    38    39    2
    79    39    41    1
    80    20    21    1
    81    21    22   ar
    82    21    23   ar
    83    88    90   ar
    84    88    89   ar
