@<TRIPOS>MOLECULE
tmp/4hzxA01.pdb
 163 153 0 0 0
SMALL
GASTEIGER

@<TRIPOS>ATOM
      1  N         20.0180    3.3450  -36.7550 N.3    37  ARG37      -0.1231
      2  CA        21.3750    2.8250  -36.6010 C.3    37  ARG37       0.1694
      3  C         21.8450    3.0970  -35.1760 C.2    37  ARG37       0.2591
      4  O         21.1080    3.6780  -34.3790 O.2    37  ARG37      -0.2718
      5  CB        22.3600    3.3960  -37.6310 C.3    37  ARG37       0.0321
      6  CG        22.7170    2.4190  -38.7620 C.3    37  ARG37       0.0489
      7  CD        24.1620    2.5930  -39.2500 C.3    37  ARG37       0.2205
      8  NE        25.1220    2.0530  -38.2910 N.pl3  37  ARG37      -0.0865
      9  CZ        26.4060    2.3950  -38.2260 C.cat  37  ARG37       0.5346
     10  NH1       26.9110    3.2860  -39.0720 N.pl3  37  ARG37       0.1354
     11  NH2       27.1880    1.8460  -37.3060 N.pl3  37  ARG37       0.1354
     12  N         23.0650    2.6720  -34.8600 N.am   38  GLU38      -0.1979
     13  CA        23.5980    2.7720  -33.5030 C.3    38  GLU38       0.1602
     14  C         22.5910    2.3030  -32.4550 C.2    38  GLU38       0.2287
     15  O         22.2420    3.0570  -31.5480 O.2    38  GLU38      -0.2864
     16  CB        24.0410    4.2050  -33.1880 C.3    38  GLU38       0.0415
     17  CG        25.1500    4.7330  -34.0760 C.3    38  GLU38       0.1163
     18  CD        24.6450    5.2280  -35.4160 C.2    38  GLU38       0.3649
     19  OE1       23.4570    5.6060  -35.5070 O.co2  38  GLU38      -0.2457
     20  OE2       25.4380    5.2380  -36.3820 O.co2  38  GLU38      -0.2457
     21  N         25.4700   10.5210  -41.0350 N.3    70  ASP70      -0.1225
     22  CA        25.5310   10.2780  -39.5940 C.3    70  ASP70       0.1805
     23  C         24.6950   11.2380  -38.7530 C.2    70  ASP70       0.2597
     24  O         23.9760   10.8150  -37.8520 O.2    70  ASP70      -0.2718
     25  CB        26.9830   10.3010  -39.1080 C.3    70  ASP70       0.1424
     26  CG        27.7960    9.1360  -39.6400 C.2    70  ASP70       0.3668
     27  OD1       27.6130    8.0060  -39.1400 O.co2  70  ASP70      -0.2456
     28  OD2       28.6210    9.3520  -40.5510 O.co2  70  ASP70      -0.2456
     29  N         24.8010   12.5320  -39.0300 N.am   71  ARG71      -0.1979
     30  CA        24.1730   13.5230  -38.1650 C.3    71  ARG71       0.1597
     31  C         23.2160   14.4440  -38.9200 C.2    71  ARG71       0.2287
     32  O         23.6170   15.1620  -39.8320 O.2    71  ARG71      -0.2864
     33  CB        25.2460   14.3260  -37.4210 C.3    71  ARG71       0.0334
     34  CG        26.2680   13.4450  -36.6980 C.3    71  ARG71       0.0492
     35  CD        27.4430   14.2400  -36.1350 C.3    71  ARG71       0.2205
     36  NE        28.2210   14.8920  -37.1880 N.pl3  71  ARG71      -0.0865
     37  CZ        29.0670   14.2580  -37.9920 C.cat  71  ARG71       0.5346
     38  NH1       29.7320   14.9300  -38.9250 N.pl3  71  ARG71       0.1354
     39  NH2       29.2460   12.9480  -37.8670 N.pl3  71  ARG71       0.1354
     40  N         17.1520   13.0530  -36.5080 N.3    75  ARG75      -0.1245
     41  CA        17.4420   11.8530  -35.7460 C.3    75  ARG75       0.1563
     42  C         17.0460   12.0520  -34.2940 C.2    75  ARG75       0.2260
     43  O         17.3270   13.0970  -33.6920 O.2    75  ARG75      -0.2867
     44  CB        18.9260   11.4960  -35.8360 C.3    75  ARG75       0.0307
     45  CG        19.4550   11.4260  -37.2550 C.3    75  ARG75       0.0489
     46  CD        20.7290   10.6090  -37.3170 C.3    75  ARG75       0.2205
     47  NE        20.4690    9.1880  -37.1090 N.pl3  75  ARG75      -0.0865
     48  CZ        21.4140    8.2530  -37.1120 C.cat  75  ARG75       0.5346
     49  NH1       22.6780    8.6010  -37.3090 N.pl3  75  ARG75       0.1354
     50  NH2       21.1000    6.9750  -36.9180 N.pl3  75  ARG75       0.1354
     51  N         21.7970   12.6870  -32.3900 N.3    98  TRP98      -0.1227
     52  CA        22.5840   11.8750  -33.3190 C.3    98  TRP98       0.1737
     53  C         23.7280   11.1410  -32.6080 C.2    98  TRP98       0.2596
     54  O         24.6360   10.6120  -33.2440 O.2    98  TRP98      -0.2718
     55  CB        23.0860   12.6630  -34.5410 C.3    98  TRP98       0.0564
     56  CG        23.6000   14.0710  -34.3030 C.ar   98  TRP98       0.0003
     57  CD1       23.0160   15.2330  -34.7240 C.ar   98  TRP98       0.0946
     58  CD2       24.8160   14.4540  -33.6410 C.ar   98  TRP98       0.0152
     59  NE1       23.7820   16.3120  -34.3570 N.ar   98  TRP98      -0.2442
     60  CE2       24.8920   15.8630  -33.6900 C.ar   98  TRP98       0.0810
     61  CE3       25.8430   13.7460  -33.0080 C.ar   98  TRP98       0.0012
     62  CZ2       25.9510   16.5760  -33.1250 C.ar   98  TRP98       0.0191
     63  CZ3       26.8970   14.4590  -32.4480 C.ar   98  TRP98       0.0001
     64  CH2       26.9380   15.8590  -32.5100 C.ar   98  TRP98       0.0015
     65  N         23.6560   11.1090  -31.2830 N.am   99  SER99      -0.1952
     66  CA        24.5670   10.3270  -30.4580 C.3    99  SER99       0.1924
     67  C         23.9280   10.2310  -29.0840 C.2    99  SER99       0.2314
     68  O         23.3690   11.2110  -28.5950 O.2    99  SER99      -0.2863
     69  CB        25.9310   11.0060  -30.3570 C.3    99  SER99       0.2116
     70  OG        26.8490   10.2010  -29.6350 O.3    99  SER99      -0.2180
     71  N         32.0550   17.9370  -32.8930 N.3   142  ILE142     -0.1245
     72  CA        31.1920   16.7640  -32.8260 C.3   142  ILE142      0.1561
     73  C         31.2040   16.1200  -31.4390 C.2   142  ILE142      0.2260
     74  O         31.6170   14.9680  -31.2760 O.2   142  ILE142     -0.2867
     75  CB        31.5690   15.7110  -33.8960 C.3   142  ILE142      0.0252
     76  CG1       31.7190   16.3620  -35.2730 C.3   142  ILE142      0.0019
     77  CG2       30.5270   14.6060  -33.9510 C.3   142  ILE142      0.0019
     78  CD1       32.2230   15.4090  -36.3500 C.3   142  ILE142      0.0001
     79  N         30.1380   13.9500  -28.6640 N.3   144  ARG144     -0.1245
     80  CA        29.5320   12.6400  -28.8930 C.3   144  ARG144      0.1563
     81  C         29.7440   11.6930  -27.7160 C.2   144  ARG144      0.2260
     82  O         30.5580   11.9560  -26.8330 O.2   144  ARG144     -0.2867
     83  CB        30.0850   12.0210  -30.1810 C.3   144  ARG144      0.0307
     84  CG        31.6000   11.9130  -30.2100 C.3   144  ARG144      0.0489
     85  CD        32.1050   11.6560  -31.6190 C.3   144  ARG144      0.2205
     86  NE        33.5540   11.4910  -31.6600 N.pl3 144  ARG144     -0.0865
     87  CZ        34.4150   12.4950  -31.7880 C.cat 144  ARG144      0.5346
     88  NH1       33.9710   13.7410  -31.8820 N.pl3 144  ARG144      0.1354
     89  NH2       35.7200   12.2540  -31.8210 N.pl3 144  ARG144      0.1354
     90  N         26.8390    5.4080  -27.4920 N.3   147  GLU147     -0.1245
     91  CA        25.9830    4.6090  -28.3750 C.3   147  GLU147      0.1567
     92  C         25.6410    3.2600  -27.7350 C.2   147  GLU147      0.2260
     93  O         25.3070    2.2980  -28.4280 O.2   147  GLU147     -0.2867
     94  CB        26.6040    4.3950  -29.7650 C.3   147  GLU147      0.0388
     95  CG        27.3440    5.5970  -30.3560 C.3   147  GLU147      0.1160
     96  CD        26.4570    6.8070  -30.6150 C.2   147  GLU147      0.3649
     97  OE1       25.2540    6.7660  -30.2800 O.co2 147  GLU147     -0.2457
     98  OE2       26.9760    7.8070  -31.1550 O.co2 147  GLU147     -0.2457
     99  N         38.2630   12.6970  -35.0470 N.3   166  ALA166     -0.1245
    100  CA        37.9390   11.2760  -35.0500 C.3   166  ALA166      0.1562
    101  C         39.1570   10.4160  -35.3890 C.2   166  ALA166      0.2260
    102  O         39.1810    9.2180  -35.0990 O.2   166  ALA166     -0.2867
    103  CB        36.8060   11.0010  -36.0260 C.3   166  ALA166      0.0290
    104  N         36.5770    6.3120  -28.1880 N.3   197  GLU197     -0.1231
    105  CA        35.2550    6.5170  -28.7680 C.3   197  GLU197      0.1699
    106  C         34.3060    5.4070  -28.3200 C.2   197  GLU197      0.2592
    107  O         34.7440    4.3090  -27.9730 O.2   197  GLU197     -0.2718
    108  CB        35.3410    6.4920  -30.2950 C.3   197  GLU197      0.0402
    109  CG        36.3940    7.4160  -30.8870 C.3   197  GLU197      0.1161
    110  CD        35.8660    8.8170  -31.1510 C.2   197  GLU197      0.3649
    111  OE1       36.6510    9.6790  -31.5970 O.co2 197  GLU197     -0.2457
    112  OE2       34.6660    9.0530  -30.9210 O.co2 197  GLU197     -0.2457
    113  N         33.0120    5.7160  -28.3170 N.am  198  GLU198     -0.1979
    114  CA        31.9510    4.7140  -28.2280 C.3   198  GLU198      0.1602
    115  C         32.1960    3.6090  -27.1990 C.2   198  GLU198      0.2287
    116  O         32.2080    2.4220  -27.5320 O.2   198  GLU198     -0.2864
    117  CB        31.7020    4.1170  -29.6150 C.3   198  GLU198      0.0415
    118  CG        31.2210    5.1560  -30.6340 C.3   198  GLU198      0.1163
    119  CD        31.3550    4.6820  -32.0680 C.2   198  GLU198      0.3649
    120  OE1       32.1740    3.7710  -32.3120 O.co2 198  GLU198     -0.2457
    121  OE2       30.6430    5.2170  -32.9480 O.co2 198  GLU198     -0.2457
    122  N         36.6340    2.1620  -28.2450 N.3   212  ARG212     -0.1245
    123  CA        37.1420    2.1500  -29.6100 C.3   212  ARG212      0.1563
    124  C         38.1980    3.2360  -29.7980 C.2   212  ARG212      0.2260
    125  O         37.9250    4.4210  -29.6190 O.2   212  ARG212     -0.2867
    126  CB        35.9870    2.3570  -30.5990 C.3   212  ARG212      0.0307
    127  CG        36.3860    2.7620  -32.0110 C.3   212  ARG212      0.0489
    128  CD        35.1450    2.9320  -32.8680 C.3   212  ARG212      0.2205
    129  NE        35.4070    3.6030  -34.1390 N.pl3 212  ARG212     -0.0865
    130  CZ        34.4810    3.8120  -35.0730 C.cat 212  ARG212      0.5346
    131  NH1       33.2360    3.3980  -34.8760 N.pl3 212  ARG212      0.1354
    132  NH2       34.7940    4.4320  -36.2050 N.pl3 212  ARG212      0.1354
    133  N         40.0820    5.0700  -32.5060 N.3   214  ASN214     -0.1240
    134  CA        39.8520    5.2340  -33.9390 C.3   214  ASN214      0.1653
    135  C         41.0840    5.7360  -34.6850 C.2   214  ASN214      0.2266
    136  O         41.0000    6.1160  -35.8520 O.2   214  ASN214     -0.2867
    137  CB        38.6740    6.1820  -34.1800 C.3   214  ASN214      0.1155
    138  CG        37.9830    5.9260  -35.5060 C.2   214  ASN214      0.2627
    139  OD1       37.6770    4.7820  -35.8430 O.2   214  ASN214     -0.2716
    140  ND2       37.7500    6.9860  -36.2730 N.am  214  ASN214     -0.0877
    141  N         33.2090   -5.2000  -41.8200 N.3   289  ARG289     -0.1245
    142  CA        32.1800   -5.3870  -40.8070 C.3   289  ARG289      0.1563
    143  C         31.2480   -6.5420  -41.1660 C.2   289  ARG289      0.2260
    144  O         30.0340   -6.3660  -41.2950 O.2   289  ARG289     -0.2867
    145  CB        31.4000   -4.0910  -40.5920 C.3   289  ARG289      0.0307
    146  CG        32.2510   -2.9940  -39.9910 C.3   289  ARG289      0.0489
    147  CD        31.5130   -1.6790  -39.8890 C.3   289  ARG289      0.2205
    148  NE        32.3300   -0.6850  -39.2010 N.pl3 289  ARG289     -0.0865
    149  CZ        31.9360    0.5530  -38.9280 C.cat 289  ARG289      0.5346
    150  NH1       30.7300    0.9680  -39.2960 N.pl3 289  ARG289      0.1354
    151  NH2       32.7520    1.3800  -38.2890 N.pl3 289  ARG289      0.1354
    152  N         28.0990   -2.5490  -35.2970 N.3   324  TYR324     -0.1241
    153  CA        28.3930   -2.2390  -33.9000 C.3   324  TYR324      0.1605
    154  C         28.0080   -3.3750  -32.9640 C.2   324  TYR324      0.2264
    155  O         27.1810   -4.2200  -33.2970 O.2   324  TYR324     -0.2867
    156  CB        27.6610   -0.9720  -33.4530 C.3   324  TYR324      0.0534
    157  CG        28.3350    0.3190  -33.8590 C.ar  324  TYR324     -0.0201
    158  CD1       29.3810    0.3230  -34.7720 C.ar  324  TYR324     -0.0009
    159  CD2       27.9300    1.5330  -33.3190 C.ar  324  TYR324     -0.0009
    160  CE1       29.9970    1.4940  -35.1450 C.ar  324  TYR324      0.0417
    161  CE2       28.5410    2.7130  -33.6850 C.ar  324  TYR324      0.0417
    162  CZ        29.5750    2.6890  -34.5980 C.ar  324  TYR324      0.1957
    163  OH        30.1940    3.8610  -34.9650 O.3   324  TYR324     -0.2866
@<TRIPOS>BOND
     1   141   142    1
     2   144   143    2
     3   143   142    1
     4    21    22    1
     5   142   145    1
     6   145   146    1
     7    28    26   ar
     8   146   147    1
     9   147   148    1
    10    32    31    2
    11    26    27   ar
    12    26    25    1
    13    22    25    1
    14    22    23    1
    15   150   149    1
    16     7     6    1
    17     7     8    1
    18   148   149    2
    19    10     9    1
    20    29    23   am
    21    29    30    1
    22   149   151    1
    23    38    37    1
    24    31    30    1
    25     6     5    1
    26    23    24    2
    27     8     9    2
    28     9    11    1
    29    30    33    1
    30    37    39    1
    31    37    36    2
    32     5     2    1
    33    33    34    1
    34    46    45    1
    35    46    47    1
    36    49    48    1
    37    45    44    1
    38    36    35    1
    39    48    47    2
    40    48    50    1
    41     1     2    1
    42    34    35    1
    43     2     3    1
    44    40    41    1
    45    20    18   ar
    46    78    76    1
    47   140   138   am
    48   132   130    1
    49   103   100    1
    50   136   135    2
    51   139   138    2
    52    44    41    1
    53    41    42    1
    54    19    18   ar
    55   138   137    1
    56    18    17    1
    57   101   102    2
    58   101   100    1
    59   152   153    1
    60    76    75    1
    61     3    12   am
    62     3     4    2
    63   160   158   ar
    64   160   162   ar
    65   130   131    1
    66   130   129    2
    67   100    99    1
    68   163   162    1
    69    12    13    1
    70   158   157   ar
    71    57    59   ar
    72    57    56   ar
    73   135   134    1
    74   162   161   ar
    75    55    56    1
    76    55    52    1
    77    59    60   ar
    78    56    58   ar
    79    42    43    2
    80   137   134    1
    81   129   128    1
    82    17    16    1
    83    77    75    1
    84   134   133    1
    85   153   156    1
    86   153   154    1
    87    75    72    1
    88   157   156    1
    89   157   159   ar
    90    60    58   ar
    91    60    62   ar
    92   161   159   ar
    93    58    61   ar
    94    13    16    1
    95    13    14    1
    96    52    53    1
    97    52    51    1
    98   155   154    2
    99    54    53    2
   100    62    64   ar
   101    61    63   ar
   102   121   119   ar
   103    71    72    1
   104   128   127    1
   105    72    73    1
   106    53    65   am
   107    64    63   ar
   108    14    15    2
   109   120   119   ar
   110   119   118    1
   111   127   126    1
   112    88    87    1
   113    89    87    1
   114    87    86    2
   115    86    85    1
   116    85    84    1
   117   111   110   ar
   118    73    74    2
   119    65    66    1
   120    98    96   ar
   121   110   112   ar
   122   110   109    1
   123   109   108    1
   124   118   117    1
   125    96    95    1
   126    96    97   ar
   127   126   123    1
   128    66    69    1
   129    66    67    1
   130    69    70    1
   131    95    94    1
   132   108   105    1
   133    84    83    1
   134    83    80    1
   135   124   125    2
   136   124   123    1
   137    94    91    1
   138   117   114    1
   139   123   122    1
   140    67    68    2
   141    80    79    1
   142    80    81    1
   143   105   106    1
   144   105   104    1
   145    93    92    2
   146    91    92    1
   147    91    90    1
   148   106   113   am
   149   106   107    2
   150   113   114    1
   151   114   115    1
   152    81    82    2
   153   116   115    2
