@<TRIPOS>MOLECULE
tmp/4hzyA00.pdb
 90 84 0 0 0
SMALL
GASTEIGER

@<TRIPOS>ATOM
      1  N         26.6380   -1.6570   -6.2750 N.3     7  PRO7       -0.2116
      2  CA        27.8840   -2.1480   -6.9010 C.3     7  PRO7        0.1372
      3  C         28.1440   -3.6660   -6.8410 C.2     7  PRO7        0.2244
      4  O         29.1030   -4.0920   -6.1980 O.2     7  PRO7       -0.2868
      5  CB        28.9750   -1.4240   -6.1030 C.3     7  PRO7        0.0268
      6  CG        28.3580   -1.1930   -4.7650 C.3     7  PRO7        0.0207
      7  CD        26.9070   -0.9020   -5.0340 C.3     7  PRO7        0.0892
      8  N         25.7620    3.6630  -10.0420 N.3   153  ILE153     -0.1231
      9  CA        26.0440    2.9800   -8.7850 C.3   153  ILE153      0.1692
     10  C         25.6550    3.8650   -7.6100 C.2   153  ILE153      0.2592
     11  O         26.1220    5.0060   -7.4900 O.2   153  ILE153     -0.2718
     12  CB        27.5330    2.5920   -8.6490 C.3   153  ILE153      0.0266
     13  CG1       27.9770    1.7280   -9.8330 C.3   153  ILE153      0.0019
     14  CG2       27.7760    1.8610   -7.3170 C.3   153  ILE153      0.0020
     15  CD1       29.4310    1.2950   -9.7440 C.3   153  ILE153      0.0001
     16  N         24.7740    3.3410   -6.7650 N.am  154  ASP154     -0.1974
     17  CA        24.3360    4.0420   -5.5630 C.3   154  ASP154      0.1709
     18  C         23.8340    5.4440   -5.8910 C.2   154  ASP154      0.2293
     19  O         24.0440    6.3950   -5.1310 O.2   154  ASP154     -0.2864
     20  CB        25.4670    4.0940   -4.5380 C.3   154  ASP154      0.1436
     21  CG        25.8100    2.7260   -3.9800 C.2   154  ASP154      0.3671
     22  OD1       24.8830    1.9060   -3.7990 O.co2 154  ASP154     -0.2456
     23  OD2       27.0050    2.4640   -3.7190 O.co2 154  ASP154     -0.2456
     24  N         24.6320    7.4130   -8.4940 N.3   156  THR156     -0.1218
     25  CA        25.4850    8.2450   -9.3280 C.3   156  THR156      0.1862
     26  C         25.7590    7.5320  -10.6330 C.2   156  THR156      0.2287
     27  O         26.2900    6.4220  -10.6470 O.2   156  THR156     -0.2866
     28  CB        26.8130    8.5810   -8.6280 C.3   156  THR156      0.1770
     29  OG1       26.5360    9.2180   -7.3760 O.3   156  THR156     -0.2211
     30  CG2       27.6440    9.5250   -9.4830 C.3   156  THR156      0.0375
     31  N         24.0090   12.7890  -10.9510 N.3   178  ARG178     -0.1245
     32  CA        23.1730   12.2300   -9.8980 C.3   178  ARG178      0.1563
     33  C         21.8120   12.8850   -9.9190 C.2   178  ARG178      0.2260
     34  O         21.7120   14.1090   -9.7950 O.2   178  ARG178     -0.2867
     35  CB        23.8350   12.4300   -8.5390 C.3   178  ARG178      0.0307
     36  CG        23.1100   11.7380   -7.4150 C.3   178  ARG178      0.0489
     37  CD        23.8410   11.9030   -6.0910 C.3   178  ARG178      0.2205
     38  NE        23.1120   11.2330   -5.0220 N.pl3 178  ARG178     -0.0865
     39  CZ        23.2740    9.9520   -4.7130 C.cat 178  ARG178      0.5346
     40  NH1       24.1510    9.2120   -5.3830 N.pl3 178  ARG178      0.1354
     41  NH2       22.5630    9.4120   -3.7350 N.pl3 178  ARG178      0.1354
     42  N         27.4940   16.4190  -11.3790 N.3   183  ILE183     -0.1245
     43  CA        28.2320   16.6130  -10.1350 C.3   183  ILE183      0.1561
     44  C         29.6690   17.0500  -10.4110 C.2   183  ILE183      0.2260
     45  O         30.1760   17.9970   -9.7940 O.2   183  ILE183     -0.2867
     46  CB        28.2540   15.3040   -9.3130 C.3   183  ILE183      0.0252
     47  CG1       26.8280   14.7870   -9.0950 C.3   183  ILE183      0.0019
     48  CG2       29.0010   15.4920   -7.9810 C.3   183  ILE183      0.0019
     49  CD1       25.9140   15.7690   -8.3840 C.3   183  ILE183      0.0001
     50  N         31.4380   -4.6670   -9.5310 N.3   205  ILE205     -0.1231
     51  CA        31.7150   -3.7910   -8.3850 C.3   205  ILE205      0.1692
     52  C         31.9320   -2.3470   -8.8460 C.2   205  ILE205      0.2592
     53  O         31.1120   -1.4710   -8.5660 O.2   205  ILE205     -0.2718
     54  CB        32.8960   -4.2760   -7.5290 C.3   205  ILE205      0.0266
     55  CG1       32.6590   -5.7290   -7.1000 C.3   205  ILE205      0.0019
     56  CG2       33.0630   -3.3690   -6.3090 C.3   205  ILE205      0.0020
     57  CD1       31.5440   -5.8870   -6.0970 C.3   205  ILE205      0.0001
     58  N         33.0180   -2.1120   -9.5770 N.am  206  ASP206     -0.1974
     59  CA        33.2270   -0.8150  -10.2000 C.3   206  ASP206      0.1709
     60  C         32.6820   -0.8290  -11.6370 C.2   206  ASP206      0.2293
     61  O         32.3100   -1.8810  -12.1530 O.2   206  ASP206     -0.2864
     62  CB        34.7140   -0.4480  -10.1950 C.3   206  ASP206      0.1436
     63  CG        35.2800   -0.3110   -8.7890 C.2   206  ASP206      0.3671
     64  OD1       34.6740    0.3980   -7.9620 O.co2 206  ASP206     -0.2456
     65  OD2       36.3370   -0.9170   -8.5120 O.co2 206  ASP206     -0.2456
     66  N         34.7300    4.4940  -10.4800 N.3   226  ASN226     -0.1225
     67  CA        33.7470    4.3220   -9.4020 C.3   226  ASN226      0.1785
     68  C         32.8420    5.5380   -9.3020 C.2   226  ASN226      0.2597
     69  O         32.8530    6.3810  -10.2000 O.2   226  ASN226     -0.2718
     70  CB        34.3790    3.8700   -8.0590 C.3   226  ASN226      0.1169
     71  CG        35.3170    4.9090   -7.4430 C.2   226  ASN226      0.2627
     72  OD1       36.1400    4.5790   -6.5780 O.2   226  ASN226     -0.2716
     73  ND2       35.1730    6.1550   -7.8430 N.am  226  ASN226     -0.0877
     74  N         32.0420    5.6240   -8.2450 N.am  227  ASN227     -0.1960
     75  CA        31.0970    6.7270   -8.1440 C.3   227  ASN227      0.1819
     76  C         31.7380    8.0930   -7.9090 C.2   227  ASN227      0.2621
     77  O         31.0220    9.0960   -7.8370 O.2   227  ASN227     -0.2715
     78  CB        30.0670    6.4790   -7.0500 C.3   227  ASN227      0.1195
     79  CG        30.6770    6.5080   -5.6640 C.2   227  ASN227      0.2630
     80  OD1       31.8540    6.1970   -5.4900 O.2   227  ASN227     -0.2716
     81  ND2       29.8680    6.8940   -4.6710 N.am  227  ASN227     -0.0877
     82  N         33.0620    8.1370   -7.7900 N.am  228  GLU228     -0.1977
     83  CA        33.7450    9.4070   -7.5510 C.3   228  GLU228      0.1602
     84  C         34.8450    9.7550   -8.5460 C.2   228  GLU228      0.2287
     85  O         35.1000   10.9400   -8.8000 O.2   228  GLU228     -0.2864
     86  CB        34.3240    9.4390   -6.1370 C.3   228  GLU228      0.0415
     87  CG        33.2740    9.3060   -5.0600 C.3   228  GLU228      0.1163
     88  CD        33.8780    9.3210   -3.6680 C.2   228  GLU228      0.3649
     89  OE1       33.1100    9.2930   -2.6830 O.co2 228  GLU228     -0.2457
     90  OE2       35.1220    9.3570   -3.5610 O.co2 228  GLU228     -0.2457
@<TRIPOS>BOND
     1    61    60    2
     2    60    59    1
     3    42    43    1
     4    31    32    1
     5    27    26    2
     6    26    25    1
     7    66    67    1
     8    44    43    1
     9    44    45    2
    10    69    68    2
    11    59    62    1
    12    59    58    1
    13    62    63    1
    14    43    46    1
    15     8     9    1
    16    33    32    1
    17    33    34    2
    18    32    35    1
    19    13    15    1
    20    13    12    1
    21    58    52   am
    22    50    51    1
    23    30    28    1
    24    67    68    1
    25    67    70    1
    26    25    28    1
    27    25    24    1
    28    46    47    1
    29    46    48    1
    30    68    74   am
    31    47    49    1
    32    52    53    2
    33    52    51    1
    34    85    84    2
    35    63    65   ar
    36    63    64   ar
    37     9    12    1
    38     9    10    1
    39    12    14    1
    40    28    29    1
    41    84    83    1
    42    35    36    1
    43    51    54    1
    44    74    75    1
    45    75    76    1
    46    75    78    1
    47    70    71    1
    48    76    77    2
    49    76    82   am
    50    73    71   am
    51    82    83    1
    52    10    11    2
    53    10    16   am
    54    83    86    1
    55    54    55    1
    56    54    56    1
    57    71    72    2
    58    36    37    1
    59    55    57    1
    60    78    79    1
    61     2     3    1
    62     2     1    1
    63     2     5    1
    64     3     4    2
    65    16    17    1
    66     1     7    1
    67    86    87    1
    68     5     6    1
    69    37    38    1
    70    18    17    1
    71    18    19    2
    72    79    80    2
    73    79    81   am
    74    17    20    1
    75    40    39    1
    76    87    88    1
    77     7     6    1
    78    38    39    2
    79    39    41    1
    80    20    21    1
    81    21    22   ar
    82    21    23   ar
    83    88    90   ar
    84    88    89   ar
