@<TRIPOS>MOLECULE
tmp/4i00A01.pdb
 171 160 0 0 0
SMALL
GASTEIGER

@<TRIPOS>ATOM
      1  N        -19.9490    3.4460   36.3780 N.3    37  ARG37      -0.1231
      2  CA       -21.2820    2.8730   36.2600 C.3    37  ARG37       0.1694
      3  C        -21.7430    3.1380   34.8320 C.2    37  ARG37       0.2591
      4  O        -21.0270    3.7720   34.0530 O.2    37  ARG37      -0.2718
      5  CB       -22.2830    3.4470   37.2840 C.3    37  ARG37       0.0321
      6  CG       -22.6680    2.4580   38.4050 C.3    37  ARG37       0.0489
      7  CD       -24.1570    2.5940   38.8320 C.3    37  ARG37       0.2205
      8  NE       -25.0630    2.0870   37.8040 N.pl3  37  ARG37      -0.0865
      9  CZ       -26.3370    2.4560   37.6530 C.cat  37  ARG37       0.5346
     10  NH1      -26.8810    3.3740   38.4540 N.pl3  37  ARG37       0.1354
     11  NH2      -27.0610    1.9370   36.6710 N.pl3  37  ARG37       0.1354
     12  N        -22.9310    2.6600   34.4990 N.am   38  GLU38      -0.1979
     13  CA       -23.4890    2.8040   33.1640 C.3    38  GLU38       0.1602
     14  C        -22.5130    2.3420   32.0860 C.2    38  GLU38       0.2287
     15  O        -22.2000    3.0990   31.1570 O.2    38  GLU38      -0.2864
     16  CB       -23.9060    4.2560   32.9200 C.3    38  GLU38       0.0415
     17  CG       -25.0340    4.7280   33.8290 C.3    38  GLU38       0.1163
     18  CD       -24.5440    5.2320   35.1730 C.2    38  GLU38       0.3649
     19  OE1      -23.3920    5.7170   35.2650 O.co2  38  GLU38      -0.2457
     20  OE2      -25.3240    5.1590   36.1520 O.co2  38  GLU38      -0.2457
     21  N        -19.0900    5.2160   32.3080 N.3    53  LEU53      -0.1245
     22  CA       -18.9730    6.5430   32.8860 C.3    53  LEU53       0.1561
     23  C        -18.1750    6.4130   34.1680 C.2    53  LEU53       0.2260
     24  O        -18.6460    5.8350   35.1460 O.2    53  LEU53      -0.2867
     25  CB       -20.3680    7.1210   33.1650 C.3    53  LEU53       0.0270
     26  CG       -21.2370    7.3190   31.9240 C.3    53  LEU53       0.0019
     27  CD1      -22.5980    7.8490   32.3320 C.3    53  LEU53       0.0001
     28  CD2      -20.5760    8.2880   30.9350 C.3    53  LEU53       0.0001
     29  N        -25.3420   10.4940   40.6510 N.3    70  ASP70      -0.1225
     30  CA       -25.4460   10.2660   39.2070 C.3    70  ASP70       0.1805
     31  C        -24.6340   11.2160   38.3250 C.2    70  ASP70       0.2597
     32  O        -24.0410   10.7930   37.3260 O.2    70  ASP70      -0.2718
     33  CB       -26.9050   10.3280   38.7700 C.3    70  ASP70       0.1424
     34  CG       -27.6360    9.0290   39.0000 C.2    70  ASP70       0.3668
     35  OD1      -27.1170    7.9680   38.5950 O.co2  70  ASP70      -0.2456
     36  OD2      -28.7420    9.0740   39.5770 O.co2  70  ASP70      -0.2456
     37  N        -24.6290   12.4970   38.6690 N.am   71  ARG71      -0.1979
     38  CA       -24.0170   13.4970   37.8070 C.3    71  ARG71       0.1597
     39  C        -23.0640   14.4000   38.5810 C.2    71  ARG71       0.2287
     40  O        -23.4450   15.0100   39.5760 O.2    71  ARG71      -0.2864
     41  CB       -25.1080   14.3160   37.1090 C.3    71  ARG71       0.0334
     42  CG       -26.1190   13.4430   36.3660 C.3    71  ARG71       0.0492
     43  CD       -27.2880   14.2390   35.8210 C.3    71  ARG71       0.2205
     44  NE       -28.0640   14.8760   36.8860 N.pl3  71  ARG71      -0.0865
     45  CZ       -28.9400   14.2320   37.6580 C.cat  71  ARG71       0.5346
     46  NH1      -29.6050   14.8980   38.6020 N.pl3  71  ARG71       0.1354
     47  NH2      -29.1550   12.9230   37.4890 N.pl3  71  ARG71       0.1354
     48  N        -17.1210   13.1140   36.1620 N.3    75  ARG75      -0.1245
     49  CA       -17.4390   11.9140   35.4030 C.3    75  ARG75       0.1563
     50  C        -17.0170   12.0870   33.9490 C.2    75  ARG75       0.2260
     51  O        -17.2860   13.1180   33.3330 O.2    75  ARG75      -0.2867
     52  CB       -18.9310   11.5700   35.4950 C.3    75  ARG75       0.0307
     53  CG       -19.3840   11.3120   36.9200 C.3    75  ARG75       0.0489
     54  CD       -20.6520   10.4760   36.9500 C.3    75  ARG75       0.2205
     55  NE       -20.3630    9.0640   36.6870 N.pl3  75  ARG75      -0.0865
     56  CZ       -21.2730    8.0980   36.7390 C.cat  75  ARG75       0.5346
     57  NH1      -22.5310    8.4000   37.0390 N.pl3  75  ARG75       0.1354
     58  NH2      -20.9300    6.8310   36.4950 N.pl3  75  ARG75       0.1354
     59  N        -21.6420   12.6960   31.9730 N.3    98  TRP98      -0.1227
     60  CA       -22.4430   11.8950   32.9050 C.3    98  TRP98       0.1737
     61  C        -23.6160   11.1710   32.2450 C.2    98  TRP98       0.2596
     62  O        -24.4460   10.5490   32.9210 O.2    98  TRP98      -0.2718
     63  CB       -22.8890   12.6900   34.1450 C.3    98  TRP98       0.0564
     64  CG       -23.4160   14.1050   33.9390 C.ar   98  TRP98       0.0003
     65  CD1      -22.8410   15.2590   34.4040 C.ar   98  TRP98       0.0946
     66  CD2      -24.6290   14.5090   33.2750 C.ar   98  TRP98       0.0152
     67  NE1      -23.6030   16.3440   34.0570 N.ar   98  TRP98      -0.2442
     68  CE2      -24.7070   15.9140   33.3680 C.ar   98  TRP98       0.0810
     69  CE3      -25.6470   13.8240   32.6010 C.ar   98  TRP98       0.0012
     70  CZ2      -25.7600   16.6460   32.8120 C.ar   98  TRP98       0.0191
     71  CZ3      -26.7030   14.5570   32.0510 C.ar   98  TRP98       0.0001
     72  CH2      -26.7460   15.9540   32.1620 C.ar   98  TRP98       0.0015
     73  N        -23.6810   11.2630   30.9180 N.am   99  SER99      -0.1952
     74  CA       -24.5420   10.4330   30.0950 C.3    99  SER99       0.1924
     75  C        -23.8530   10.3320   28.7410 C.2    99  SER99       0.2314
     76  O        -23.2650   11.3110   28.2770 O.2    99  SER99      -0.2863
     77  CB       -25.9360   11.0540   29.9480 C.3    99  SER99       0.2116
     78  OG       -26.7740   10.2190   29.1640 O.3    99  SER99      -0.2180
     79  N        -31.9660   17.8140   32.5930 N.3   142  ILE142     -0.1245
     80  CA       -31.1170   16.6280   32.4790 C.3   142  ILE142      0.1561
     81  C        -31.1220   16.0040   31.0910 C.2   142  ILE142      0.2260
     82  O        -31.4970   14.8430   30.9140 O.2   142  ILE142     -0.2867
     83  CB       -31.4330   15.5780   33.5610 C.3   142  ILE142      0.0252
     84  CG1      -31.4530   16.2480   34.9400 C.3   142  ILE142      0.0019
     85  CG2      -30.4100   14.4290   33.5070 C.3   142  ILE142      0.0019
     86  CD1      -31.8890   15.3380   36.0740 C.3   142  ILE142      0.0001
     87  N        -30.0660   13.9070   28.2270 N.3   144  ARG144     -0.1245
     88  CA       -29.4840   12.5930   28.4730 C.3   144  ARG144      0.1563
     89  C        -29.6890   11.6570   27.2950 C.2   144  ARG144      0.2260
     90  O        -30.5120   11.9000   26.4110 O.2   144  ARG144     -0.2867
     91  CB       -30.0660   11.9750   29.7560 C.3   144  ARG144      0.0307
     92  CG       -31.6010   11.9400   29.8170 C.3   144  ARG144      0.0489
     93  CD       -32.0750   11.6440   31.2380 C.3   144  ARG144      0.2205
     94  NE       -33.5330   11.4870   31.3390 N.pl3 144  ARG144     -0.0865
     95  CZ       -34.4000   12.4920   31.4550 C.cat 144  ARG144      0.5346
     96  NH1      -33.9790   13.7470   31.4490 N.pl3 144  ARG144      0.1354
     97  NH2      -35.7050   12.2390   31.5620 N.pl3 144  ARG144      0.1354
     98  N        -26.7220    5.4840   27.0630 N.3   147  GLU147     -0.1245
     99  CA       -25.8320    4.6970   27.9340 C.3   147  GLU147      0.1567
    100  C        -25.5620    3.3190   27.3330 C.2   147  GLU147      0.2260
    101  O        -25.2600    2.3600   28.0480 O.2   147  GLU147     -0.2867
    102  CB       -26.3650    4.5420   29.3720 C.3   147  GLU147      0.0388
    103  CG       -27.1600    5.7150   29.9110 C.3   147  GLU147      0.1160
    104  CD       -26.3530    6.9980   30.0980 C.2   147  GLU147      0.3649
    105  OE1      -25.1340    7.0450   29.7850 O.co2 147  GLU147     -0.2457
    106  OE2      -26.9620    7.9830   30.5660 O.co2 147  GLU147     -0.2457
    107  N        -38.4870   13.0360   34.8730 N.3   166  ALA166     -0.1245
    108  CA       -38.7910   11.6160   35.0070 C.3   166  ALA166      0.1562
    109  C        -40.2140   11.4870   35.5670 C.2   166  ALA166      0.2260
    110  O        -40.6720   12.3610   36.3030 O.2   166  ALA166     -0.2867
    111  CB       -37.7920   10.9530   35.9300 C.3   166  ALA166      0.0290
    112  N        -36.4770    6.6420   27.2880 N.3   197  GLU197     -0.1231
    113  CA       -35.1270    7.0390   27.6250 C.3   197  GLU197      0.1699
    114  C        -34.2030    5.8320   27.5700 C.2   197  GLU197      0.2592
    115  O        -34.6360    4.7650   27.3790 O.2   197  GLU197     -0.2718
    116  CB       -35.0660    7.7940   28.9330 C.3   197  GLU197      0.0402
    117  CG       -35.1010    6.9690   30.0660 C.3   197  GLU197      0.1161
    118  CD       -35.1160    7.6650   31.4710 C.2   197  GLU197      0.3649
    119  OE1      -35.3100    6.9110   32.3360 O.co2 197  GLU197     -0.2457
    120  OE2      -34.9760    8.8590   31.7440 O.co2 197  GLU197     -0.2457
    121  N        -32.9120    6.0710   27.7030 N.am  198  GLU198     -0.1979
    122  CA       -31.9290    4.9740   27.7410 C.3   198  GLU198      0.1602
    123  C        -32.1390    3.8580   26.7160 C.2   198  GLU198      0.2287
    124  O        -32.1660    2.6670   27.0630 O.2   198  GLU198     -0.2864
    125  CB       -31.8370    4.4000   29.1620 C.3   198  GLU198      0.0415
    126  CG       -31.2230    5.3950   30.1500 C.3   198  GLU198      0.1163
    127  CD       -31.1840    4.8900   31.5720 C.2   198  GLU198      0.3649
    128  OE1      -31.8850    3.8970   31.8770 O.co2 198  GLU198     -0.2457
    129  OE2      -30.4590    5.4920   32.3900 O.co2 198  GLU198     -0.2457
    130  N        -36.5430    2.4840   27.8450 N.3   212  ARG212     -0.1245
    131  CA       -37.0370    2.5090   29.2110 C.3   212  ARG212      0.1563
    132  C        -38.1150    3.5860   29.3770 C.2   212  ARG212      0.2260
    133  O        -37.8550    4.7620   29.1780 O.2   212  ARG212     -0.2867
    134  CB       -35.8710    2.7620   30.1610 C.3   212  ARG212      0.0307
    135  CG       -36.2430    3.1360   31.5700 C.3   212  ARG212      0.0489
    136  CD       -34.9840    3.4470   32.3740 C.3   212  ARG212      0.2205
    137  NE       -35.2760    3.9340   33.7150 N.pl3 212  ARG212     -0.0865
    138  CZ       -34.3640    4.1740   34.6490 C.cat 212  ARG212      0.5346
    139  NH1      -33.0740    3.9610   34.4090 N.pl3 212  ARG212      0.1354
    140  NH2      -34.7380    4.6280   35.8380 N.pl3 212  ARG212      0.1354
    141  N        -40.0390    5.3040   32.2000 N.3   214  ASN214     -0.1240
    142  CA       -39.8900    5.3830   33.6500 C.3   214  ASN214      0.1653
    143  C        -41.1400    5.9280   34.3210 C.2   214  ASN214      0.2266
    144  O        -41.1040    6.2990   35.4930 O.2   214  ASN214     -0.2867
    145  CB       -38.6480    6.1910   34.0670 C.3   214  ASN214      0.1155
    146  CG       -38.7180    7.6620   33.6670 C.2   214  ASN214      0.2627
    147  OD1      -37.6800    8.2950   33.4260 O.2   214  ASN214     -0.2716
    148  ND2      -39.9250    8.2230   33.6170 N.am  214  ASN214     -0.0877
    149  N        -33.1480   -4.8040   41.2870 N.3   289  ARG289     -0.1245
    150  CA       -32.0790   -5.0160   40.3210 C.3   289  ARG289      0.1563
    151  C        -31.1860   -6.1750   40.7480 C.2   289  ARG289      0.2260
    152  O        -29.9900   -6.0010   41.0300 O.2   289  ARG289     -0.2867
    153  CB       -31.2760   -3.7240   40.1320 C.3   289  ARG289      0.0307
    154  CG       -32.1450   -2.6000   39.5760 C.3   289  ARG289      0.0489
    155  CD       -31.4010   -1.2870   39.4400 C.3   289  ARG289      0.2205
    156  NE       -32.2000   -0.3060   38.7110 N.pl3 289  ARG289     -0.0865
    157  CZ       -31.7750    0.9150   38.4000 C.cat 289  ARG289      0.5346
    158  NH1      -30.5580    1.3080   38.7700 N.pl3 289  ARG289      0.1354
    159  NH2      -32.5640    1.7430   37.7290 N.pl3 289  ARG289      0.1354
    160  N        -28.0780   -2.2710   34.8480 N.3   324  TYR324     -0.1241
    161  CA       -28.3740   -1.9590   33.4560 C.3   324  TYR324      0.1605
    162  C        -27.9880   -3.1010   32.5330 C.2   324  TYR324      0.2264
    163  O        -27.1290   -3.9160   32.8560 O.2   324  TYR324     -0.2867
    164  CB       -27.5900   -0.7160   33.0440 C.3   324  TYR324      0.0534
    165  CG       -28.2740    0.5710   33.4140 C.ar  324  TYR324     -0.0201
    166  CD1      -29.3550    0.5710   34.2850 C.ar  324  TYR324     -0.0009
    167  CD2      -27.8580    1.7810   32.8860 C.ar  324  TYR324     -0.0009
    168  CE1      -29.9960    1.7310   34.6210 C.ar  324  TYR324      0.0417
    169  CE2      -28.5020    2.9590   33.2100 C.ar  324  TYR324      0.0417
    170  CZ       -29.5690    2.9260   34.0900 C.ar  324  TYR324      0.1957
    171  OH       -30.2350    4.0780   34.4300 O.3   324  TYR324     -0.2866
@<TRIPOS>BOND
     1    90    89    2
     2   123   124    2
     3   123   122    1
     4    98    99    1
     5   112   113    1
     6    89    88    1
     7   100    99    1
     8   100   101    2
     9   115   114    2
    10   114   113    1
    11   114   121   am
    12   113   116    1
    13   121   122    1
    14   122   125    1
    15   130   131    1
    16    99   102    1
    17    87    88    1
    18    76    75    2
    19    88    91    1
    20    75    74    1
    21   116   117    1
    22   125   126    1
    23    78    77    1
    24   133   132    2
    25   131   132    1
    26   131   134    1
    27   102   103    1
    28    91    92    1
    29   105   104   ar
    30    92    93    1
    31   103   104    1
    32    77    74    1
    33   117   118    1
    34    74    73    1
    35   104   106   ar
    36   126   127    1
    37   134   135    1
    38    82    81    2
    39    73    61   am
    40    28    26    1
    41    81    80    1
    42    15    14    2
    43    93    94    1
    44    94    95    2
    45    96    95    1
    46    95    97    1
    47   118   120   ar
    48   118   119   ar
    49   135   136    1
    50   127   128   ar
    51   127   129   ar
    52    26    27    1
    53    26    25    1
    54    59    60    1
    55    71    72   ar
    56    71    69   ar
    57    14    13    1
    58    72    70   ar
    59   141   142    1
    60    61    60    1
    61    61    62    2
    62    21    22    1
    63   136   137    1
    64    80    79    1
    65    80    83    1
    66   162   163    2
    67   162   161    1
    68    69    66   ar
    69    70    68   ar
    70   167   169   ar
    71   167   165   ar
    72    22    25    1
    73    22    23    1
    74    60    63    1
    75    16    13    1
    76    16    17    1
    77   164   165    1
    78   164   161    1
    79    13    12    1
    80   169   170   ar
    81    66    68   ar
    82    66    64   ar
    83    51    50    2
    84    68    67   ar
    85   165   166   ar
    86   147   146    2
    87   161   160    1
    88    85    83    1
    89    83    84    1
    90   148   146   am
    91   142   145    1
    92   142   143    1
    93   146   145    1
    94   137   138    2
    95    17    18    1
    96    64    63    1
    97    64    65   ar
    98    50    49    1
    99     4     3    2
   100    67    65   ar
   101   170   171    1
   102   170   168   ar
   103    23    24    2
   104   166   168   ar
   105   143   144    2
   106   139   138    1
   107    12     3   am
   108   138   140    1
   109     3     2    1
   110   107   108    1
   111    84    86    1
   112   108   109    1
   113   108   111    1
   114    18    19   ar
   115    18    20   ar
   116    49    52    1
   117    49    48    1
   118    52    53    1
   119   109   110    2
   120    43    42    1
   121    43    44    1
   122     2     1    1
   123     2     5    1
   124    42    41    1
   125    58    56    1
   126    11     9    1
   127    55    56    2
   128    55    54    1
   129    56    57    1
   130    44    45    2
   131    53    54    1
   132    41    38    1
   133     5     6    1
   134    32    31    2
   135    47    45    1
   136     9     8    2
   137     9    10    1
   138    45    46    1
   139   159   157    1
   140     8     7    1
   141    38    39    1
   142    38    37    1
   143    31    37   am
   144    31    30    1
   145   157   156    2
   146   157   158    1
   147     6     7    1
   148    39    40    2
   149    35    34   ar
   150   156   155    1
   151    33    34    1
   152    33    30    1
   153    34    36   ar
   154    30    29    1
   155   155   154    1
   156   154   153    1
   157   153   150    1
   158   150   151    1
   159   150   149    1
   160   151   152    2
