@<TRIPOS>MOLECULE
tmp/4i03A00.pdb
 190 189 0 0 0
SMALL
GASTEIGER

@<TRIPOS>ATOM
      1  N         23.4040   -6.2560   20.7430 N.3    71  ASP71      -0.1239
      2  CA        23.6840   -7.3190   21.7320 C.3    71  ASP71       0.1674
      3  C         24.0210   -8.6900   21.0900 C.2    71  ASP71       0.2266
      4  O         23.8730   -9.7410   21.7270 O.2    71  ASP71      -0.2867
      5  CB        22.4660   -7.4730   22.6060 C.3    71  ASP71       0.1410
      6  CG        21.1990   -7.8360   21.8390 C.2    71  ASP71       0.3668
      7  OD1       21.1740   -7.8400   20.5630 O.co2  71  ASP71      -0.2456
      8  OD2       20.1940   -8.1470   22.5060 O.co2  71  ASP71      -0.2456
      9  N         17.9220  -11.5080   21.1460 N.3    75  GLY75      -0.1210
     10  CA        17.4980  -10.3360   21.8850 C.3    75  GLY75       0.1956
     11  C         17.0310   -9.2090   20.9470 C.2    75  GLY75       0.2612
     12  O         16.0290   -9.3550   20.2610 O.2    75  GLY75      -0.2717
     13  N         17.7510   -8.0990   20.9810 N.am   76  ILE76      -0.1965
     14  CA        17.3060   -6.9070   20.3060 C.3    76  ILE76       0.1727
     15  C         17.4410   -7.1340   18.8280 C.2    76  ILE76       0.2616
     16  O         18.5360   -7.5170   18.3390 O.2    76  ILE76      -0.2715
     17  CB        18.2020   -5.6860   20.5680 C.3    76  ILE76       0.0290
     18  CG1       18.2340   -5.3120   22.0280 C.3    76  ILE76       0.0022
     19  CG2       17.6760   -4.4760   19.7140 C.3    76  ILE76       0.0023
     20  CD1       19.2480   -4.2810   22.3840 C.3    76  ILE76       0.0001
     21  N         16.3820   -6.8240   18.1040 N.am   77  LEU77      -0.1963
     22  CA        16.4120   -6.9690   16.6410 C.3    77  LEU77       0.1728
     23  C         16.6300   -5.6320   15.9050 C.2    77  LEU77       0.2616
     24  O         17.3010   -5.6020   14.9220 O.2    77  LEU77      -0.2715
     25  CB        15.1670   -7.6430   16.1420 C.3    77  LEU77       0.0311
     26  CG        14.7320   -8.9390   16.8170 C.3    77  LEU77       0.0022
     27  CD1       13.3870   -9.2530   16.1980 C.3    77  LEU77       0.0001
     28  CD2       15.8150  -10.0790   16.7170 C.3    77  LEU77       0.0001
     29  N         16.1060   -4.5400   16.4690 N.am   78  ALA78      -0.1963
     30  CA        16.1360   -3.2270   15.8390 C.3    78  ALA78       0.1728
     31  C         15.6490   -2.2160   16.8380 C.2    78  ALA78       0.2616
     32  O         15.0000   -2.6020   17.8120 O.2    78  ALA78      -0.2715
     33  CB        15.2660   -3.2140   14.6120 C.3    78  ALA78       0.0334
     34  N         16.0480   -0.9670   16.6520 N.am   79  HIS79      -0.1959
     35  CA        15.4100    0.1640   17.3770 C.3    79  HIS79       0.1787
     36  C         15.3150    1.3470   16.5560 C.2    79  HIS79       0.2620
     37  O         15.9980    1.4220   15.5120 O.2    79  HIS79      -0.2715
     38  CB        16.1280    0.5050   18.6440 C.3    79  HIS79       0.0785
     39  CG        17.5980    0.7700   18.5300 C.ar   79  HIS79       0.0821
     40  ND1       18.2090    1.5930   17.6170 N.ar   79  HIS79      -0.2267
     41  CD2       18.5900    0.2660   19.2950 C.ar   79  HIS79       0.1154
     42  CE1       19.5180    1.6280   17.8520 C.ar   79  HIS79       0.1986
     43  NE2       19.7610    0.8080   18.8510 N.ar   79  HIS79      -0.2212
     44  N         14.4340    2.3000   16.9170 N.am   80  ALA80      -0.1977
     45  CA        14.1920    3.4660   16.0700 C.3    80  ALA80       0.1597
     46  C         13.9300    4.6340   16.9930 C.2    80  ALA80       0.2287
     47  O         13.4360    4.4410   18.0790 O.2    80  ALA80      -0.2864
     48  CB        12.9800    3.2630   15.0960 C.3    80  ALA80       0.0319
     49  N          8.6110   -7.3400    8.5880 N.3   110  LEU110     -0.1231
     50  CA         7.8310   -7.2090    9.8290 C.3   110  LEU110      0.1693
     51  C          8.5530   -6.3370   10.8560 C.2   110  LEU110      0.2592
     52  O          7.9400   -5.4960   11.5510 O.2   110  LEU110     -0.2718
     53  CB         7.4790   -8.5440   10.4230 C.3   110  LEU110      0.0284
     54  CG         6.5210   -9.4770    9.6510 C.3   110  LEU110      0.0019
     55  CD1        6.6270  -10.8760   10.2390 C.3   110  LEU110      0.0001
     56  CD2        5.0820   -8.8730    9.5680 C.3   110  LEU110      0.0001
     57  N          9.8720   -6.5700   11.0270 N.am  111  THR111     -0.1953
     58  CA        10.6320   -5.7410   11.9200 C.3   111  THR111      0.1897
     59  C         10.6180   -4.2840   11.5100 C.2   111  THR111      0.2313
     60  O         10.5250   -3.4210   12.3350 O.2   111  THR111     -0.2863
     61  CB        12.0890   -6.2420   12.0200 C.3   111  THR111      0.1794
     62  OG1       11.9980   -7.6240   12.3600 O.3   111  THR111     -0.2208
     63  CG2       12.8550   -5.4500   13.0090 C.3   111  THR111      0.0378
     64  N          7.3930   -2.4220   12.4750 N.3   114  HIS114     -0.1226
     65  CA         7.3900   -2.0660   13.9250 C.3   114  HIS114      0.1752
     66  C          8.3230   -0.9260   14.1710 C.2   114  HIS114      0.2595
     67  O          7.9550    0.0590   14.8460 O.2   114  HIS114     -0.2718
     68  CB         7.7940   -3.2780   14.7270 C.3   114  HIS114      0.0759
     69  CG         7.7340   -3.0910   16.2160 C.ar  114  HIS114      0.0818
     70  ND1        8.7550   -2.5220   16.9840 N.ar  114  HIS114     -0.2268
     71  CD2        6.7940   -3.4740   17.0770 C.ar  114  HIS114      0.1154
     72  CE1        8.3720   -2.5260   18.2520 C.ar  114  HIS114      0.1986
     73  NE2        7.1920   -3.0960   18.3270 N.ar  114  HIS114     -0.2212
     74  N          9.5500   -1.0330   13.6590 N.am  115  ALA115     -0.1980
     75  CA        10.5910    0.0220   13.8320 C.3   115  ALA115      0.1597
     76  C         10.0840    1.3920   13.2770 C.2   115  ALA115      0.2287
     77  O         10.1050    2.4190   13.9470 O.2   115  ALA115     -0.2864
     78  CB        11.8680   -0.3970   13.1380 C.3   115  ALA115      0.0319
     79  N          7.7150    3.3470   15.4720 N.3   118  HIS118     -0.1241
     80  CA         8.4430    4.2120   16.3580 C.3   118  HIS118      0.1621
     81  C          9.0050    5.4450   15.6910 C.2   118  HIS118      0.2264
     82  O          8.9430    6.5450   16.2470 O.2   118  HIS118     -0.2867
     83  CB         9.6050    3.4520   17.0560 C.3   118  HIS118      0.0745
     84  CG         9.1690    2.3490   17.9320 C.ar  118  HIS118      0.0817
     85  ND1        8.1470    2.4780   18.8540 N.ar  118  HIS118     -0.2268
     86  CD2        9.6350    1.0850   18.0610 C.ar  118  HIS118      0.1154
     87  CE1        8.0050    1.3420   19.5020 C.ar  118  HIS118      0.1986
     88  NE2        8.9010    0.4790   19.0580 N.ar  118  HIS118     -0.2212
     89  N          4.3940    1.4040   22.4020 N.3   124  HIS124     -0.1241
     90  CA         4.0090    0.0450   22.3230 C.3   124  HIS124      0.1621
     91  C          2.5810   -0.1600   22.7510 C.2   124  HIS124      0.2264
     92  O          2.0880    0.4780   23.6830 O.2   124  HIS124     -0.2867
     93  CB         4.9080   -0.8570   23.2190 C.3   124  HIS124      0.0745
     94  CG         6.2430   -1.1390   22.6860 C.ar  124  HIS124      0.0817
     95  ND1        7.3310   -1.2480   23.5160 N.ar  124  HIS124     -0.2268
     96  CD2        6.7040   -1.3220   21.4170 C.ar  124  HIS124      0.1154
     97  CE1        8.3970   -1.5440   22.7990 C.ar  124  HIS124      0.1986
     98  NE2        8.0630   -1.5610   21.5240 N.ar  124  HIS124     -0.2212
     99  N         -1.8730   -8.0310   21.9630 N.3   128  PRO128     -0.2102
    100  CA        -0.9920   -8.9940   21.3310 C.3   128  PRO128      0.1504
    101  C         -1.2750   -9.2140   19.8120 C.2   128  PRO128      0.2576
    102  O         -0.4910   -9.8520   19.1410 O.2   128  PRO128     -0.2718
    103  CB        -1.2460  -10.2470   22.1470 C.3   128  PRO128      0.0282
    104  CG        -2.6310  -10.0830   22.5630 C.3   128  PRO128      0.0208
    105  CD        -2.6740   -8.6710   23.0200 C.3   128  PRO128      0.0893
    106  N         -2.3370   -8.6280   19.2900 N.am  129  LYS129     -0.1966
    107  CA        -2.6400   -8.6940   17.8480 C.3   129  LYS129      0.1728
    108  C         -1.9860   -7.5590   17.0680 C.2   129  LYS129      0.2616
    109  O         -2.0050   -7.5580   15.8200 O.2   129  LYS129     -0.2715
    110  CB        -4.1210   -8.5550   17.6010 C.3   129  LYS129      0.0311
    111  CG        -5.0690   -9.6360   18.1540 C.3   129  LYS129      0.0038
    112  CD        -6.5050   -9.1890   17.8000 C.3   129  LYS129      0.0206
    113  CE        -7.4040  -10.3150   17.2800 C.3   129  LYS129      0.1093
    114  NZ        -8.8590   -9.8640   17.1360 N.3   129  LYS129     -0.1314
    115  N         -1.4230   -6.5820   17.7970 N.am  130  ALA130     -0.1963
    116  CA        -0.9050   -5.3470   17.1900 C.3   130  ALA130      0.1728
    117  C          0.5590   -5.4680   16.8020 C.2   130  ALA130      0.2616
    118  O          1.3730   -6.0940   17.5100 O.2   130  ALA130     -0.2715
    119  CB        -1.1380   -4.1910   18.1720 C.3   130  ALA130      0.0334
    120  N          0.9090   -4.9030   15.6390 N.am  131  VAL131     -0.1977
    121  CA         2.2850   -4.9090   15.2400 C.3   131  VAL131      0.1596
    122  C          3.1860   -4.1410   16.1900 C.2   131  VAL131      0.2287
    123  O          4.3480   -4.5170   16.3270 O.2   131  VAL131     -0.2864
    124  CB         2.5520   -4.4760   13.7300 C.3   131  VAL131      0.0276
    125  CG1        2.5210   -2.9710   13.5740 C.3   131  VAL131      0.0022
    126  CG2        3.9330   -5.0000   13.2950 C.3   131  VAL131      0.0022
    127  N          2.9630   -4.2880   19.3380 N.3   133  PHE133     -0.1228
    128  CA         3.2300   -5.1440   20.5440 C.3   133  PHE133      0.1721
    129  C          4.7520   -5.2920   20.6810 C.2   133  PHE133      0.2437
    130  O          5.5030   -5.3130   19.6780 O.2   133  PHE133     -0.2733
    131  CB         2.4980   -6.5180   20.4010 C.3   133  PHE133      0.0547
    132  CG         2.4490   -7.3250   21.6710 C.ar  133  PHE133     -0.0202
    133  CD1        1.6830   -6.9030   22.7060 C.ar  133  PHE133     -0.0042
    134  CD2        3.1750   -8.5250   21.8000 C.ar  133  PHE133     -0.0042
    135  CE1        1.6020   -7.6880   23.8900 C.ar  133  PHE133     -0.0003
    136  CE2        3.0890   -9.2890   22.9840 C.ar  133  PHE133     -0.0003
    137  CZ         2.3280   -8.8330   24.0000 C.ar  133  PHE133     -0.0000
    138  N          5.2570   -5.4470   21.9040 N.am  134  PRO134     -0.2718
    139  CA         6.7230   -5.3380   22.0210 C.3   134  PRO134      0.1535
    140  C          7.5490   -6.5600   21.5660 C.2   134  PRO134      0.2599
    141  O          8.7540   -6.4370   21.4750 O.2   134  PRO134     -0.2715
    142  CB         6.9220   -5.1160   23.5170 C.3   134  PRO134      0.0310
    143  CG         5.5840   -4.6520   24.0210 C.3   134  PRO134      0.0237
    144  CD         4.5880   -5.3190   23.2040 C.3   134  PRO134      0.0939
    145  N          6.8990   -7.6880   21.3360 N.am  135  THR135     -0.1937
    146  CA         7.5480   -8.9950   21.0680 C.3   135  THR135      0.2028
    147  C          7.4000   -9.3160   19.6190 C.2   135  THR135      0.2642
    148  O          6.2840   -9.3120   19.1360 O.2   135  THR135     -0.2714
    149  CB         6.7920  -10.1440   21.8000 C.3   135  THR135      0.1808
    150  OG1        6.9810  -10.0000   23.1870 O.3   135  THR135     -0.2208
    151  CG2        7.2060  -11.6100   21.3670 C.3   135  THR135      0.0379
    152  N          8.4850   -9.7390   18.9730 N.am  136  TYR136     -0.1959
    153  CA         8.4220  -10.2150   17.5850 C.3   136  TYR136      0.1771
    154  C          7.6270  -11.5100   17.4360 C.2   136  TYR136      0.2619
    155  O          7.7510  -12.4180   18.2430 O.2   136  TYR136     -0.2715
    156  CB         9.8330  -10.4070   17.0520 C.3   136  TYR136      0.0574
    157  CG         9.9550  -11.0270   15.6350 C.ar  136  TYR136     -0.0198
    158  CD1       10.0900  -10.2270   14.5240 C.ar  136  TYR136     -0.0009
    159  CD2        9.9710  -12.4110   15.4510 C.ar  136  TYR136     -0.0009
    160  CE1       10.2370  -10.7540   13.2620 C.ar  136  TYR136      0.0417
    161  CE2       10.0960  -12.9590   14.1810 C.ar  136  TYR136      0.0417
    162  CZ        10.2420  -12.1490   13.1170 C.ar  136  TYR136      0.1957
    163  OH        10.3830  -12.7270   11.9400 O.3   136  TYR136     -0.2866
    164  N          6.8090  -11.5540   16.3930 N.am  137  LYS137     -0.1977
    165  CA         6.0210  -12.6930   16.0090 C.3   137  LYS137      0.1596
    166  C          6.0090  -12.7490   14.5060 C.2   137  LYS137      0.2287
    167  O          5.6240  -11.7610   13.8650 O.2   137  LYS137     -0.2864
    168  CB         4.5270  -12.5400   16.4570 C.3   137  LYS137      0.0298
    169  CG         4.2370  -12.8140   17.9490 C.3   137  LYS137      0.0038
    170  CD         3.9090  -11.5720   18.8000 C.3   137  LYS137      0.0206
    171  CE         2.7840  -11.8330   19.8310 C.3   137  LYS137      0.1093
    172  NZ         3.1650  -12.7410   20.9650 N.3   137  LYS137     -0.1314
    173  N          4.2310  -13.5570   11.1650 N.3   139  VAL139     -0.1245
    174  CA         2.9430  -13.8160   10.5390 C.3   139  VAL139      0.1561
    175  C          3.1560  -13.7970    9.0060 C.2   139  VAL139      0.2260
    176  O          3.9790  -13.0190    8.4640 O.2   139  VAL139     -0.2867
    177  CB         1.8480  -12.7550   10.9380 C.3   139  VAL139      0.0252
    178  CG1        1.4780  -12.8780   12.4350 C.3   139  VAL139      0.0019
    179  CG2        2.3340  -11.3300   10.5940 C.3   139  VAL139      0.0019
    180  N         -0.4600   -9.8410    5.5110 N.3   144  PHE144     -0.1241
    181  CA        -0.2460   -9.0860    6.7530 C.3   144  PHE144      0.1605
    182  C         -1.1670   -7.9100    6.7400 C.2   144  PHE144      0.2264
    183  O         -1.3050   -7.2330    5.6720 O.2   144  PHE144     -0.2867
    184  CB         1.2100   -8.6120    6.8700 C.3   144  PHE144      0.0534
    185  CG         1.4170   -7.5360    7.8620 C.ar  144  PHE144     -0.0203
    186  CD1        1.7770   -7.8530    9.1650 C.ar  144  PHE144     -0.0042
    187  CD2        1.2770   -6.2010    7.5090 C.ar  144  PHE144     -0.0042
    188  CE1        1.9860   -6.8280   10.1280 C.ar  144  PHE144     -0.0003
    189  CE2        1.5070   -5.1670    8.4560 C.ar  144  PHE144     -0.0003
    190  CZ         1.8510   -5.4920    9.7640 C.ar  144  PHE144     -0.0000
@<TRIPOS>BOND
     1   180   181    1
     2   183   182    2
     3   182   181    1
     4   181   184    1
     5   184   185    1
     6   187   185   ar
     7   187   189   ar
     8   185   186   ar
     9   189   190   ar
    10   176   175    2
    11    49    50    1
    12   175   174    1
    13   186   188   ar
    14    56    54    1
    15    54    55    1
    16    54    53    1
    17   190   188   ar
    18    50    53    1
    19    50    51    1
    20   174   177    1
    21   174   173    1
    22   179   177    1
    23    51    57   am
    24    51    52    2
    25   177   178    1
    26    57    58    1
    27    59    58    1
    28    59    60    2
    29    58    61    1
    30   163   162    1
    31    61    62    1
    32    61    63    1
    33    64    65    1
    34   162   160   ar
    35   162   161   ar
    36    78    75    1
    37   160   158   ar
    38    76    75    1
    39    76    77    2
    40   126   124    1
    41   125   124    1
    42    74    75    1
    43    74    66   am
    44   124   121    1
    45   167   166    2
    46    65    66    1
    47    65    68    1
    48    66    67    2
    49   161   159   ar
    50   166   165    1
    51   158   157   ar
    52    33    30    1
    53    68    69    1
    54    24    23    2
    55    48    45    1
    56   121   120    1
    57   121   122    1
    58   159   157   ar
    59    79    80    1
    60    37    36    2
    61   157   156    1
    62   120   117   am
    63    81    82    2
    64    81    80    1
    65   109   108    2
    66    30    29    1
    67    30    31    1
    68    23    29   am
    69    23    22    1
    70   165   164    1
    71   165   168    1
    72    45    44    1
    73    45    46    1
    74    25    22    1
    75    25    26    1
    76   122   123    2
    77    27    26    1
    78    69    70   ar
    79    69    71   ar
    80    80    83    1
    81   164   154   am
    82   168   169    1
    83    36    44   am
    84    36    35    1
    85    22    21    1
    86    34    31   am
    87    34    35    1
    88    28    26    1
    89   117   116    1
    90   117   118    2
    91    31    32    2
    92    70    72   ar
    93    46    47    2
    94   156   153    1
    95    83    84    1
    96   108   115   am
    97   108   107    1
    98    71    73   ar
    99   114   113    1
   100   116   115    1
   101   116   119    1
   102   113   112    1
   103    35    38    1
   104   154   153    1
   105   154   155    2
   106   153   152    1
   107   110   107    1
   108   110   111    1
   109    40    42   ar
   110    40    39   ar
   111   112   111    1
   112   107   106    1
   113    42    43   ar
   114    84    86   ar
   115    84    85   ar
   116   169   170    1
   117    86    88   ar
   118    21    15   am
   119    72    73   ar
   120    16    15    2
   121    39    38    1
   122    39    41   ar
   123   170   171    1
   124    15    14    1
   125    43    41   ar
   126    85    87   ar
   127   152   147   am
   128    88    87   ar
   129   148   147    2
   130   102   101    2
   131   106   101   am
   132   127   128    1
   133   147   146    1
   134   130   129    2
   135    19    17    1
   136   101   100    1
   137   171   172    1
   138    12    11    2
   139    14    17    1
   140    14    13    1
   141   131   128    1
   142   131   132    1
   143   128   129    1
   144     7     6   ar
   145    17    18    1
   146   129   138   am
   147     1     2    1
   148    11    13   am
   149    11    10    1
   150   146   145    1
   151   146   149    1
   152     3     4    2
   153     3     2    1
   154     9    10    1
   155   100    99    1
   156   100   103    1
   157   145   140   am
   158   151   149    1
   159    96    98   ar
   160    96    94   ar
   161   141   140    2
   162    98    97   ar
   163   140   139    1
   164   132   134   ar
   165   132   133   ar
   166     2     5    1
   167   134   136   ar
   168   149   150    1
   169     6     8   ar
   170     6     5    1
   171   138   139    1
   172   138   144    1
   173    99   105    1
   174   139   142    1
   175    18    20    1
   176   103   104    1
   177    90    89    1
   178    90    91    1
   179    90    93    1
   180   104   105    1
   181    94    93    1
   182    94    95   ar
   183   133   135   ar
   184    91    92    2
   185    97    95   ar
   186   136   137   ar
   187   144   143    1
   188   142   143    1
   189   135   137   ar
