@<TRIPOS>MOLECULE
tmp/4i06B00.pdb
 134 123 0 0 0
SMALL
GASTEIGER

@<TRIPOS>ATOM
      1  N         54.3340   50.9870   44.6880 N.3    97  HIS97      -0.1241
      2  CA        53.2310   50.7340   43.7500 C.3    97  HIS97       0.1621
      3  C         53.6460   50.3120   42.3370 C.2    97  HIS97       0.2264
      4  O         52.7810   49.9510   41.5340 O.2    97  HIS97      -0.2867
      5  CB        52.3080   51.9590   43.6580 C.3    97  HIS97       0.0745
      6  CG        50.8520   51.6150   43.5710 C.ar   97  HIS97       0.0817
      7  ND1       49.8550   52.4960   43.9470 N.ar   97  HIS97      -0.2268
      8  CD2       50.2180   50.4790   43.1860 C.ar   97  HIS97       0.1154
      9  CE1       48.6780   51.9240   43.7880 C.ar   97  HIS97       0.1986
     10  NE2       48.8670   50.6980   43.3270 N.ar   97  HIS97      -0.2212
     11  N         47.1800   59.5640   44.4290 N.3   122  HIS122     -0.1241
     12  CA        47.8180   59.8580   43.1490 C.3   122  HIS122      0.1621
     13  C         47.2720   58.9830   42.0360 C.2   122  HIS122      0.2264
     14  O         46.7470   57.8950   42.2950 O.2   122  HIS122     -0.2867
     15  CB        49.3210   59.6140   43.2510 C.3   122  HIS122      0.0745
     16  CG        49.9400   60.2390   44.4570 C.ar  122  HIS122      0.0817
     17  ND1       50.1540   59.5430   45.6300 N.ar  122  HIS122     -0.2268
     18  CD2       50.3820   61.4990   44.6760 C.ar  122  HIS122      0.1154
     19  CE1       50.7050   60.3510   46.5210 C.ar  122  HIS122      0.1986
     20  NE2       50.8470   61.5480   45.9690 N.ar  122  HIS122     -0.2212
     21  N         49.2020   57.8940   39.4410 N.3   124  ASP124     -0.1239
     22  CA        50.2710   56.9620   39.0480 C.3   124  ASP124      0.1674
     23  C         50.2570   56.7100   37.5490 C.2   124  ASP124      0.2266
     24  O         50.4690   55.5920   37.0870 O.2   124  ASP124     -0.2867
     25  CB        50.1540   55.6450   39.8340 C.3   124  ASP124      0.1410
     26  CG        50.3220   55.8480   41.3210 C.2   124  ASP124      0.3668
     27  OD1       50.6560   56.9900   41.7080 O.co2 124  ASP124     -0.2456
     28  OD2       50.1130   54.8880   42.1090 O.co2 124  ASP124     -0.2456
     29  N         51.7770   58.9900   35.1600 N.3   126  ASN126     -0.1240
     30  CA        52.8700   59.5730   34.3940 C.3   126  ASN126      0.1653
     31  C         53.4620   58.5150   33.4730 C.2   126  ASN126      0.2266
     32  O         53.4000   57.3170   33.7690 O.2   126  ASN126     -0.2867
     33  CB        53.9650   60.1120   35.3080 C.3   126  ASN126      0.1155
     34  CG        53.6600   61.5040   35.8200 C.2   126  ASN126      0.2627
     35  OD1       53.5800   62.4520   35.0360 O.2   126  ASN126     -0.2716
     36  ND2       53.4950   61.6390   37.1310 N.am  126  ASN126     -0.0877
     37  N         57.0740   61.9470   33.5570 N.3   131  THR131     -0.1203
     38  CA        57.4780   61.9380   34.9610 C.3   131  THR131      0.1994
     39  C         58.5440   62.9910   35.2370 C.2   131  THR131      0.2619
     40  O         59.4700   63.1700   34.4460 O.2   131  THR131     -0.2717
     41  CB        58.0290   60.5590   35.4090 C.3   131  THR131      0.1784
     42  OG1       58.4610   60.6470   36.7740 O.3   131  THR131     -0.2211
     43  CG2       59.2070   60.1230   34.5540 C.3   131  THR131      0.0376
     44  N         58.4150   63.6910   36.3590 N.am  132  SER132     -0.1937
     45  CA        59.4440   64.6490   36.7440 C.3   132  SER132      0.2055
     46  C         60.3280   64.0910   37.8520 C.2   132  SER132      0.2643
     47  O         61.2920   64.7420   38.2620 O.2   132  SER132     -0.2714
     48  CB        58.8320   66.0020   37.1440 C.3   132  SER132      0.2130
     49  OG        58.0340   65.9090   38.3200 O.3   132  SER132     -0.2179
     50  N         60.0180   62.8800   38.3240 N.am  133  SER133     -0.1949
     51  CA        60.8140   62.2460   39.3830 C.3   133  SER133      0.1924
     52  C         61.6730   61.1040   38.8530 C.2   133  SER133      0.2314
     53  O         62.7560   60.8280   39.3750 O.2   133  SER133     -0.2863
     54  CB        59.9030   61.7100   40.4910 C.3   133  SER133      0.2116
     55  OG        59.0500   60.6700   39.9980 O.3   133  SER133     -0.2180
     56  N         60.6150   58.1240   39.0710 N.3   135  ASN135     -0.1240
     57  CA        60.2130   57.0020   39.9240 C.3   135  ASN135      0.1653
     58  C         59.0720   56.1870   39.3310 C.2   135  ASN135      0.2266
     59  O         57.9660   56.7000   39.1030 O.2   135  ASN135     -0.2867
     60  CB        59.8440   57.4950   41.3330 C.3   135  ASN135      0.1155
     61  CG        61.0060   58.1970   42.0160 C.2   135  ASN135      0.2627
     62  OD1       62.1650   57.8970   41.7310 O.2   135  ASN135     -0.2716
     63  ND2       60.7050   59.1340   42.9090 N.am  135  ASN135     -0.0877
     64  N         57.0850   54.0120   40.4760 N.3   137  HIS137     -0.1226
     65  CA        55.8550   53.8250   41.2520 C.3   137  HIS137      0.1752
     66  C         54.7950   54.8920   40.9550 C.2   137  HIS137      0.2596
     67  O         53.6340   54.7590   41.3590 O.2   137  HIS137     -0.2718
     68  CB        56.1410   53.7170   42.7660 C.3   137  HIS137      0.0759
     69  CG        56.4640   55.0260   43.4220 C.ar  137  HIS137      0.0818
     70  ND1       56.2000   55.2690   44.7550 N.ar  137  HIS137     -0.2268
     71  CD2       57.0230   56.1590   42.9380 C.ar  137  HIS137      0.1154
     72  CE1       56.5840   56.4970   45.0610 C.ar  137  HIS137      0.1986
     73  NE2       57.0860   57.0610   43.9750 N.ar  137  HIS137     -0.2212
     74  N         55.1980   55.9320   40.2300 N.am  138  GLY138     -0.1957
     75  CA        54.2870   57.0010   39.8560 C.3   138  GLY138      0.1869
     76  C         53.9460   56.8990   38.3830 C.2   138  GLY138      0.2309
     77  O         53.3060   57.7850   37.8200 O.2   138  GLY138     -0.2863
     78  N         46.6860   64.6070   44.4750 N.3   177  ASP177     -0.1239
     79  CA        48.0390   65.0650   44.1440 C.3   177  ASP177      0.1674
     80  C         48.3710   64.5700   42.7470 C.2   177  ASP177      0.2266
     81  O         48.9840   63.5200   42.5660 O.2   177  ASP177     -0.2867
     82  CB        49.0290   64.5370   45.1930 C.3   177  ASP177      0.1410
     83  CG        50.4650   64.9370   44.9140 C.2   177  ASP177      0.3668
     84  OD1       50.6920   65.8930   44.1480 O.co2 177  ASP177     -0.2456
     85  OD2       51.3800   64.3000   45.4850 O.co2 177  ASP177     -0.2456
     86  N         49.8850   65.3560   38.8720 N.3   179  ASP179     -0.1239
     87  CA        50.7790   66.2170   38.0880 C.3   179  ASP179      0.1674
     88  C         50.0330   66.7200   36.8570 C.2   179  ASP179      0.2266
     89  O         49.1210   66.0540   36.3650 O.2   179  ASP179     -0.2867
     90  CB        52.0620   65.4760   37.6830 C.3   179  ASP179      0.1410
     91  CG        52.8510   64.9780   38.8820 C.2   179  ASP179      0.3668
     92  OD1       52.8310   65.6570   39.9330 O.co2 179  ASP179     -0.2456
     93  OD2       53.4940   63.9080   38.7810 O.co2 179  ASP179     -0.2456
     94  N         49.5330   64.3090   34.1040 N.3   182  GLU182     -0.1245
     95  CA        48.5700   63.2620   34.4390 C.3   182  GLU182      0.1567
     96  C         47.1520   63.7730   34.2690 C.2   182  GLU182      0.2260
     97  O         46.2680   63.0460   33.8130 O.2   182  GLU182     -0.2867
     98  CB        48.7650   62.7890   35.8800 C.3   182  GLU182      0.0388
     99  CG        50.1190   62.1680   36.1660 C.3   182  GLU182      0.1160
    100  CD        50.2170   61.7310   37.6210 C.2   182  GLU182      0.3649
    101  OE1       50.2640   62.6150   38.5150 O.co2 182  GLU182     -0.2457
    102  OE2       50.2100   60.5000   37.8760 O.co2 182  GLU182     -0.2457
    103  N         46.6610   52.0100   47.5070 N.3   228  ASP228     -0.1239
    104  CA        47.8590   52.6870   48.0270 C.3   228  ASP228      0.1674
    105  C         47.4460   53.2390   49.3840 C.2   228  ASP228      0.2266
    106  O         46.4560   53.9650   49.4830 O.2   228  ASP228     -0.2867
    107  CB        48.2090   53.8270   47.0560 C.3   228  ASP228      0.1410
    108  CG        49.5390   54.5000   47.3450 C.2   228  ASP228      0.3668
    109  OD1       49.9370   54.5710   48.5290 O.co2 228  ASP228     -0.2456
    110  OD2       50.1720   55.0070   46.3670 O.co2 228  ASP228     -0.2456
    111  N         48.5120   55.5050   51.0230 N.3   230  ASP230     -0.1239
    112  CA        48.5060   56.9830   51.0320 C.3   230  ASP230      0.1674
    113  C         47.1930   57.6170   50.5800 C.2   230  ASP230      0.2266
    114  O         47.0480   58.8420   50.6080 O.2   230  ASP230     -0.2867
    115  CB        49.7310   57.6070   50.3210 C.3   230  ASP230      0.1410
    116  CG        49.6950   57.5250   48.7890 C.2   230  ASP230      0.3668
    117  OD1       48.6310   57.3910   48.1560 O.co2 230  ASP230     -0.2456
    118  OD2       50.7880   57.6480   48.1970 O.co2 230  ASP230     -0.2456
    119  N         54.8420   59.2030   50.2270 N.3   242  THR242     -0.1218
    120  CA        54.3370   60.4580   49.6500 C.3   242  THR242      0.1862
    121  C         53.0030   60.8510   50.2630 C.2   242  THR242      0.2287
    122  O         51.9730   60.8070   49.5890 O.2   242  THR242     -0.2866
    123  CB        54.1710   60.3280   48.1270 C.3   242  THR242      0.1770
    124  OG1       53.1720   59.3400   47.8470 O.3   242  THR242     -0.2211
    125  CG2       55.4580   59.8750   47.5000 C.3   242  THR242      0.0375
    126  N         52.7730   50.5780   49.4990 N.3   273  GLU273     -0.1245
    127  CA        53.3760   51.8290   49.9810 C.3   273  GLU273      0.1567
    128  C         53.4250   52.0300   51.5010 C.2   273  GLU273      0.2260
    129  O         53.7610   53.1300   51.9750 O.2   273  GLU273     -0.2867
    130  CB        52.7820   53.0570   49.2570 C.3   273  GLU273      0.0388
    131  CG        53.0060   53.0740   47.7210 C.3   273  GLU273      0.1160
    132  CD        54.4270   53.4240   47.2940 C.2   273  GLU273      0.3649
    133  OE1       55.2730   53.7410   48.1630 O.co2 273  GLU273     -0.2457
    134  OE2       54.7070   53.3800   46.0700 O.co2 273  GLU273     -0.2457
@<TRIPOS>BOND
     1    31    32    2
     2    31    30    1
     3    37    38    1
     4    97    96    2
     5    94    95    1
     6    96    95    1
     7    30    29    1
     8    30    33    1
     9    95    98    1
    10    40    39    2
    11    43    41    1
    12    38    39    1
    13    38    41    1
    14    35    34    2
    15    39    44   am
    16    33    34    1
    17    41    42    1
    18    34    36   am
    19    98    99    1
    20    99   100    1
    21    44    45    1
    22    89    88    2
    23    45    48    1
    24    45    46    1
    25    88    87    1
    26    24    23    2
    27    48    49    1
    28    23    22    1
    29   100   102   ar
    30   100   101   ar
    31    90    87    1
    32    90    91    1
    33    77    76    2
    34    46    47    2
    35    46    50   am
    36    87    86    1
    37    50    51    1
    38    76    75    1
    39    93    91   ar
    40    52    53    2
    41    52    51    1
    42    91    92   ar
    43    22    21    1
    44    22    25    1
    45    56    57    1
    46    59    58    2
    47    58    57    1
    48    51    54    1
    49    25    26    1
    50    75    74    1
    51    57    60    1
    52    55    54    1
    53    74    66   am
    54    64    65    1
    55    66    65    1
    56    66    67    2
    57    65    68    1
    58    26    27   ar
    59    26    28   ar
    60    60    61    1
    61     4     3    2
    62    62    61    2
    63    61    63   am
    64    13    14    2
    65    13    12    1
    66     3     2    1
    67    81    80    2
    68    80    79    1
    69    68    69    1
    70    71    69   ar
    71    71    73   ar
    72    12    15    1
    73    12    11    1
    74     8    10   ar
    75     8     6   ar
    76    15    16    1
    77    10     9   ar
    78    69    70   ar
    79     6     5    1
    80     6     7   ar
    81     5     2    1
    82     2     1    1
    83     9     7   ar
    84    73    72   ar
    85    79    78    1
    86    79    82    1
    87    84    83   ar
    88    16    18   ar
    89    16    17   ar
    90    18    20   ar
    91    70    72   ar
    92    83    82    1
    93    83    85   ar
    94    17    19   ar
    95    20    19   ar
    96   134   132   ar
    97   110   108   ar
    98   107   108    1
    99   107   104    1
   100   132   131    1
   101   132   133   ar
   102   108   109   ar
   103   125   123    1
   104   103   104    1
   105   131   130    1
   106   124   123    1
   107   104   105    1
   108   123   120    1
   109   117   116   ar
   110   118   116   ar
   111   116   115    1
   112   130   127    1
   113   105   106    2
   114   126   127    1
   115   122   121    2
   116   120   119    1
   117   120   121    1
   118   127   128    1
   119   115   112    1
   120   113   114    2
   121   113   112    1
   122   111   112    1
   123   128   129    2
