@<TRIPOS>MOLECULE
tmp/4i0dA00.pdb
 189 181 0 0 0
SMALL
GASTEIGER

@<TRIPOS>ATOM
      1  N          7.2210  -23.8260   16.0460 N.3    12  SER12      -0.1202
      2  CA         8.2350  -23.8580   14.9930 C.3    12  SER12       0.2020
      3  C          7.7540  -23.3060   13.6590 C.2    12  SER12       0.2619
      4  O          8.5490  -22.7160   12.8960 O.2    12  SER12      -0.2717
      5  CB         8.7370  -25.2920   14.7990 C.3    12  SER12       0.2103
      6  OG         7.6710  -26.1740   14.4920 O.3    12  SER12      -0.2182
      7  N          6.4600  -23.5040   13.3700 N.am   13  GLY13      -0.1942
      8  CA         5.8570  -23.1140   12.0720 C.3    13  GLY13       0.2014
      9  C          5.6410  -21.6140   11.8840 C.2    13  GLY13       0.2639
     10  O          5.7220  -21.1110   10.7540 O.2    13  GLY13      -0.2714
     11  N          5.4360  -20.9010   12.9930 N.am   14  GLN14      -0.1963
     12  CA         5.0830  -19.4600   12.9840 C.3    14  GLN14       0.1733
     13  C          6.0770  -18.5970   13.7940 C.2    14  GLN14       0.2617
     14  O          6.0050  -17.3580   13.7440 O.2    14  GLN14      -0.2715
     15  CB         3.6720  -19.2640   13.5910 C.3    14  GLN14       0.0408
     16  CG         2.5610  -20.1910   12.9900 C.3    14  GLN14       0.0908
     17  CD         1.6610  -19.4690   11.9940 C.2    14  GLN14       0.2608
     18  OE1        0.5800  -18.9950   12.3580 O.2    14  GLN14      -0.2717
     19  NE2        2.0930  -19.3930   10.7290 N.am   14  GLN14      -0.0878
     20  N          6.9650  -19.2470   14.5420 N.am   15  GLY15      -0.1940
     21  CA         8.0560  -18.5730   15.2710 C.3    15  GLY15       0.2014
     22  C          7.7420  -18.4920   16.7540 C.2    15  GLY15       0.2638
     23  O          6.5540  -18.5930   17.1410 O.2    15  GLY15      -0.2714
     24  N          8.7960  -18.3210   17.5680 N.am   16  TYR16      -0.1973
     25  CA         8.6950  -18.1710   18.9990 C.3    16  TYR16       0.1639
     26  C          8.9030  -16.7060   19.3700 C.2    16  TYR16       0.2290
     27  O          9.9110  -16.0790   18.9450 O.2    16  TYR16      -0.2864
     28  CB         9.7930  -18.9950   19.6740 C.3    16  TYR16       0.0560
     29  CG         9.5060  -20.4860   19.6300 C.ar   16  TYR16      -0.0198
     30  CD1        9.8760  -21.2600   18.5300 C.ar   16  TYR16      -0.0009
     31  CD2        8.8750  -21.1070   20.7020 C.ar   16  TYR16      -0.0009
     32  CE1        9.6110  -22.6600   18.4990 C.ar   16  TYR16       0.0417
     33  CE2        8.5980  -22.4740   20.6840 C.ar   16  TYR16       0.0417
     34  CZ         8.9550  -23.2310   19.5830 C.ar   16  TYR16       0.1957
     35  OH         8.7080  -24.5720   19.6010 O.3    16  TYR16      -0.2866
     36  N          9.3000  -11.7970   17.7760 N.3    32  LEU32      -0.1245
     37  CA         9.9310  -13.0290   17.3060 C.3    32  LEU32       0.1561
     38  C         11.4130  -13.0920   17.7060 C.2    32  LEU32       0.2260
     39  O         12.1360  -12.1370   17.4930 O.2    32  LEU32      -0.2867
     40  CB         9.7650  -13.1700   15.7680 C.3    32  LEU32       0.0270
     41  CG        10.5190  -14.3820   15.1370 C.3    32  LEU32       0.0019
     42  CD1        9.6340  -15.5630   15.1770 C.3    32  LEU32       0.0001
     43  CD2       10.8600  -14.1200   13.6890 C.3    32  LEU32       0.0001
     44  N         14.9450  -14.1990   16.8840 N.3    34  ASP34      -0.1239
     45  CA        15.5260  -14.5850   15.5890 C.3    34  ASP34       0.1674
     46  C         17.0490  -14.5570   15.6490 C.2    34  ASP34       0.2266
     47  O         17.6720  -13.4750   15.5620 O.2    34  ASP34      -0.2867
     48  CB        15.0410  -13.6850   14.4320 C.3    34  ASP34       0.1410
     49  CG        15.6280  -14.1040   13.0700 C.2    34  ASP34       0.3668
     50  OD1       15.6100  -13.2860   12.1410 O.co2  34  ASP34      -0.2456
     51  OD2       16.1210  -15.2680   12.9030 O.co2  34  ASP34      -0.2456
     52  N         13.9370   -9.9970    1.5430 N.3    73  TYR73      -0.1241
     53  CA        14.2290  -11.4400    1.7180 C.3    73  TYR73       0.1605
     54  C         13.9900  -12.1500    0.3640 C.2    73  TYR73       0.2264
     55  O         13.4990  -11.5150   -0.5770 O.2    73  TYR73      -0.2867
     56  CB        13.3230  -12.0490    2.7980 C.3    73  TYR73       0.0534
     57  CG        13.6860  -11.6960    4.2680 C.ar   73  TYR73      -0.0201
     58  CD1       14.2080  -12.6670    5.1110 C.ar   73  TYR73      -0.0009
     59  CD2       13.4970  -10.4050    4.7670 C.ar   73  TYR73      -0.0009
     60  CE1       14.5490  -12.3880    6.3960 C.ar   73  TYR73       0.0417
     61  CE2       13.7930  -10.0830    6.1170 C.ar   73  TYR73       0.0417
     62  CZ        14.3070  -11.0860    6.9320 C.ar   73  TYR73       0.1957
     63  OH        14.6520  -10.8000    8.2440 O.3    73  TYR73      -0.2866
     64  N         11.8050  -14.1680   -0.0070 N.3    75  GLN75      -0.1231
     65  CA        10.3770  -14.4540    0.1160 C.3    75  GLN75       0.1698
     66  C          9.5020  -13.2380    0.4840 C.2    75  GLN75       0.2593
     67  O          8.3260  -13.4080    0.8080 O.2    75  GLN75      -0.2718
     68  CB        10.2160  -15.5450    1.2080 C.3    75  GLN75       0.0381
     69  CG        11.0470  -15.2180    2.4630 C.3    75  GLN75       0.0905
     70  CD        11.8720  -16.3750    3.0520 C.2    75  GLN75       0.2608
     71  OE1       11.4010  -17.5200    3.1820 O.2    75  GLN75      -0.2717
     72  NE2       13.1080  -16.0600    3.4410 N.am   75  GLN75      -0.0878
     73  N         10.0440  -12.0280    0.4440 N.am   76  GLY76      -0.1942
     74  CA         9.2660  -10.8600    0.8920 C.3    76  GLY76       0.2014
     75  C         10.2040   -9.7630    1.2770 C.2    76  GLY76       0.2638
     76  O         11.3620   -9.8350    0.9170 O.2    76  GLY76      -0.2714
     77  N          9.7330   -8.7580    2.0370 N.am   77  LYS77      -0.1977
     78  CA        10.5790   -7.6040    2.4340 C.3    77  LYS77       0.1596
     79  C          9.9580   -6.8180    3.5950 C.2    77  LYS77       0.2287
     80  O          8.7530   -6.9170    3.8210 O.2    77  LYS77      -0.2864
     81  CB        10.8650   -6.6550    1.2480 C.3    77  LYS77       0.0298
     82  CG         9.6860   -5.8410    0.7610 C.3    77  LYS77       0.0038
     83  CD        10.1590   -4.6330   -0.0890 C.3    77  LYS77       0.0206
     84  CE         8.9660   -3.8790   -0.7430 C.3    77  LYS77       0.1093
     85  NZ         8.2500   -2.9870    0.2370 N.3    77  LYS77      -0.1314
     86  N          4.6900   -9.8240    2.7220 N.3   109  LYS109     -0.1231
     87  CA         4.8200  -11.2480    3.0680 C.3   109  LYS109      0.1693
     88  C          5.7380  -11.5380    4.2500 C.2   109  LYS109      0.2592
     89  O          6.4300  -12.5790    4.2980 O.2   109  LYS109     -0.2718
     90  CB         5.2380  -12.0680    1.8200 C.3   109  LYS109      0.0285
     91  CG         4.1880  -12.0160    0.6940 C.3   109  LYS109      0.0035
     92  CD         4.5560  -12.9560   -0.4190 C.3   109  LYS109      0.0206
     93  CE         5.9020  -12.5460   -0.9820 C.3   109  LYS109      0.1093
     94  NZ         5.9270  -12.6470   -2.4690 N.3   109  LYS109     -0.1314
     95  N          5.7250  -10.6100    5.2030 N.am  110  PHE110     -0.1976
     96  CA         6.5230  -10.6510    6.4480 C.3   110  PHE110      0.1639
     97  C          5.5860  -10.9900    7.6200 C.2   110  PHE110      0.2290
     98  O          5.7450  -12.0150    8.2430 O.2   110  PHE110     -0.2864
     99  CB         7.2530   -9.3080    6.6690 C.3   110  PHE110      0.0560
    100  CG         8.1200   -9.2700    7.9020 C.ar  110  PHE110     -0.0200
    101  CD1        9.3060   -9.9870    7.9540 C.ar  110  PHE110     -0.0042
    102  CD2        7.7360   -8.5070    9.0050 C.ar  110  PHE110     -0.0042
    103  CE1       10.1200   -9.9600    9.0790 C.ar  110  PHE110     -0.0003
    104  CE2        8.5240   -8.4370   10.1400 C.ar  110  PHE110     -0.0003
    105  CZ         9.7250   -9.1930   10.2060 C.ar  110  PHE110     -0.0000
    106  N          2.3620  -12.5580    9.0810 N.3   112  ILE112     -0.1245
    107  CA         1.4110  -13.5820    8.6210 C.3   112  ILE112      0.1561
    108  C          0.1590  -13.6440    9.4830 C.2   112  ILE112      0.2260
    109  O          0.2000  -13.3320   10.6630 O.2   112  ILE112     -0.2867
    110  CB         2.0340  -14.9950    8.4820 C.3   112  ILE112      0.0252
    111  CG1        3.4580  -14.9270    7.9430 C.3   112  ILE112      0.0019
    112  CG2        1.1930  -15.8280    7.4950 C.3   112  ILE112      0.0019
    113  CD1        4.2120  -16.2960    7.9870 C.3   112  ILE112      0.0001
    114  N          0.0070  -15.1950   13.5790 N.3   115  SER115     -0.1217
    115  CA         1.3350  -15.4930   14.1980 C.3   115  SER115      0.1889
    116  C          1.4500  -14.9570   15.6330 C.2   115  SER115      0.2288
    117  O          2.1330  -15.5660   16.5030 O.2   115  SER115     -0.2866
    118  CB         2.4500  -14.8230   13.4010 C.3   115  SER115      0.2089
    119  OG         2.4610  -13.4350   13.7120 O.3   115  SER115     -0.2183
    120  N          3.0200  -12.1830   16.7140 N.3   117  TRP117     -0.1241
    121  CA         4.1290  -11.2540   17.0220 C.3   117  TRP117      0.1605
    122  C          4.0090  -10.0930   16.0930 C.2   117  TRP117      0.2264
    123  O          3.4790  -10.2340   14.9920 O.2   117  TRP117     -0.2867
    124  CB         5.5310  -11.8900   16.8500 C.3   117  TRP117      0.0550
    125  CG         5.7360  -12.7630   15.6240 C.ar  117  TRP117      0.0003
    126  CD1        5.5150  -14.1410   15.5360 C.ar  117  TRP117      0.0946
    127  CD2        6.1700  -12.3520   14.3150 C.ar  117  TRP117      0.0152
    128  NE1        5.7790  -14.5730   14.2510 N.ar  117  TRP117     -0.2442
    129  CE2        6.1990  -13.5090   13.4930 C.ar  117  TRP117      0.0810
    130  CE3        6.6150  -11.1420   13.7800 C.ar  117  TRP117      0.0012
    131  CZ2        6.6480  -13.4710   12.1650 C.ar  117  TRP117      0.0191
    132  CZ3        7.0260  -11.1040   12.4470 C.ar  117  TRP117      0.0001
    133  CH2        7.0220  -12.2540   11.6600 C.ar  117  TRP117      0.0015
    134  N         10.4710   -8.3580   15.2200 N.3   120  ILE120     -0.1245
    135  CA        11.5330   -9.3880   15.2420 C.3   120  ILE120      0.1561
    136  C         12.6850   -8.8560   16.0400 C.2   120  ILE120      0.2260
    137  O         13.0230   -7.6480   15.9600 O.2   120  ILE120     -0.2867
    138  CB        11.9530   -9.6620   13.7850 C.3   120  ILE120      0.0252
    139  CG1       12.8520  -10.8960   13.6470 C.3   120  ILE120      0.0019
    140  CG2       12.5140   -8.4230   13.1470 C.3   120  ILE120      0.0019
    141  CD1       13.0910  -11.2870   12.0830 C.3   120  ILE120      0.0001
    142  N         16.9510  -19.7750   15.0250 N.3   217  SER217     -0.1202
    143  CA        15.5940  -19.8560   15.5770 C.3   217  SER217      0.2020
    144  C         14.5170  -19.1610   14.7310 C.2   217  SER217      0.2619
    145  O         13.3100  -19.3690   14.9620 O.2   217  SER217     -0.2717
    146  CB        15.6600  -19.2470   16.9740 C.3   217  SER217      0.2103
    147  OG        15.7070  -17.8170   16.8890 O.3   217  SER217     -0.2182
    148  N         14.9230  -18.4150   13.7100 N.am  218  GLY218     -0.1942
    149  CA        13.9850  -17.7760   12.7870 C.3   218  GLY218      0.2014
    150  C         13.6600  -18.6160   11.5590 C.2   218  GLY218      0.2640
    151  O         12.9200  -18.1680   10.6400 O.2   218  GLY218     -0.2714
    152  N         14.2160  -19.8200   11.4800 N.am  219  THR219     -0.1936
    153  CA        13.9900  -20.6750   10.2900 C.3   219  THR219      0.2028
    154  C         13.2070  -21.8640   10.8560 C.2   219  THR219      0.2643
    155  O         13.4990  -22.3150   11.9640 O.2   219  THR219     -0.2714
    156  CB        15.2940  -21.1190    9.5600 C.3   219  THR219      0.1808
    157  OG1       15.7780  -20.0270    8.7540 O.3   219  THR219     -0.2208
    158  CG2       15.0340  -22.3500    8.6180 C.3   219  THR219      0.0379
    159  N         12.1420  -22.3080   10.1730 N.am  220  THR220     -0.1936
    160  CA        11.4540  -23.4560   10.6900 C.3   220  THR220      0.2028
    161  C         12.2710  -24.7830   10.5150 C.2   220  THR220      0.2642
    162  O         12.5180  -25.4760   11.4930 O.2   220  THR220     -0.2714
    163  CB        10.0650  -23.5970   10.0180 C.3   220  THR220      0.1808
    164  OG1        9.2390  -22.4480   10.3270 O.3   220  THR220     -0.2208
    165  CG2        9.3720  -24.8390   10.4920 C.3   220  THR220      0.0379
    166  N         12.6530  -25.1180    9.2790 N.am  221  ASN221     -0.1971
    167  CA        13.1320  -26.4430    8.8700 C.3   221  ASN221      0.1688
    168  C         14.6030  -26.7010    9.2610 C.2   221  ASN221      0.2292
    169  O         15.3460  -25.8010    9.5770 O.2   221  ASN221     -0.2864
    170  CB        13.0490  -26.5720    7.3320 C.3   221  ASN221      0.1181
    171  CG        11.6060  -26.7080    6.8540 C.2   221  ASN221      0.2629
    172  OD1       10.7470  -26.7520    7.6680 O.2   221  ASN221     -0.2716
    173  ND2       11.3650  -26.8080    5.5410 N.am  221  ASN221     -0.0877
    174  N         17.5270  -27.1340    7.1410 N.3   223  ARG223     -0.1245
    175  CA        17.7880  -26.9070    5.7030 C.3   223  ARG223      0.1563
    176  C         19.1650  -27.4570    5.4460 C.2   223  ARG223      0.2260
    177  O         20.0400  -27.2670    6.2690 O.2   223  ARG223     -0.2867
    178  CB        17.6540  -25.3960    5.2710 C.3   223  ARG223      0.0307
    179  CG        16.3270  -24.7500    5.8320 C.3   223  ARG223      0.0489
    180  CD        16.0640  -23.2880    5.3140 C.3   223  ARG223      0.2205
    181  NE        16.1070  -23.2830    3.8610 N.pl3 223  ARG223     -0.0865
    182  CZ        16.9670  -22.6160    3.1230 C.cat 223  ARG223      0.5346
    183  NH1       16.8610  -22.7310    1.8150 N.pl3 223  ARG223      0.1354
    184  NH2       17.9020  -21.7950    3.6670 N.pl3 223  ARG223      0.1354
    185  N         14.2500  -24.1690   13.7800 N.3   323  ALA323     -0.1245
    186  CA        13.4950  -24.2910   15.0210 C.3   323  ALA323      0.1562
    187  C         13.1430  -25.7540   15.3180 C.2   323  ALA323      0.2260
    188  O         13.1580  -26.1890   16.4980 O.2   323  ALA323     -0.2867
    189  CB        12.1880  -23.3860   14.9170 C.3   323  ALA323      0.0290
@<TRIPOS>BOND
     1    94    93    1
     2    93    92    1
     3    84    83    1
     4    84    85    1
     5    55    54    2
     6    92    91    1
     7    83    82    1
     8    64    65    1
     9    65    66    1
    10    65    68    1
    11    54    53    1
    12    73    66   am
    13    73    74    1
    14    66    67    2
    15    91    90    1
    16    82    81    1
    17    74    75    1
    18    76    75    2
    19    68    69    1
    20    81    78    1
    21    75    77   am
    22    52    53    1
    23    53    56    1
    24   183   182    1
    25    90    87    1
    26    77    78    1
    27    78    79    1
    28    69    70    1
    29    86    87    1
    30    56    57    1
    31    70    71    2
    32    70    72   am
    33    87    88    1
    34   182   184    1
    35   182   181    2
    36    79    80    2
    37   181   180    1
    38    88    89    2
    39    88    95   am
    40    57    59   ar
    41    57    58   ar
    42    59    61   ar
    43    58    60   ar
    44    95    96    1
    45   178   175    1
    46   178   179    1
    47   180   179    1
    48   176   175    1
    49   176   177    2
    50   173   171   am
    51   175   174    1
    52    61    62   ar
    53    60    62   ar
    54    96    99    1
    55    96    97    1
    56    99   100    1
    57   171   170    1
    58   171   172    2
    59    62    63    1
    60   170   167    1
    61   112   110    1
    62    97    98    2
    63   100   101   ar
    64   100   102   ar
    65   111   113    1
    66   111   110    1
    67   101   103   ar
    68   110   107    1
    69   158   156    1
    70   107   106    1
    71   107   108    1
    72   157   156    1
    73   167   168    1
    74   167   166    1
    75   102   104   ar
    76   103   105   ar
    77   168   169    2
    78   166   161   am
    79   108   109    2
    80   156   153    1
    81   163   164    1
    82   163   165    1
    83   163   160    1
    84   104   105   ar
    85   159   160    1
    86   159   154   am
    87   153   154    1
    88   153   152    1
    89   161   160    1
    90   161   162    2
    91   151   150    2
    92    19    17   am
    93    10     9    2
    94   154   155    2
    95   152   150   am
    96   150   149    1
    97   133   131   ar
    98   133   132   ar
    99     9     8    1
   100     9    11   am
   101    17    18    2
   102    17    16    1
   103     8     7    1
   104   141   139    1
   105    50    49   ar
   106   131   129   ar
   107   132   130   ar
   108   149   148    1
   109     4     3    2
   110    51    49   ar
   111    12    11    1
   112    12    15    1
   113    12    13    1
   114    16    15    1
   115    49    48    1
   116   140   138    1
   117     7     3   am
   118   118   119    1
   119   118   115    1
   120   129   128   ar
   121   129   127   ar
   122   114   115    1
   123   139   138    1
   124     3     2    1
   125    43    41    1
   126   148   144   am
   127    14    13    2
   128   185   186    1
   129   130   127   ar
   130   138   135    1
   131    13    20   am
   132   115   116    1
   133   128   126   ar
   134   127   125   ar
   135    48    45    1
   136     6     5    1
   137    20    21    1
   138   144   145    2
   139   144   143    1
   140     5     2    1
   141   189   186    1
   142   123   122    2
   143     2     1    1
   144   186   187    1
   145   142   143    1
   146    41    42    1
   147    41    40    1
   148   134   135    1
   149   135   136    1
   150    21    22    1
   151   187   188    2
   152   126   125   ar
   153    47    46    2
   154   143   146    1
   155    45    46    1
   156    45    44    1
   157   125   124    1
   158   116   117    2
   159    40    37    1
   160   137   136    2
   161   122   121    1
   162   120   121    1
   163    22    23    2
   164    22    24   am
   165   124   121    1
   166   147   146    1
   167    37    38    1
   168    37    36    1
   169    39    38    2
   170    24    25    1
   171    32    30   ar
   172    32    34   ar
   173    30    29   ar
   174    27    26    2
   175    25    26    1
   176    25    28    1
   177    34    35    1
   178    34    33   ar
   179    29    28    1
   180    29    31   ar
   181    33    31   ar
