@<TRIPOS>MOLECULE
tmp/4i0gA00.pdb
 170 162 0 0 0
SMALL
GASTEIGER

@<TRIPOS>ATOM
      1  N          5.4440  -23.3770   13.3400 N.3    15  GLY15      -0.1210
      2  CA         5.9560  -23.0890   12.0090 C.3    15  GLY15       0.1956
      3  C          5.9120  -21.5930   11.7370 C.2    15  GLY15       0.2612
      4  O          6.0750  -21.1690   10.5960 O.2    15  GLY15      -0.2717
      5  N          5.7040  -20.8060   12.8000 N.am   16  GLN16      -0.1965
      6  CA         5.7020  -19.3300   12.7330 C.3    16  GLN16       0.1733
      7  C          6.4930  -18.7380   13.9190 C.2    16  GLN16       0.2616
      8  O          6.3390  -17.5740   14.2670 O.2    16  GLN16      -0.2715
      9  CB         4.2510  -18.7720   12.6290 C.3    16  GLN16       0.0408
     10  CG         3.4000  -19.4980   11.5300 C.3    16  GLN16       0.0908
     11  CD         1.9220  -19.0590   11.3960 C.2    16  GLN16       0.2608
     12  OE1        1.2250  -18.7960   12.3860 O.2    16  GLN16      -0.2717
     13  NE2        1.4360  -19.0280   10.1500 N.am   16  GLN16      -0.0878
     14  N          7.3400  -19.5720   14.5260 N.am   17  GLY17      -0.1955
     15  CA         8.4530  -19.1370   15.3790 C.3    17  GLY17       0.1869
     16  C          7.9920  -18.8410   16.7660 C.2    17  GLY17       0.2309
     17  O          6.8340  -19.1470   17.1130 O.2    17  GLY17      -0.2863
     18  N          9.2890  -11.5920   17.6510 N.3    34  LEU34      -0.1245
     19  CA         9.8870  -12.8800   17.2880 C.3    34  LEU34       0.1561
     20  C         11.3950  -12.9100   17.6330 C.2    34  LEU34       0.2260
     21  O         12.0980  -11.9510   17.3460 O.2    34  LEU34      -0.2867
     22  CB         9.7300  -13.0990   15.7690 C.3    34  LEU34       0.0270
     23  CG        10.4430  -14.3410   15.2480 C.3    34  LEU34       0.0019
     24  CD1        9.4260  -15.4740   15.3460 C.3    34  LEU34       0.0001
     25  CD2       10.7330  -14.1920   13.7840 C.3    34  LEU34       0.0001
     26  N         14.9770  -14.1920   16.7130 N.3    36  ASP36      -0.1239
     27  CA        15.5600  -14.5090   15.4100 C.3    36  ASP36       0.1674
     28  C         17.0790  -14.4390   15.5240 C.2    36  ASP36       0.2266
     29  O         17.6920  -13.3290   15.5670 O.2    36  ASP36      -0.2867
     30  CB        15.0460  -13.6070   14.2740 C.3    36  ASP36       0.1410
     31  CG        15.5940  -14.0560   12.8970 C.2    36  ASP36       0.3668
     32  OD1       15.6050  -13.2500   11.9240 O.co2  36  ASP36      -0.2456
     33  OD2       16.0590  -15.2420   12.7740 O.co2  36  ASP36      -0.2456
     34  N         13.8190  -10.0200    1.3980 N.3    75  TYR75      -0.1241
     35  CA        14.0440  -11.4230    1.7020 C.3    75  TYR75       0.1605
     36  C         13.7320  -12.1210    0.3840 C.2    75  TYR75       0.2264
     37  O         13.2520  -11.4710   -0.5780 O.2    75  TYR75      -0.2867
     38  CB        13.0890  -11.9560    2.8060 C.3    75  TYR75       0.0534
     39  CG        13.4610  -11.6390    4.2650 C.ar   75  TYR75      -0.0201
     40  CD1       14.1330  -12.5780    5.0440 C.ar   75  TYR75      -0.0009
     41  CD2       13.1190  -10.4160    4.8620 C.ar   75  TYR75      -0.0009
     42  CE1       14.4820  -12.3200    6.3780 C.ar   75  TYR75       0.0417
     43  CE2       13.4830  -10.1350    6.2080 C.ar   75  TYR75       0.0417
     44  CZ        14.1420  -11.1000    6.9590 C.ar   75  TYR75       0.1957
     45  OH        14.5230  -10.8930    8.2920 O.3    75  TYR75      -0.2866
     46  N         11.4030  -14.1250   -0.2280 N.3    77  GLN77      -0.1231
     47  CA         9.9690  -14.2020   -0.4810 C.3    77  GLN77       0.1698
     48  C          9.2010  -13.0600    0.1740 C.2    77  GLN77       0.2593
     49  O          8.0780  -13.2640    0.6590 O.2    77  GLN77      -0.2718
     50  CB         9.4040  -15.5600    0.0120 C.3    77  GLN77       0.0381
     51  CG         9.3730  -15.7220    1.5560 C.3    77  GLN77       0.0905
     52  CD        10.5830  -16.4440    2.1010 C.2    77  GLN77       0.2608
     53  OE1       11.4500  -15.8460    2.7580 O.2    77  GLN77      -0.2717
     54  NE2       10.6520  -17.7600    1.8400 N.am   77  GLN77      -0.0878
     55  N          9.7950  -11.8690    0.1970 N.am   78  GLY78      -0.1942
     56  CA         9.0720  -10.7210    0.7260 C.3    78  GLY78       0.2014
     57  C         10.0610   -9.6970    1.1830 C.2    78  GLY78       0.2638
     58  O         11.2250   -9.7740    0.7990 O.2    78  GLY78      -0.2714
     59  N          9.5980   -8.7280    1.9800 N.am   79  LYS79      -0.1977
     60  CA        10.4630   -7.6840    2.4400 C.3    79  LYS79       0.1596
     61  C          9.8050   -6.8530    3.5010 C.2    79  LYS79       0.2287
     62  O          8.5640   -6.8700    3.6540 O.2    79  LYS79      -0.2864
     63  CB        10.8350   -6.7240    1.2860 C.3    79  LYS79       0.0298
     64  CG         9.6500   -5.8730    0.8200 C.3    79  LYS79       0.0038
     65  CD        10.1090   -4.6120    0.0910 C.3    79  LYS79       0.0206
     66  CE         8.8980   -3.7990   -0.3910 C.3    79  LYS79       0.1093
     67  NZ         8.2320   -3.0130    0.6900 N.3    79  LYS79      -0.1314
     68  N          5.9950   -6.6240    2.7290 N.3   110  ASP110     -0.1225
     69  CA         5.3520   -7.5750    1.8120 C.3   110  ASP110      0.1805
     70  C          5.6050   -8.9970    2.3360 C.2   110  ASP110      0.2598
     71  O          6.7570   -9.3850    2.4740 O.2   110  ASP110     -0.2718
     72  CB         6.0260   -7.5370    0.4310 C.3   110  ASP110      0.1424
     73  CG         5.8730   -6.1880   -0.3110 C.2   110  ASP110      0.3668
     74  OD1        4.8830   -5.4360   -0.1020 O.co2 110  ASP110     -0.2456
     75  OD2        6.7480   -5.9180   -1.1870 O.co2 110  ASP110     -0.2456
     76  N          4.5410   -9.7600    2.6170 N.am  111  LYS111     -0.1966
     77  CA         4.6230  -11.1870    2.9480 C.3   111  LYS111      0.1728
     78  C          5.5290  -11.4620    4.1490 C.2   111  LYS111      0.2616
     79  O          6.1850  -12.5100    4.2270 O.2   111  LYS111     -0.2715
     80  CB         5.0530  -12.0290    1.7240 C.3   111  LYS111      0.0311
     81  CG         4.0080  -12.2030    0.5990 C.3   111  LYS111      0.0038
     82  CD         4.2180  -11.1430   -0.4520 C.3   111  LYS111      0.0206
     83  CE         3.9350  -11.6790   -1.8430 C.3   111  LYS111      0.1093
     84  NZ         4.9410  -11.1710   -2.8700 N.3   111  LYS111     -0.1314
     85  N          5.5040  -10.5250    5.1040 N.am  112  PHE112     -0.1974
     86  CA         6.3050  -10.5530    6.3320 C.3   112  PHE112      0.1639
     87  C          5.4060  -10.8910    7.5410 C.2   112  PHE112      0.2290
     88  O          5.6620  -11.8520    8.2770 O.2   112  PHE112     -0.2864
     89  CB         6.9880   -9.1860    6.4970 C.3   112  PHE112      0.0560
     90  CG         7.9410   -9.1050    7.6490 C.ar  112  PHE112     -0.0200
     91  CD1        9.0600   -9.9120    7.7100 C.ar  112  PHE112     -0.0042
     92  CD2        7.6800   -8.2520    8.6920 C.ar  112  PHE112     -0.0042
     93  CE1        9.9610   -9.8220    8.7750 C.ar  112  PHE112     -0.0003
     94  CE2        8.5320   -8.1420    9.7570 C.ar  112  PHE112     -0.0003
     95  CZ         9.6890   -8.9480    9.8260 C.ar  112  PHE112     -0.0000
     96  N          2.1790  -12.5430    8.6720 N.3   114  ILE114     -0.1245
     97  CA         1.1060  -13.4430    8.1790 C.3   114  ILE114      0.1561
     98  C         -0.0730  -13.5040    9.1430 C.2   114  ILE114      0.2260
     99  O          0.0680  -13.1890   10.3250 O.2   114  ILE114     -0.2867
    100  CB         1.5470  -14.9160    7.7950 C.3   114  ILE114      0.0252
    101  CG1        3.0390  -15.1720    8.0090 C.3   114  ILE114      0.0019
    102  CG2        1.0460  -15.2790    6.3540 C.3   114  ILE114      0.0019
    103  CD1        3.4070  -16.6810    8.0520 C.3   114  ILE114      0.0001
    104  N          2.8550  -11.9520   16.4840 N.3   119  TRP119     -0.1241
    105  CA         4.0660  -11.1740   16.8100 C.3   119  TRP119      0.1605
    106  C          4.0250   -9.9900   15.9310 C.2   119  TRP119      0.2264
    107  O          3.5660  -10.0690   14.7610 O.2   119  TRP119     -0.2867
    108  CB         5.4430  -11.9190   16.6140 C.3   119  TRP119      0.0550
    109  CG         5.6150  -12.7020   15.3520 C.ar  119  TRP119      0.0003
    110  CD1        5.3010  -14.0210   15.1720 C.ar  119  TRP119      0.0946
    111  CD2        6.1150  -12.2370   14.0850 C.ar  119  TRP119      0.0152
    112  NE1        5.5500  -14.3950   13.8590 N.ar  119  TRP119     -0.2442
    113  CE2        6.0610  -13.3230   13.1840 C.ar  119  TRP119      0.0810
    114  CE3        6.6280  -11.0200   13.6340 C.ar  119  TRP119      0.0012
    115  CZ2        6.4960  -13.2200   11.8470 C.ar  119  TRP119      0.0191
    116  CZ3        7.0100  -10.9080   12.3110 C.ar  119  TRP119      0.0001
    117  CH2        6.9570  -12.0120   11.4340 C.ar  119  TRP119      0.0015
    118  N         10.4740   -8.2690   15.1180 N.3   122  ILE122     -0.1301
    119  CA        11.5900   -9.2530   15.1010 C.3   122  ILE122      0.1246
    120  C         12.7580   -8.7330   15.9230 C.3   122  ILE122      0.2009
    121  O         13.1490   -7.5070   15.8590 O.3   122  ILE122     -0.2188
    122  CB        11.9500   -9.6570   13.6590 C.3   122  ILE122      0.0202
    123  CG1       12.9960  -10.7880   13.6240 C.3   122  ILE122      0.0015
    124  CG2       12.3120   -8.4320   12.7870 C.3   122  ILE122      0.0016
    125  CD1       13.3130  -11.2000   12.1290 C.3   122  ILE122      0.0000
    126  N         19.6380  -20.9770   13.5790 N.3   222  ASP222     -0.1239
    127  CA        18.5690  -19.9740   13.2580 C.3   222  ASP222      0.1674
    128  C         17.1760  -20.3050   13.7880 C.2   222  ASP222      0.2266
    129  O         16.4060  -21.0890   13.1980 O.2   222  ASP222     -0.2867
    130  CB        18.4830  -19.7830   11.7430 C.3   222  ASP222      0.1410
    131  CG        17.5750  -18.6390   11.3700 C.2   222  ASP222      0.3668
    132  OD1       17.1620  -17.9340   12.2580 O.co2 222  ASP222     -0.2456
    133  OD2       17.2370  -18.4910   10.1800 O.co2 222  ASP222     -0.2456
    134  N         14.7610  -18.3120   13.6780 N.3   224  GLY224     -0.1210
    135  CA        13.7840  -17.7470   12.7630 C.3   224  GLY224      0.1956
    136  C         13.5050  -18.5640   11.5140 C.2   224  GLY224      0.2613
    137  O         12.7610  -18.1360   10.6350 O.2   224  GLY224     -0.2717
    138  N         14.0680  -19.7640   11.4280 N.am  225  THR225     -0.1938
    139  CA        13.7400  -20.6670   10.3210 C.3   225  THR225      0.2028
    140  C         13.0320  -21.8890   10.9560 C.2   225  THR225      0.2643
    141  O         13.4010  -22.3280   12.0600 O.2   225  THR225     -0.2714
    142  CB        15.0230  -21.0880    9.5930 C.3   225  THR225      0.1808
    143  OG1       15.5480  -19.9870    8.8370 O.3   225  THR225     -0.2208
    144  CG2       14.8720  -22.3180    8.7420 C.3   225  THR225      0.0379
    145  N         11.9740  -22.3670   10.3210 N.am  226  THR226     -0.1936
    146  CA        11.3170  -23.5670   10.8310 C.3   226  THR226      0.2028
    147  C         12.0950  -24.8790   10.5650 C.2   226  THR226      0.2642
    148  O         12.3170  -25.6810   11.4630 O.2   226  THR226     -0.2714
    149  CB         9.9120  -23.6730   10.2760 C.3   226  THR226      0.1808
    150  OG1        9.1520  -22.5090   10.6390 O.3   226  THR226     -0.2208
    151  CG2        9.2010  -24.9630   10.7850 C.3   226  THR226      0.0379
    152  N         12.4270  -25.1530    9.3010 N.am  227  ASN227     -0.1971
    153  CA        12.9910  -26.4730    8.9430 C.3   227  ASN227      0.1688
    154  C         14.4620  -26.6820    9.3470 C.2   227  ASN227      0.2292
    155  O         15.1850  -25.7310    9.6720 O.2   227  ASN227     -0.2864
    156  CB        12.9380  -26.6200    7.4180 C.3   227  ASN227      0.1181
    157  CG        11.4840  -26.8120    6.8730 C.2   227  ASN227      0.2629
    158  OD1       10.5630  -26.8550    7.6140 O.2   227  ASN227     -0.2716
    159  ND2       11.3170  -26.9700    5.5410 N.am  227  ASN227     -0.0877
    160  N         17.3930  -27.1340    7.1430 N.3   229  ARG229     -0.1245
    161  CA        17.5850  -26.8700    5.7130 C.3   229  ARG229      0.1563
    162  C         18.9980  -27.3300    5.3010 C.2   229  ARG229      0.2260
    163  O         19.9620  -27.1190    6.0110 O.2   229  ARG229     -0.2867
    164  CB        17.3640  -25.3500    5.4140 C.3   229  ARG229      0.0307
    165  CG        15.9780  -24.7940    5.8630 C.3   229  ARG229      0.0489
    166  CD        15.8270  -23.3120    5.4680 C.3   229  ARG229      0.2205
    167  NE        15.7390  -23.2410    4.0220 N.pl3 229  ARG229     -0.0865
    168  CZ        16.5660  -22.5800    3.2070 C.cat 229  ARG229      0.5346
    169  NH1       16.3880  -22.6170    1.8840 N.pl3 229  ARG229      0.1354
    170  NH2       17.5510  -21.8550    3.6810 N.pl3 229  ARG229      0.1354
@<TRIPOS>BOND
     1    84    83    1
     2    83    82    1
     3    75    73   ar
     4    37    36    2
     5    47    46    1
     6    47    50    1
     7    47    48    1
     8    82    81    1
     9    66    65    1
    10    66    67    1
    11    73    74   ar
    12    73    72    1
    13    50    51    1
    14    65    64    1
    15    48    55   am
    16    48    49    2
    17    55    56    1
    18    36    35    1
    19    72    69    1
    20    81    80    1
    21    56    57    1
    22    58    57    2
    23    64    63    1
    24    57    59   am
    25    63    60    1
    26    34    35    1
    27    51    52    1
    28    35    38    1
    29    80    77    1
    30    69    70    1
    31    69    68    1
    32    54    52   am
    33   169   168    1
    34    59    60    1
    35    52    53    2
    36    70    71    2
    37    70    76   am
    38    60    61    1
    39    76    77    1
    40    38    39    1
    41    77    78    1
    42   168   170    1
    43   168   167    2
    44    61    62    2
    45   167   166    1
    46    78    79    2
    47    78    85   am
    48    39    41   ar
    49    39    40   ar
    50    41    43   ar
    51    40    42   ar
    52    85    86    1
    53   162   161    1
    54   162   163    2
    55   164   161    1
    56   164   165    1
    57   166   165    1
    58   159   157   am
    59   161   160    1
    60    43    44   ar
    61    86    89    1
    62    86    87    1
    63   102   100    1
    64    42    44   ar
    65    89    90    1
    66   157   156    1
    67   157   158    2
    68    44    45    1
    69   156   153    1
    70    87    88    2
    71    90    91   ar
    72    90    92   ar
    73    91    93   ar
    74   100   101    1
    75   100    97    1
    76   101   103    1
    77    97    96    1
    78    97    98    1
    79    92    94   ar
    80   144   142    1
    81    93    95   ar
    82   143   142    1
    83   153   152    1
    84   153   154    1
    85    98    99    2
    86   152   147   am
    87   154   155    2
    88   142   139    1
    89    94    95   ar
    90    13    11   am
    91   133   131   ar
    92   149   150    1
    93   149   151    1
    94   149   146    1
    95   145   146    1
    96   145   140   am
    97   139   140    1
    98   139   138    1
    99   147   146    1
   100   147   148    2
   101     4     3    2
   102   137   136    2
   103   140   141    2
   104   131   130    1
   105   131   132   ar
   106    11    10    1
   107    11    12    2
   108   138   136   am
   109   117   115   ar
   110   117   116   ar
   111   136   135    1
   112    10     9    1
   113     3     2    1
   114     3     5   am
   115   130   127    1
   116   115   113   ar
   117    32    31   ar
   118     2     1    1
   119   125   123    1
   120   116   114   ar
   121     9     6    1
   122     6     5    1
   123     6     7    1
   124   135   134    1
   125    33    31   ar
   126   124   122    1
   127    31    30    1
   128   113   112   ar
   129   113   111   ar
   130   129   128    2
   131   127   126    1
   132   127   128    1
   133   123   122    1
   134   114   111   ar
   135   122   119    1
   136    25    23    1
   137   112   110   ar
   138     7     8    2
   139     7    14   am
   140   111   109   ar
   141    30    27    1
   142    14    15    1
   143   107   106    2
   144   119   118    1
   145   119   120    1
   146   110   109   ar
   147    23    24    1
   148    23    22    1
   149   109   108    1
   150    15    16    1
   151    27    28    1
   152    27    26    1
   153    28    29    2
   154    22    19    1
   155   121   120    1
   156   106   105    1
   157   104   105    1
   158   108   105    1
   159    16    17    2
   160    19    20    1
   161    19    18    1
   162    21    20    2
