@<TRIPOS>MOLECULE
tmp/4i0kA00.pdb
 94 88 0 0 0
SMALL
GASTEIGER

@<TRIPOS>ATOM
      1  N        -20.5010   34.5030    3.7550 N.3    10  THR10      -0.1203
      2  CA       -19.1620   34.1520    3.3240 C.3    10  THR10       0.1994
      3  C        -19.0990   34.0670    1.8120 C.2    10  THR10       0.2618
      4  O        -20.0870   34.2830    1.1170 O.2    10  THR10      -0.2717
      5  CB       -18.6970   32.8340    3.9370 C.3    10  THR10       0.1784
      6  OG1      -19.3470   31.7400    3.2860 O.3    10  THR10      -0.2211
      7  CG2      -19.0220   32.8250    5.3850 C.3    10  THR10       0.0376
      8  N        -17.9040   33.7970    1.3170 N.am   11  ASP11      -0.1959
      9  CA       -17.6530   33.7370   -0.1030 C.3    11  ASP11       0.1840
     10  C        -17.5050   32.2790   -0.4560 C.2    11  ASP11       0.2622
     11  O        -17.0290   31.4490    0.3420 O.2    11  ASP11      -0.2715
     12  CB       -16.3860   34.5020   -0.4750 C.3    11  ASP11       0.1450
     13  CG       -16.4450   35.9720   -0.0810 C.2    11  ASP11       0.3671
     14  OD1      -17.5410   36.4840    0.2140 O.co2  11  ASP11      -0.2456
     15  OD2      -15.3850   36.6230   -0.0640 O.co2  11  ASP11      -0.2456
     16  N        -17.9380   31.9790   -1.6630 N.am   12  ALA12      -0.1963
     17  CA       -17.9460   30.6330   -2.1530 C.3    12  ALA12       0.1728
     18  C        -17.4610   30.5910   -3.5860 C.2    12  ALA12       0.2616
     19  O        -17.5040   31.5970   -4.3170 O.2    12  ALA12      -0.2715
     20  CB       -19.3600   30.0870   -2.0770 C.3    12  ALA12       0.0334
     21  N        -17.0480   29.3960   -3.9840 N.am   13  THR13      -0.1951
     22  CA       -16.4970   29.1610   -5.3020 C.3    13  THR13       0.1897
     23  C        -17.3020   28.0710   -6.0040 C.2    13  THR13       0.2313
     24  O        -17.3770   26.9570   -5.5290 O.2    13  THR13      -0.2863
     25  CB       -15.0150   28.7240   -5.2090 C.3    13  THR13       0.1794
     26  OG1      -14.2320   29.7980   -4.6890 O.3    13  THR13      -0.2208
     27  CG2      -14.4630   28.3810   -6.5660 C.3    13  THR13       0.0378
     28  N        -17.3060   25.6260   -9.0840 N.3    15  ARG15      -0.1231
     29  CA       -16.3150   25.0820  -10.0010 C.3    15  ARG15       0.1694
     30  C        -16.7960   24.9450  -11.4030 C.2    15  ARG15       0.2592
     31  O        -17.9410   24.6150  -11.6540 O.2    15  ARG15      -0.2718
     32  CB       -15.8180   23.7340   -9.5440 C.3    15  ARG15       0.0321
     33  CG       -15.2940   23.8220   -8.1290 C.3    15  ARG15       0.0489
     34  CD       -14.1000   22.9270   -7.8640 C.3    15  ARG15       0.2205
     35  NE       -13.3940   23.4250   -6.6880 N.pl3  15  ARG15      -0.0865
     36  CZ       -12.3680   22.8150   -6.1070 C.cat  15  ARG15       0.5346
     37  NH1      -11.9090   21.6590   -6.5830 N.pl3  15  ARG15       0.1354
     38  NH2      -11.8000   23.3690   -5.0390 N.pl3  15  ARG15       0.1354
     39  N        -15.8770   25.2100  -12.3140 N.am   16  CYS16      -0.1956
     40  CA       -16.0500   24.8990  -13.7160 C.3    16  CYS16       0.1843
     41  C        -14.6680   24.7000  -14.2940 C.2    16  CYS16       0.2626
     42  O        -13.6880   25.1870  -13.7550 O.2    16  CYS16      -0.2714
     43  CB       -16.7710   26.0200  -14.4310 C.3    16  CYS16       0.0997
     44  SG       -17.4040   25.5540  -16.0450 S.3    16  CYS16      -0.0797
     45  N        -14.6020   23.9760  -15.3960 N.am   17  SER17      -0.1950
     46  CA       -13.3500   23.4450  -15.8780 C.3    17  SER17       0.1924
     47  C        -13.3780   23.2570  -17.3690 C.2    17  SER17       0.2314
     48  O        -14.4180   22.9680  -17.9440 O.2    17  SER17      -0.2863
     49  CB       -13.1180   22.1040  -15.2360 C.3    17  SER17       0.2116
     50  OG       -11.8000   22.0460  -14.7600 O.3    17  SER17      -0.2180
     51  N        -11.4120   34.0210  -12.0220 N.3    62  PHE62      -0.1241
     52  CA       -10.0090   34.0150  -11.6440 C.3    62  PHE62       0.1605
     53  C         -9.2330   34.2750  -12.9160 C.2    62  PHE62       0.2264
     54  O         -8.6220   33.3540  -13.4750 O.2    62  PHE62      -0.2867
     55  CB        -9.6260   32.6690  -11.0680 C.3    62  PHE62       0.0534
     56  CG       -10.3570   32.3370   -9.8050 C.ar   62  PHE62      -0.0203
     57  CD1      -11.6680   31.9160   -9.8430 C.ar   62  PHE62      -0.0042
     58  CD2       -9.7380   32.4670   -8.5750 C.ar   62  PHE62      -0.0042
     59  CE1      -12.3410   31.6240   -8.6820 C.ar   62  PHE62      -0.0003
     60  CE2      -10.4070   32.1820   -7.4150 C.ar   62  PHE62      -0.0003
     61  CZ       -11.7070   31.7560   -7.4660 C.ar   62  PHE62      -0.0000
     62  N         -6.3980   32.6570  -14.1770 N.3    65  LEU65      -0.1245
     63  CA        -6.4820   31.2060  -14.2190 C.3    65  LEU65       0.1561
     64  C         -7.2600   30.6300  -15.4200 C.2    65  LEU65       0.2260
     65  O         -7.1030   29.4740  -15.7450 O.2    65  LEU65      -0.2867
     66  CB        -7.0800   30.7310  -12.9070 C.3    65  LEU65       0.0270
     67  CG        -6.0950   30.5430  -11.7650 C.3    65  LEU65       0.0019
     68  CD1       -6.8360   30.5290  -10.4530 C.3    65  LEU65       0.0001
     69  CD2       -5.4080   29.2060  -11.9490 C.3    65  LEU65       0.0001
     70  N         -9.5610   27.0520  -15.9040 N.3    70  ASN70      -0.1240
     71  CA       -10.3640   27.1880  -14.7030 C.3    70  ASN70       0.1653
     72  C        -11.4210   28.2540  -14.8640 C.2    70  ASN70       0.2266
     73  O        -11.0910   29.4360  -14.8080 O.2    70  ASN70      -0.2867
     74  CB        -9.4800   27.5870  -13.5510 C.3    70  ASN70       0.1155
     75  CG       -10.1970   27.5210  -12.2460 C.2    70  ASN70       0.2627
     76  OD1      -11.3390   27.9410  -12.1340 O.2    70  ASN70      -0.2716
     77  ND2       -9.5350   26.9740  -11.2520 N.am   70  ASN70      -0.0877
     78  N        -14.0980   28.5560  -12.9110 N.3    72  SER72      -0.1217
     79  CA       -14.8070   28.6600  -11.6610 C.3    72  SER72       0.1889
     80  C        -15.1600   30.1020  -11.3800 C.2    72  SER72       0.2288
     81  O        -14.4230   30.9940  -11.7590 O.2    72  SER72      -0.2866
     82  CB       -13.9600   28.1250  -10.5330 C.3    72  SER72       0.2089
     83  OG       -13.4700   26.8300  -10.8370 O.3    72  SER72      -0.2183
     84  N        -16.4950   33.0500   -8.4260 N.3    74  ARG74      -0.1245
     85  CA       -16.3990   33.3570   -6.9960 C.3    74  ARG74       0.1563
     86  C        -17.5910   34.1820   -6.6550 C.2    74  ARG74       0.2260
     87  O        -17.8160   35.2230   -7.2760 O.2    74  ARG74      -0.2867
     88  CB       -15.1260   34.1390   -6.6370 C.3    74  ARG74       0.0307
     89  CG       -14.9570   34.4680   -5.1500 C.3    74  ARG74       0.0489
     90  CD       -14.6140   33.2310   -4.3220 C.3    74  ARG74       0.2205
     91  NE       -14.0520   33.5520   -3.0100 N.pl3  74  ARG74      -0.0865
     92  CZ       -13.8610   32.6620   -2.0340 C.cat  74  ARG74       0.5346
     93  NH1      -14.1980   31.3840   -2.1860 N.pl3  74  ARG74       0.1354
     94  NH2      -13.3290   33.0550   -0.8840 N.pl3  74  ARG74       0.1354
@<TRIPOS>BOND
     1    48    47    2
     2    47    46    1
     3    44    43    1
     4    70    71    1
     5    46    45    1
     6    46    49    1
     7    65    64    2
     8    64    63    1
     9    45    41   am
    10    49    50    1
    11    72    73    2
    12    72    71    1
    13    71    74    1
    14    43    40    1
    15    41    42    2
    16    41    40    1
    17    63    62    1
    18    63    66    1
    19    40    39    1
    20    74    75    1
    21    54    53    2
    22    53    52    1
    23    78    79    1
    24    66    67    1
    25    39    30   am
    26    75    76    2
    27    75    77   am
    28    51    52    1
    29    69    67    1
    30    67    68    1
    31    81    80    2
    32    79    80    1
    33    79    82    1
    34    31    30    2
    35    52    55    1
    36    30    29    1
    37    55    56    1
    38    83    82    1
    39    29    32    1
    40    29    28    1
    41    57    56   ar
    42    57    59   ar
    43    56    58   ar
    44    32    33    1
    45    59    61   ar
    46    58    60   ar
    47    84    85    1
    48    33    34    1
    49    34    35    1
    50    61    60   ar
    51    87    86    2
    52    85    86    1
    53    85    88    1
    54    35    36    2
    55    88    89    1
    56    37    36    1
    57    27    25    1
    58    36    38    1
    59    23    24    2
    60    23    22    1
    61    22    25    1
    62    22    21    1
    63    25    26    1
    64    89    90    1
    65    90    91    1
    66    19    18    2
    67    21    18   am
    68    18    17    1
    69    91    92    2
    70    93    92    1
    71    17    20    1
    72    17    16    1
    73    92    94    1
    74    16    10   am
    75    12     9    1
    76    12    13    1
    77    10     9    1
    78    10    11    2
    79     9     8    1
    80    13    15   ar
    81    13    14   ar
    82     4     3    2
    83     8     3   am
    84     3     2    1
    85     6     5    1
    86     2     1    1
    87     2     5    1
    88     5     7    1
