@<TRIPOS>MOLECULE
tmp/4i0rA00.pdb
 157 147 0 0 0
SMALL
GASTEIGER

@<TRIPOS>ATOM
      1  N         -1.3890   -3.2510    8.5260 N.3    14  LEU14      -0.1231
      2  CA        -1.8740   -2.5290    9.7080 C.3    14  LEU14       0.1693
      3  C         -2.5080   -1.1770    9.3360 C.2    14  LEU14       0.2592
      4  O         -3.6070   -0.8480    9.7970 O.2    14  LEU14      -0.2718
      5  CB        -0.7410   -2.3170   10.7270 C.3    14  LEU14       0.0284
      6  CG         0.0260   -3.5280   11.2740 C.3    14  LEU14       0.0019
      7  CD1        1.3770   -3.1080   11.8330 C.3    14  LEU14       0.0001
      8  CD2       -0.7810   -4.2750   12.3180 C.3    14  LEU14       0.0001
      9  N         -1.8070   -0.4040    8.5040 N.am   15  GLY15      -0.1957
     10  CA        -2.2960    0.8900    8.0370 C.3    15  GLY15       0.1869
     11  C         -1.7880    1.2730    6.6580 C.2    15  GLY15       0.2309
     12  O         -0.9110    0.6070    6.0920 O.2    15  GLY15      -0.2863
     13  N          2.2570    0.3330    6.6600 N.3    19  VAL19      -0.1245
     14  CA         2.8660   -0.3520    7.8040 C.3    19  VAL19       0.1561
     15  C          2.3160   -1.7710    7.9200 C.2    19  VAL19       0.2260
     16  O          1.1010   -1.9790    7.9400 O.2    19  VAL19      -0.2867
     17  CB         2.7390    0.4490    9.1420 C.3    19  VAL19       0.0252
     18  CG1        1.2770    0.6910    9.5320 C.3    19  VAL19       0.0019
     19  CG2        3.5030   -0.2470   10.2770 C.3    19  VAL19       0.0019
     20  N          7.0780   -4.3630   13.5120 N.3    34  ALA34      -0.1245
     21  CA         6.2910   -3.5460   12.6080 C.3    34  ALA34       0.1562
     22  C          7.2380   -3.0270   11.5300 C.2    34  ALA34       0.2260
     23  O          8.3550   -2.6000   11.8350 O.2    34  ALA34      -0.2867
     24  CB         5.6360   -2.3890   13.3560 C.3    34  ALA34       0.0290
     25  N          7.6280   -0.3950    8.3640 N.3    36  LYS36      -0.1245
     26  CA         7.1680    0.7100    7.5410 C.3    36  LYS36       0.1561
     27  C          7.7670    0.5670    6.1270 C.2    36  LYS36       0.2260
     28  O          8.9880    0.5390    5.9690 O.2    36  LYS36      -0.2867
     29  CB         7.5510    2.0450    8.1860 C.3    36  LYS36       0.0271
     30  CG         7.1910    3.2690    7.3620 C.3    36  LYS36       0.0035
     31  CD         7.7170    4.5330    8.0090 C.3    36  LYS36       0.0206
     32  CE         7.4890    5.7460    7.1280 C.3    36  LYS36       0.1093
     33  NZ         7.6170    7.0110    7.9030 N.3    36  LYS36      -0.1314
     34  N         14.7120    9.3140    9.5270 N.3    49  GLU49      -0.1245
     35  CA        13.8880    8.7030   10.5660 C.3    49  GLU49       0.1567
     36  C         14.6900    7.6560   11.3260 C.2    49  GLU49       0.2260
     37  O         14.7570    7.6840   12.5500 O.2    49  GLU49      -0.2867
     38  CB        12.6450    8.0650    9.9390 C.3    49  GLU49       0.0388
     39  CG        11.5180    7.7320   10.9210 C.3    49  GLU49       0.1160
     40  CD        10.2320    7.2990   10.2210 C.2    49  GLU49       0.3649
     41  OE1       10.1740    7.3570    8.9760 O.co2  49  GLU49      -0.2457
     42  OE2        9.2690    6.9050   10.9120 O.co2  49  GLU49      -0.2457
     43  N          9.5170    3.9040   20.8960 N.3    62  VAL62      -0.1245
     44  CA         9.6060    2.7450   19.9970 C.3    62  VAL62       0.1561
     45  C         11.0720    2.5400   19.5390 C.2    62  VAL62       0.2260
     46  O         11.7570    3.4970   19.1950 O.2    62  VAL62      -0.2867
     47  CB         8.6790    2.9020   18.7550 C.3    62  VAL62       0.0252
     48  CG1        8.9830    1.8350   17.6920 C.3    62  VAL62       0.0019
     49  CG2        7.2040    2.8640   19.1720 C.3    62  VAL62       0.0019
     50  N         10.9110   -1.9350   13.0400 N.3    77  MET77      -0.1230
     51  CA        10.8590   -1.5140   14.4420 C.3    77  MET77       0.1702
     52  C         10.1440   -2.5590   15.3050 C.2    77  MET77       0.2592
     53  O          9.4180   -3.4120   14.7760 O.2    77  MET77      -0.2718
     54  CB        10.1050   -0.1890   14.5570 C.3    77  MET77       0.0401
     55  CG        10.7220    0.9640   13.7750 C.3    77  MET77       0.0596
     56  SD         9.4780    2.1940   13.3490 S.3    77  MET77      -0.1393
     57  CE         8.4900    1.2640   12.1690 C.3    77  MET77       0.0692
     58  N         10.3410   -2.4730   16.6260 N.am   78  GLU78      -0.1966
     59  CA         9.5830   -3.2900   17.5780 C.3    78  GLU78       0.1733
     60  C          8.0880   -3.0920   17.3840 C.2    78  GLU78       0.2616
     61  O          7.6390   -2.0010   17.0140 O.2    78  GLU78      -0.2715
     62  CB         9.9800   -3.0010   19.0340 C.3    78  GLU78       0.0429
     63  CG         9.7140   -1.5830   19.5100 C.3    78  GLU78       0.1163
     64  CD         9.9180   -1.4170   21.0080 C.2    78  GLU78       0.3649
     65  OE1        9.3690   -2.2320   21.7870 O.co2  78  GLU78      -0.2457
     66  OE2       10.6170   -0.4660   21.4060 O.co2  78  GLU78      -0.2457
     67  N          7.3370   -4.1640   17.6150 N.am   79  MET79      -0.1963
     68  CA         5.8940   -4.1780   17.4300 C.3    79  MET79       0.1736
     69  C          5.1780   -3.7560   18.7180 C.2    79  MET79       0.2616
     70  O          5.5970   -4.1090   19.8220 O.2    79  MET79      -0.2715
     71  CB         5.4400   -5.5640   16.9540 C.3    79  MET79       0.0427
     72  CG         3.9330   -5.8000   16.8930 C.3    79  MET79       0.0599
     73  SD         3.0660   -4.8890   15.5900 S.3    79  MET79      -0.1393
     74  CE         1.4120   -5.5590   15.7380 C.3    79  MET79       0.0692
     75  N          4.1240   -2.9600   18.5550 N.am   80  ALA80      -0.1963
     76  CA         3.2380   -2.5760   19.6520 C.3    80  ALA80       0.1728
     77  C          1.8790   -3.1790   19.3520 C.2    80  ALA80       0.2616
     78  O          1.1030   -2.6350   18.5690 O.2    80  ALA80      -0.2715
     79  CB         3.1560   -1.0590   19.7620 C.3    80  ALA80       0.0334
     80  N          1.5950   -4.3110   19.9830 N.am   81  GLU81      -0.1963
     81  CA         0.4700   -5.1650   19.5940 C.3    81  GLU81       0.1733
     82  C         -0.9090   -4.5220   19.7110 C.2    81  GLU81       0.2616
     83  O         -1.8060   -4.8440   18.9310 O.2    81  GLU81      -0.2715
     84  CB         0.5140   -6.4780   20.3810 C.3    81  GLU81       0.0429
     85  CG         1.7620   -7.3100   20.1060 C.3    81  GLU81       0.1163
     86  CD         1.7310   -8.0410   18.7640 C.2    81  GLU81       0.3649
     87  OE1        2.7600   -8.6500   18.4090 O.co2  81  GLU81      -0.2457
     88  OE2        0.6840   -8.0310   18.0750 O.co2  81  GLU81      -0.2457
     89  N         -1.0760   -3.6100   20.6680 N.am   82  LEU82      -0.1963
     90  CA        -2.3730   -2.9930   20.9080 C.3    82  LEU82       0.1728
     91  C         -2.5700   -1.7310   20.0730 C.2    82  LEU82       0.2617
     92  O         -3.6620   -1.1570   20.0300 O.2    82  LEU82      -0.2715
     93  CB        -2.5680   -2.7200   22.4090 C.3    82  LEU82       0.0311
     94  CG        -3.0960   -3.8700   23.2820 C.3    82  LEU82       0.0022
     95  CD1       -2.3350   -5.1790   23.1140 C.3    82  LEU82       0.0001
     96  CD2       -3.1150   -3.4790   24.7570 C.3    82  LEU82       0.0001
     97  N         -1.4980   -1.2960   19.4200 N.am   83  GLY83      -0.1941
     98  CA        -1.5670   -0.2080   18.4650 C.3    83  GLY83       0.1998
     99  C         -1.7800    1.1780   19.0340 C.2    83  GLY83       0.2480
    100  O         -1.5850    1.4090   20.2410 O.2    83  GLY83      -0.2729
    101  N         -2.1790    2.1160   18.1510 N.am   84  PRO84      -0.2726
    102  CA        -2.3800    3.5300   18.4450 C.3    84  PRO84       0.1402
    103  C         -3.3480    3.7490   19.6110 C.2    84  PRO84       0.2269
    104  O         -4.4380    3.1540   19.6560 O.2    84  PRO84      -0.2865
    105  CB        -2.9670    4.0810   17.1480 C.3    84  PRO84       0.0296
    106  CG        -2.4490    3.1760   16.0940 C.3    84  PRO84       0.0237
    107  CD        -2.4450    1.8160   16.7350 C.3    84  PRO84       0.0939
    108  N         -7.1140    4.9090   18.7940 N.3    87  LYS87      -0.1245
    109  CA        -7.9450    3.7880   18.3610 C.3    87  LYS87       0.1561
    110  C         -8.2610    2.8830   19.5440 C.2    87  LYS87       0.2260
    111  O         -9.3920    2.4340   19.6810 O.2    87  LYS87      -0.2867
    112  CB        -7.2800    2.9600   17.2570 C.3    87  LYS87       0.0271
    113  CG        -7.0390    3.7040   15.9180 C.3    87  LYS87       0.0035
    114  CD        -8.3060    4.3600   15.3960 C.3    87  LYS87       0.0206
    115  CE        -8.0180    5.2510   14.2040 C.3    87  LYS87       0.1093
    116  NZ        -9.2920    5.6570   13.5290 N.3    87  LYS87      -0.1314
    117  N         -2.3980    9.3400   18.0830 N.3   127  ARG127     -0.1231
    118  CA        -2.2240    8.3400   17.0220 C.3   127  ARG127      0.1694
    119  C         -0.7950    7.7930   17.0000 C.2   127  ARG127      0.2592
    120  O         -0.5590    6.7000   16.4930 O.2   127  ARG127     -0.2718
    121  CB        -2.5750    8.9240   15.6400 C.3   127  ARG127      0.0321
    122  CG        -1.6530   10.0780   15.1980 C.3   127  ARG127      0.0489
    123  CD        -1.9930   10.6500   13.7980 C.3   127  ARG127      0.2205
    124  NE        -1.2280   11.8790   13.5680 N.pl3 127  ARG127     -0.0865
    125  CZ        -1.6180   13.0960   13.9480 C.cat 127  ARG127      0.5346
    126  NH1       -2.7830   13.2750   14.5620 N.pl3 127  ARG127      0.1354
    127  NH2       -0.8470   14.1420   13.7150 N.pl3 127  ARG127      0.1354
    128  N          0.1500    8.5640   17.5350 N.am  128  ASN128     -0.1974
    129  CA         1.5610    8.1720   17.5200 C.3   128  ASN128      0.1688
    130  C          2.0630    7.6650   18.8510 C.2   128  ASN128      0.2292
    131  O          3.2670    7.4970   19.0460 O.2   128  ASN128     -0.2864
    132  CB         2.4420    9.3120   16.9910 C.3   128  ASN128      0.1181
    133  CG         2.2060    9.5780   15.5110 C.2   128  ASN128      0.2629
    134  OD1        1.9910    8.6430   14.7390 O.2   128  ASN128     -0.2716
    135  ND2        2.2510   10.8480   15.1100 N.am  128  ASN128     -0.0877
    136  N          1.8060    4.3220   20.9750 N.3   130  LEU130     -0.1245
    137  CA         1.4520    2.9500   20.6600 C.3   130  LEU130      0.1561
    138  C          1.4720    2.1230   21.9300 C.2   130  LEU130      0.2260
    139  O          2.3000    2.3330   22.8140 O.2   130  LEU130     -0.2867
    140  CB         2.4160    2.3660   19.6200 C.3   130  LEU130      0.0270
    141  CG         2.5920    3.0780   18.2780 C.3   130  LEU130      0.0019
    142  CD1        3.5750    2.2880   17.4930 C.3   130  LEU130      0.0001
    143  CD2        1.2960    3.2000   17.4990 C.3   130  LEU130      0.0001
    144  N          5.9920    6.7780   19.0640 N.3   140  SER140     -0.1202
    145  CA         6.4530    6.4120   17.7390 C.3   140  SER140      0.2020
    146  C          6.4550    7.5890   16.7620 C.2   140  SER140      0.2618
    147  O          6.1480    8.7300   17.1280 O.2   140  SER140     -0.2717
    148  CB         5.5810    5.2960   17.1680 C.3   140  SER140      0.2103
    149  OG         4.2620    5.7640   16.9250 O.3   140  SER140     -0.2182
    150  N          6.7870    7.2720   15.5140 N.am  141  ASP141     -0.1973
    151  CA         6.6800    8.1730   14.3730 C.3   141  ASP141      0.1709
    152  C          7.6220    9.3660   14.4420 C.2   141  ASP141      0.2293
    153  O          7.1990   10.5020   14.6990 O.2   141  ASP141     -0.2864
    154  CB         5.2350    8.6150   14.1310 C.3   141  ASP141      0.1436
    155  CG         5.0500    9.3050   12.7830 C.2   141  ASP141      0.3671
    156  OD1        3.8810    9.5960   12.4280 O.co2 141  ASP141     -0.2456
    157  OD2        6.0630    9.5690   12.0820 O.co2 141  ASP141     -0.2456
@<TRIPOS>BOND
     1    28    27    2
     2    12    11    2
     3    27    26    1
     4    11    10    1
     5    13    14    1
     6    32    33    1
     7    32    31    1
     8    30    31    1
     9    30    29    1
    10    26    29    1
    11    26    25    1
    12    14    15    1
    13    14    17    1
    14    15    16    2
    15    10     9    1
    16     9     3   am
    17     1     2    1
    18    41    40   ar
    19    17    18    1
    20    17    19    1
    21     3     2    1
    22     3     4    2
    23    34    35    1
    24     2     5    1
    25    38    35    1
    26    38    39    1
    27    40    42   ar
    28    40    39    1
    29    35    36    1
    30     5     6    1
    31     6     7    1
    32     6     8    1
    33    36    37    2
    34    22    23    2
    35    22    21    1
    36   157   155   ar
    37    57    56    1
    38   156   155   ar
    39    21    24    1
    40    21    20    1
    41   155   154    1
    42    50    51    1
    43    56    55    1
    44   116   115    1
    45   124   123    1
    46   124   125    2
    47   127   125    1
    48    55    54    1
    49   123   122    1
    50   125   126    1
    51   154   151    1
    52   115   114    1
    53   151   152    1
    54   151   150    1
    55    51    54    1
    56    51    52    1
    57   152   153    2
    58   134   133    2
    59    53    52    2
    60   135   133   am
    61   122   121    1
    62    52    58   am
    63   114   113    1
    64   133   132    1
    65   150   146   am
    66    73    74    1
    67    73    72    1
    68   121   118    1
    69   113   112    1
    70   106   107    1
    71   106   105    1
    72   120   119    2
    73    58    59    1
    74   107   101    1
    75   146   147    2
    76   146   145    1
    77    72    71    1
    78   149   148    1
    79    71    68    1
    80   132   129    1
    81   119   118    1
    82   119   128   am
    83    61    60    2
    84   118   117    1
    85   105   102    1
    86   148   145    1
    87   112   109    1
    88    60    59    1
    89    60    67   am
    90    68    67    1
    91    68    69    1
    92   142   141    1
    93   143   141    1
    94   129   128    1
    95   129   130    1
    96    59    62    1
    97    48    47    1
    98   145   144    1
    99    88    86   ar
   100   101   102    1
   101   101    99   am
   102   141   140    1
   103   109   108    1
   104   109   110    1
   105    87    86   ar
   106   102   103    1
   107    98    99    1
   108    98    97    1
   109    75    69   am
   110    75    76    1
   111    78    77    2
   112    69    70    2
   113    47    49    1
   114    47    44    1
   115    86    85    1
   116   130   131    2
   117    83    82    2
   118    62    63    1
   119    99   100    2
   120    46    45    2
   121    77    76    1
   122    77    80   am
   123    97    91   am
   124    63    64    1
   125    45    44    1
   126   110   111    2
   127    81    82    1
   128    81    80    1
   129    81    84    1
   130   103   104    2
   131   140   137    1
   132    76    79    1
   133    82    89   am
   134    44    43    1
   135    92    91    2
   136    91    90    1
   137    85    84    1
   138   137   136    1
   139   137   138    1
   140    89    90    1
   141    90    93    1
   142    64    66   ar
   143    64    65   ar
   144   138   139    2
   145    93    94    1
   146    95    94    1
   147    94    96    1
