@<TRIPOS>MOLECULE
tmp/4i0sA00.pdb
 158 149 0 0 0
SMALL
GASTEIGER

@<TRIPOS>ATOM
      1  N         -0.8100   -2.7560    8.2900 N.3    15  LEU15      -0.1231
      2  CA        -1.2700   -2.2880    9.5970 C.3    15  LEU15       0.1693
      3  C         -1.8110   -0.8570    9.5170 C.2    15  LEU15       0.2593
      4  O         -2.9100   -0.5750   10.0020 O.2    15  LEU15      -0.2718
      5  CB        -0.1410   -2.3640   10.6330 C.3    15  LEU15       0.0284
      6  CG         0.3880   -3.7360   11.0660 C.3    15  LEU15       0.0019
      7  CD1        1.7070   -3.5820   11.8050 C.3    15  LEU15       0.0001
      8  CD2       -0.6250   -4.4920   11.9240 C.3    15  LEU15       0.0001
      9  N         -1.0330    0.0330    8.9040 N.am   16  GLY16      -0.1942
     10  CA        -1.3750    1.4520    8.8070 C.3    16  GLY16       0.2014
     11  C         -0.2290    2.2640    8.2320 C.2    16  GLY16       0.2640
     12  O          0.8270    1.7160    7.9170 O.2    16  GLY16      -0.2714
     13  N         -0.4310    3.5710    8.0920 N.am   17  SER17      -0.1935
     14  CA         0.5930    4.4400    7.5120 C.3    17  SER17       0.2055
     15  C          0.8770    5.6720    8.3690 C.2    17  SER17       0.2643
     16  O         -0.0350    6.2520    8.9690 O.2    17  SER17      -0.2714
     17  CB         0.2190    4.8480    6.0800 C.3    17  SER17       0.2130
     18  OG        -1.0290    5.5160    6.0350 O.3    17  SER17      -0.2179
     19  N          2.1510    6.0520    8.4270 N.am   18  GLY18      -0.1954
     20  CA         2.5750    7.2430    9.1560 C.3    18  GLY18       0.1869
     21  C          2.7770    8.4230    8.2260 C.2    18  GLY18       0.2309
     22  O          2.1720    8.4840    7.1530 O.2    18  GLY18      -0.2863
     23  N          3.1530    0.7160    7.0780 N.3    23  VAL23      -0.1245
     24  CA         3.6970   -0.2250    8.0640 C.3    23  VAL23       0.1561
     25  C          3.0320   -1.6030    7.9910 C.2    23  VAL23       0.2260
     26  O          1.8070   -1.7120    7.9420 O.2    23  VAL23      -0.2867
     27  CB         3.6340    0.3500    9.5110 C.3    23  VAL23       0.0252
     28  CG1        4.2360   -0.6280   10.5150 C.3    23  VAL23       0.0019
     29  CG2        4.3660    1.6870    9.5870 C.3    23  VAL23       0.0019
     30  N          7.4250   -4.4390   13.4830 N.3    38  ALA38      -0.1245
     31  CA         6.6400   -3.6050   12.5840 C.3    38  ALA38       0.1562
     32  C          7.6080   -2.9920   11.5860 C.2    38  ALA38       0.2260
     33  O          8.6630   -2.4880   11.9720 O.2    38  ALA38      -0.2867
     34  CB         5.9040   -2.5200   13.3560 C.3    38  ALA38       0.0290
     35  N          8.2430   -0.4290    8.3050 N.3    40  LYS40      -0.1245
     36  CA         7.7910    0.6970    7.4990 C.3    40  LYS40       0.1561
     37  C          8.3930    0.5840    6.1010 C.2    40  LYS40       0.2260
     38  O          9.6110    0.5010    5.9530 O.2    40  LYS40      -0.2867
     39  CB         8.2020    2.0130    8.1550 C.3    40  LYS40       0.0271
     40  CG         7.3920    3.2170    7.7100 C.3    40  LYS40       0.0035
     41  CD         7.8670    4.4580    8.4360 C.3    40  LYS40       0.0206
     42  CE         6.7050    5.2240    9.0230 C.3    40  LYS40       0.1093
     43  NZ         7.1940    6.3600    9.8510 N.3    40  LYS40      -0.1314
     44  N          9.5280    3.7440   20.7760 N.3    65  VAL65      -0.1245
     45  CA         9.6840    2.6360   19.8380 C.3    65  VAL65       0.1561
     46  C         11.1420    2.5720   19.3470 C.2    65  VAL65       0.2260
     47  O         11.6600    3.5370   18.7750 O.2    65  VAL65      -0.2867
     48  CB         8.7070    2.7790   18.6400 C.3    65  VAL65       0.0252
     49  CG1        8.9910    1.7390   17.5530 C.3    65  VAL65       0.0019
     50  CG2        7.2500    2.6910   19.1160 C.3    65  VAL65       0.0019
     51  N         11.0970   -1.8850   13.0560 N.3    80  MET80      -0.1230
     52  CA        10.9040   -1.3660   14.4200 C.3    80  MET80       0.1702
     53  C         10.2560   -2.3950   15.3520 C.2    80  MET80       0.2592
     54  O          9.6830   -3.3910   14.8980 O.2    80  MET80      -0.2718
     55  CB        10.0180   -0.1150   14.3930 C.3    80  MET80       0.0401
     56  CG        10.5030    1.0290   13.5080 C.3    80  MET80       0.0596
     57  SD         9.1810    2.2390   13.2590 S.3    80  MET80      -0.1393
     58  CE         8.2220    1.4440   11.9670 C.3    80  MET80       0.0692
     59  N         10.3360   -2.1260   16.6570 N.am   81  GLU81      -0.1966
     60  CA         9.6010   -2.8850   17.6640 C.3    81  GLU81       0.1733
     61  C          8.1120   -2.9140   17.3520 C.2    81  GLU81       0.2616
     62  O          7.5440   -1.9060   16.9340 O.2    81  GLU81      -0.2715
     63  CB         9.7700   -2.2530   19.0510 C.3    81  GLU81       0.0429
     64  CG        11.1520   -2.3570   19.6610 C.3    81  GLU81       0.1163
     65  CD        11.1770   -1.8310   21.0900 C.2    81  GLU81       0.3649
     66  OE1       11.6050   -2.5860   21.9900 O.co2  81  GLU81      -0.2457
     67  OE2       10.7610   -0.6700   21.3150 O.co2  81  GLU81      -0.2457
     68  N          7.4890   -4.0640   17.5910 N.am   82  MET82      -0.1963
     69  CA         6.0520   -4.2340   17.4320 C.3    82  MET82       0.1736
     70  C          5.2910   -3.8620   18.7110 C.2    82  MET82       0.2616
     71  O          5.6510   -4.2860   19.8060 O.2    82  MET82      -0.2715
     72  CB         5.7330   -5.6800   17.0370 C.3    82  MET82       0.0427
     73  CG         4.2510   -6.0230   17.0110 C.3    82  MET82       0.0599
     74  SD         3.3160   -5.1270   15.7520 S.3    82  MET82      -0.1393
     75  CE         3.7670   -6.0000   14.2700 C.3    82  MET82       0.0692
     76  N          4.2450   -3.0560   18.5510 N.am   83  ALA83      -0.1963
     77  CA         3.3290   -2.7420   19.6360 C.3    83  ALA83       0.1728
     78  C          1.9520   -3.2310   19.1940 C.2    83  ALA83       0.2616
     79  O          1.2240   -2.5300   18.4840 O.2    83  ALA83      -0.2715
     80  CB         3.3360   -1.2390   19.9310 C.3    83  ALA83       0.0334
     81  N          1.6290   -4.4540   19.6070 N.am   84  GLU84      -0.1963
     82  CA         0.4750   -5.2080   19.1130 C.3    84  GLU84       0.1733
     83  C         -0.8950   -4.5430   19.2770 C.2    84  GLU84       0.2616
     84  O         -1.7650   -4.7140   18.4250 O.2    84  GLU84      -0.2715
     85  CB         0.4440   -6.5950   19.7640 C.3    84  GLU84       0.0429
     86  CG         1.6070   -7.4890   19.3720 C.3    84  GLU84       0.1163
     87  CD         1.3860   -8.2140   18.0550 C.2    84  GLU84       0.3649
     88  OE1        2.3040   -8.9310   17.6250 O.co2  84  GLU84      -0.2457
     89  OE2        0.2980   -8.0830   17.4540 O.co2  84  GLU84      -0.2457
     90  N         -1.0900   -3.7920   20.3600 N.am   85  LEU85      -0.1963
     91  CA        -2.3950   -3.1720   20.6280 C.3    85  LEU85       0.1728
     92  C         -2.6600   -1.9250   19.7730 C.2    85  LEU85       0.2617
     93  O         -3.7790   -1.4140   19.7410 O.2    85  LEU85      -0.2715
     94  CB        -2.5650   -2.8760   22.1240 C.3    85  LEU85       0.0311
     95  CG        -3.1240   -4.0050   23.0080 C.3    85  LEU85       0.0022
     96  CD1       -2.3410   -5.3020   22.8880 C.3    85  LEU85       0.0001
     97  CD2       -3.2080   -3.5790   24.4660 C.3    85  LEU85       0.0001
     98  N         -1.6280   -1.4460   19.0800 N.am   86  GLY86      -0.1941
     99  CA        -1.7790   -0.3570   18.1160 C.3    86  GLY86       0.1998
    100  C         -1.9060    1.0410   18.7040 C.2    86  GLY86       0.2480
    101  O         -1.6210    1.2480   19.8900 O.2    86  GLY86      -0.2729
    102  N         -2.3300    2.0120   17.8690 N.am   87  PRO87      -0.2726
    103  CA        -2.4170    3.4360   18.2100 C.3    87  PRO87       0.1402
    104  C         -3.3960    3.7150   19.3440 C.2    87  PRO87       0.2269
    105  O         -4.4790    3.1310   19.3860 O.2    87  PRO87      -0.2865
    106  CB        -2.9250    4.0770   16.9130 C.3    87  PRO87       0.0296
    107  CG        -2.4880    3.1490   15.8440 C.3    87  PRO87       0.0237
    108  CD        -2.6680    1.7850   16.4510 C.3    87  PRO87       0.0939
    109  N         -7.1580    4.9720   18.5040 N.3    90  LYS90      -0.1245
    110  CA        -7.9990    3.8730   18.0450 C.3    90  LYS90       0.1561
    111  C         -8.3420    2.9160   19.1850 C.2    90  LYS90       0.2260
    112  O         -9.4730    2.4460   19.2730 O.2    90  LYS90      -0.2867
    113  CB        -7.3140    3.1120   16.9100 C.3    90  LYS90       0.0271
    114  CG        -7.2130    3.8960   15.6130 C.3    90  LYS90       0.0035
    115  CD        -6.5520    3.0690   14.5270 C.3    90  LYS90       0.0206
    116  CE        -6.6760    3.7440   13.1710 C.3    90  LYS90       0.1093
    117  NZ        -7.9840    3.4490   12.5020 N.3    90  LYS90      -0.1314
    118  N         -2.4550    9.4380   17.8990 N.3   130  ARG130     -0.1231
    119  CA        -2.2650    8.4660   16.8030 C.3   130  ARG130      0.1694
    120  C         -0.8520    7.8590   16.7480 C.2   130  ARG130      0.2592
    121  O         -0.6540    6.7710   16.1970 O.2   130  ARG130     -0.2718
    122  CB        -2.6240    9.0870   15.4390 C.3   130  ARG130      0.0321
    123  CG        -1.7480   10.2780   15.0440 C.3   130  ARG130      0.0489
    124  CD        -2.0450   10.8130   13.6260 C.3   130  ARG130      0.2205
    125  NE        -1.3070   12.0590   13.3740 N.pl3 130  ARG130     -0.0865
    126  CZ        -1.6780   13.2610   13.8200 C.cat 130  ARG130      0.5346
    127  NH1       -2.7920   13.4060   14.5330 N.pl3 130  ARG130      0.1354
    128  NH2       -0.9420   14.3290   13.5450 N.pl3 130  ARG130      0.1354
    129  N          0.1170    8.5790   17.3090 N.am  131  ASN131     -0.1974
    130  CA         1.5240    8.1670   17.3240 C.3   131  ASN131      0.1688
    131  C          2.0100    7.6030   18.6510 C.2   131  ASN131      0.2292
    132  O          3.2160    7.4150   18.8540 O.2   131  ASN131     -0.2864
    133  CB         2.4070    9.3370   16.8950 C.3   131  ASN131      0.1181
    134  CG         2.2240    9.6750   15.4390 C.2   131  ASN131      0.2629
    135  OD1        1.9120    8.8020   14.6380 O.2   131  ASN131     -0.2716
    136  ND2        2.3870   10.9390   15.0940 N.am  131  ASN131     -0.0877
    137  N          1.7870    4.2410   20.6580 N.3   133  LEU133     -0.1245
    138  CA         1.4630    2.8380   20.4200 C.3   133  LEU133      0.1561
    139  C          1.4490    2.0340   21.7100 C.2   133  LEU133      0.2260
    140  O          2.2960    2.2380   22.5810 O.2   133  LEU133     -0.2867
    141  CB         2.4670    2.2260   19.4550 C.3   133  LEU133      0.0270
    142  CG         2.4280    2.7880   18.0380 C.3   133  LEU133      0.0019
    143  CD1        3.6500    2.3260   17.3210 C.3   133  LEU133      0.0001
    144  CD2        1.1660    2.3500   17.3040 C.3   133  LEU133      0.0001
    145  N          5.9490    6.7780   18.8720 N.3   143  SER143     -0.1202
    146  CA         6.3910    6.3930   17.5370 C.3   143  SER143      0.2020
    147  C          6.3250    7.5360   16.5130 C.2   143  SER143      0.2618
    148  O          5.9960    8.6810   16.8470 O.2   143  SER143     -0.2717
    149  CB         5.5710    5.2030   17.0340 C.3   143  SER143      0.2103
    150  OG         4.2720    5.6180   16.6110 O.3   143  SER143     -0.2182
    151  N          6.6290    7.1870   15.2630 N.am  144  ASP144     -0.1973
    152  CA         6.6190    8.0930   14.1090 C.3   144  ASP144      0.1709
    153  C          7.4820    9.3380   14.2600 C.2   144  ASP144      0.2293
    154  O          7.0000   10.4330   14.5960 O.2   144  ASP144     -0.2864
    155  CB         5.2010    8.4570   13.6530 C.3   144  ASP144      0.1436
    156  CG         5.1550    8.8580   12.1780 C.2   144  ASP144      0.3671
    157  OD1        4.0790    8.7220   11.5660 O.co2 144  ASP144     -0.2456
    158  OD2        6.1910    9.3030   11.6240 O.co2 144  ASP144     -0.2456
@<TRIPOS>BOND
     1    38    37    2
     2    18    17    1
     3    17    14    1
     4    37    36    1
     5    23    24    1
     6    22    21    2
     7    36    39    1
     8    36    35    1
     9    14    13    1
    10    14    15    1
    11    40    39    1
    12    40    41    1
    13    12    11    2
    14    26    25    2
    15    25    24    1
    16    24    27    1
    17    13    11   am
    18    21    20    1
    19    11    10    1
    20     1     2    1
    21    15    19   am
    22    15    16    2
    23    19    20    1
    24    41    42    1
    25    10     9    1
    26     9     3   am
    27    42    43    1
    28    27    29    1
    29    27    28    1
    30     3     2    1
    31     3     4    2
    32     2     5    1
    33     5     6    1
    34     6     7    1
    35     6     8    1
    36   157   156   ar
    37    32    33    2
    38    32    31    1
    39   158   156   ar
    40    58    57    1
    41   156   155    1
    42   117   116    1
    43    31    34    1
    44    31    30    1
    45    51    52    1
    46   116   115    1
    47    57    56    1
    48   125   124    1
    49   125   126    2
    50    56    55    1
    51   128   126    1
    52   124   123    1
    53   155   152    1
    54   126   127    1
    55   152   153    1
    56   152   151    1
    57   153   154    2
    58    75    74    1
    59    55    52    1
    60    52    53    1
    61   115   114    1
    62   135   134    2
    63    54    53    2
    64   123   122    1
    65   136   134   am
    66   151   147   am
    67    53    59   am
    68   122   119    1
    69   134   133    1
    70   114   113    1
    71    74    73    1
    72   107   108    1
    73   107   106    1
    74   121   120    2
    75   108   102    1
    76   147   148    2
    77   147   146    1
    78   150   149    1
    79    59    60    1
    80   120   119    1
    81   120   129   am
    82   119   118    1
    83   133   130    1
    84   113   110    1
    85   106   103    1
    86    62    61    2
    87    73    72    1
    88   149   146    1
    89    72    69    1
    90   144   142    1
    91   129   130    1
    92   143   142    1
    93   130   131    1
    94    61    68   am
    95    61    60    1
    96    69    68    1
    97    69    70    1
    98    89    87   ar
    99   146   145    1
   100    49    48    1
   101    88    87   ar
   102    60    63    1
   103   102   103    1
   104   102   100   am
   105   142   141    1
   106   110   109    1
   107   110   111    1
   108    87    86    1
   109    99   100    1
   110    99    98    1
   111   103   104    1
   112    84    83    2
   113    79    78    2
   114    76    70   am
   115    76    77    1
   116    48    50    1
   117    48    45    1
   118   131   132    2
   119   100   101    2
   120    70    71    2
   121    47    46    2
   122    63    64    1
   123    98    92   am
   124    82    83    1
   125    82    81    1
   126    82    85    1
   127   111   112    2
   128    78    81   am
   129    78    77    1
   130    83    90   am
   131   104   105    2
   132    46    45    1
   133    86    85    1
   134   141   138    1
   135    77    80    1
   136    64    65    1
   137    93    92    2
   138    92    91    1
   139    45    44    1
   140    90    91    1
   141   138   137    1
   142   138   139    1
   143    91    94    1
   144    65    67   ar
   145    65    66   ar
   146   139   140    2
   147    94    95    1
   148    96    95    1
   149    95    97    1
