@<TRIPOS>MOLECULE
tmp/4i0tA00.pdb
 151 141 0 0 0
SMALL
GASTEIGER

@<TRIPOS>ATOM
      1  N         -1.3550   -4.0780    8.7300 N.3    15  LEU15      -0.1231
      2  CA        -2.0130   -3.5120    9.9070 C.3    15  LEU15       0.1696
      3  C         -2.7380   -2.2210    9.5380 C.2    15  LEU15       0.2631
      4  O         -3.8300   -1.9360   10.0590 O.2    15  LEU15      -0.2714
      5  CB        -1.0100   -3.1910   10.9890 C.3    15  LEU15       0.0284
      6  CG        -0.1950   -4.3620   11.4830 C.3    15  LEU15       0.0019
      7  CD1        0.7440   -3.8120   12.5560 C.3    15  LEU15       0.0001
      8  CD2       -1.0620   -5.5060   12.0220 C.3    15  LEU15       0.0001
      9  N         -2.1180   -1.4520    8.6460 N.am   16  GLY16      -0.1732
     10  CA        -2.7020   -0.1950    8.1720 C.2    16  GLY16       0.1340
     11  C         -1.8800    0.5480    7.1480 C.2    16  GLY16       0.2521
     12  O         -0.6920    0.2640    6.9540 O.2    16  GLY16      -0.2816
     13  N          1.5880    8.0040    6.6300 N.3    20  PHE20      -0.1241
     14  CA         2.8420    7.3690    7.0380 C.3    20  PHE20       0.1605
     15  C          3.2840    6.2050    6.1410 C.2    20  PHE20       0.2264
     16  O          4.2840    5.5770    6.4170 O.2    20  PHE20      -0.2867
     17  CB         2.6480    6.8190    8.4570 C.3    20  PHE20       0.0534
     18  CG         1.4900    5.8770    8.5640 C.ar   20  PHE20      -0.0203
     19  CD1        0.2110    6.3450    8.8990 C.ar   20  PHE20      -0.0042
     20  CD2        1.6560    4.5300    8.2790 C.ar   20  PHE20      -0.0042
     21  CE1       -0.8640    5.4880    8.9580 C.ar   20  PHE20      -0.0003
     22  CE2        0.5760    3.6710    8.3140 C.ar   20  PHE20      -0.0003
     23  CZ        -0.6920    4.1490    8.6640 C.ar   20  PHE20      -0.0000
     24  N          2.0930   -0.0890    7.0700 N.3    23  VAL23      -0.1245
     25  CA         2.5990   -0.9060    8.1500 C.3    23  VAL23       0.1561
     26  C          2.0640   -2.3810    8.0490 C.2    23  VAL23       0.2260
     27  O          0.8520   -2.6320    7.9880 O.2    23  VAL23      -0.2867
     28  CB         2.3580   -0.2590    9.5060 C.3    23  VAL23       0.0252
     29  CG1        2.9650   -1.0870   10.5550 C.3    23  VAL23       0.0019
     30  CG2        3.0520    1.1320    9.5620 C.3    23  VAL23       0.0019
     31  N          6.6390   -4.8930   13.8580 N.3    38  ALA38      -0.1245
     32  CA         5.8040   -4.1300   12.9160 C.3    38  ALA38       0.1562
     33  C          6.7370   -3.5060   11.8610 C.2    38  ALA38       0.2260
     34  O          7.7450   -2.9500   12.2060 O.2    38  ALA38      -0.2867
     35  CB         5.0280   -3.0280   13.6460 C.3    38  ALA38       0.0290
     36  N          7.4380   -0.9110    8.6640 N.3    40  LYS40      -0.1245
     37  CA         6.9700    0.1900    7.8390 C.3    40  LYS40       0.1561
     38  C          7.6380    0.1440    6.4640 C.2    40  LYS40       0.2260
     39  O          8.8800    0.1020    6.3350 O.2    40  LYS40      -0.2867
     40  CB         7.2530    1.5360    8.4810 C.3    40  LYS40       0.0271
     41  CG         6.6340    2.6710    7.6880 C.3    40  LYS40       0.0035
     42  CD         6.2490    3.8850    8.6440 C.3    40  LYS40       0.0206
     43  CE         7.4510    4.5140    9.2780 C.3    40  LYS40       0.1093
     44  NZ         7.1900    5.9020    9.9440 N.3    40  LYS40      -0.1314
     45  N          9.4440    3.5210   20.9860 N.3    65  VAL65      -0.1245
     46  CA         9.4500    2.3090   20.0950 C.3    65  VAL65       0.1561
     47  C         10.8820    2.0160   19.6170 C.2    65  VAL65       0.2260
     48  O         11.5990    2.9070   19.1650 O.2    65  VAL65      -0.2867
     49  CB         8.4580    2.4790   18.9170 C.3    65  VAL65       0.0252
     50  CG1        8.6870    1.4720   17.8690 C.3    65  VAL65       0.0019
     51  CG2        7.0020    2.3920   19.4280 C.3    65  VAL65       0.0019
     52  N         10.4320   -2.5150   13.3190 N.3    80  MET80      -0.1230
     53  CA        10.2320   -2.0120   14.7120 C.3    80  MET80       0.1702
     54  C          9.6020   -3.0540   15.5770 C.2    80  MET80       0.2592
     55  O          8.9780   -4.0340   15.1190 O.2    80  MET80      -0.2718
     56  CB         9.3180   -0.7710   14.6260 C.3    80  MET80       0.0401
     57  CG        10.0020    0.4380   13.9720 C.3    80  MET80       0.0596
     58  SD         8.8400    1.7870   13.7540 S.3    80  MET80      -0.1393
     59  CE         8.1220    1.3570   12.1700 C.3    80  MET80       0.0692
     60  N          9.6870   -2.8430   16.8800 N.am   81  GLU81      -0.1966
     61  CA         8.9460   -3.6830   17.7660 C.3    81  GLU81       0.1733
     62  C          7.4260   -3.5410   17.5640 C.2    81  GLU81       0.2616
     63  O          6.9470   -2.4820   17.1630 O.2    81  GLU81      -0.2715
     64  CB         9.3190   -3.3950   19.2060 C.3    81  GLU81       0.0429
     65  CG         8.8090   -2.0550   19.7350 C.3    81  GLU81       0.1163
     66  CD         9.1490   -1.8160   21.1900 C.2    81  GLU81       0.3649
     67  OE1        8.4740   -2.4240   22.0640 O.co2  81  GLU81      -0.2457
     68  OE2       10.0750   -1.0220   21.4600 O.co2  81  GLU81      -0.2457
     69  N          6.7080   -4.6130   17.8770 N.am   82  MET82      -0.1963
     70  CA         5.2790   -4.6740   17.7270 C.3    82  MET82       0.1736
     71  C          4.5710   -4.1840   18.9640 C.2    82  MET82       0.2616
     72  O          4.8740   -4.6020   20.0530 O.2    82  MET82      -0.2715
     73  CB         4.8730   -6.1180   17.3870 C.3    82  MET82       0.0427
     74  CG         3.3290   -6.3930   17.3940 C.3    82  MET82       0.0599
     75  SD         2.4600   -5.5620   16.0810 S.3    82  MET82      -0.1393
     76  CE         3.0730   -6.3210   14.6380 C.3    82  MET82       0.0692
     77  N          3.5750   -3.3360   18.7580 N.am   83  ALA83      -0.1963
     78  CA         2.6810   -2.9080   19.8310 C.3    83  ALA83       0.1728
     79  C          1.2750   -3.4660   19.5450 C.2    83  ALA83       0.2616
     80  O          0.5180   -2.9450   18.6850 O.2    83  ALA83      -0.2715
     81  CB         2.6620   -1.3800   19.8820 C.3    83  ALA83       0.0334
     82  N          0.9600   -4.5580   20.2480 N.am   84  GLU84      -0.1977
     83  CA        -0.2650   -5.3340   19.9890 C.3    84  GLU84       0.1602
     84  C         -1.5280   -4.5630   20.1500 C.2    84  GLU84       0.2287
     85  O         -2.4750   -4.8140   19.4200 O.2    84  GLU84      -0.2864
     86  CB        -0.2980   -6.6130   20.8150 C.3    84  GLU84       0.0415
     87  CG         0.8460   -7.5740   20.4430 C.3    84  GLU84       0.1163
     88  CD         0.6020   -8.3490   19.1650 C.2    84  GLU84       0.3649
     89  OE1        1.5170   -9.1180   18.7210 O.co2  84  GLU84      -0.2457
     90  OE2       -0.5020   -8.2310   18.6020 O.co2  84  GLU84      -0.2457
     91  N         -1.9500   -1.3530   19.6110 N.3    86  GLY86      -0.1210
     92  CA        -2.0110   -0.4130   18.5200 C.3    86  GLY86       0.1940
     93  C         -2.0020    1.0600   18.9270 C.2    86  GLY86       0.2453
     94  O         -1.8040    1.3900   20.0970 O.2    86  GLY86      -0.2732
     95  N         -2.3420    1.9280   17.9900 N.am   87  PRO87      -0.2728
     96  CA        -2.3450    3.4120   18.3200 C.3    87  PRO87       0.1401
     97  C         -3.3260    3.8610   19.4110 C.2    87  PRO87       0.2269
     98  O         -4.4660    3.3600   19.5050 O.2    87  PRO87      -0.2865
     99  CB        -2.6920    4.0710   16.9850 C.3    87  PRO87       0.0296
    100  CG        -2.4330    3.0280   15.9310 C.3    87  PRO87       0.0237
    101  CD        -2.5810    1.6830   16.5350 C.3    87  PRO87       0.0939
    102  N         -7.0840    5.2310   18.4640 N.3    90  LYS90      -0.1245
    103  CA        -7.9750    4.1060   18.0850 C.3    90  LYS90       0.1561
    104  C         -8.3160    3.2430   19.3040 C.2    90  LYS90       0.2260
    105  O         -9.4710    2.8700   19.4630 O.2    90  LYS90      -0.2867
    106  CB        -7.3880    3.2890   16.9510 C.3    90  LYS90       0.0271
    107  CG        -7.4750    3.9920   15.5890 C.3    90  LYS90       0.0035
    108  CD        -6.4090    3.4570   14.5840 C.3    90  LYS90       0.0206
    109  CE        -6.5540    4.0830   13.1720 C.3    90  LYS90       0.1093
    110  NZ        -5.2060    4.2680   12.5170 N.3    90  LYS90      -0.1314
    111  N         -2.1450    9.5020   17.7260 N.3   130  ARG130     -0.1231
    112  CA        -2.0220    8.4530   16.7170 C.3   130  ARG130      0.1694
    113  C         -0.5960    7.8180   16.6400 C.2   130  ARG130      0.2592
    114  O         -0.4290    6.7100   16.1300 O.2   130  ARG130     -0.2718
    115  CB        -2.3560    8.9600   15.3040 C.3   130  ARG130      0.0321
    116  CG        -1.4840   10.1430   14.8760 C.3   130  ARG130      0.0489
    117  CD        -1.7360   10.6980   13.4450 C.3   130  ARG130      0.2205
    118  NE        -0.8520   11.8650   13.1650 N.pl3 130  ARG130     -0.0865
    119  CZ        -1.1630   13.1210   13.4700 C.cat 130  ARG130      0.5346
    120  NH1       -2.3380   13.4020   14.0370 N.pl3 130  ARG130      0.1354
    121  NH2       -0.3420   14.1090   13.1980 N.pl3 130  ARG130      0.1354
    122  N          0.4050    8.5550   17.1740 N.am  131  ASN131     -0.1974
    123  CA         1.7720    8.1110   17.1670 C.3   131  ASN131      0.1688
    124  C          2.2200    7.5830   18.5040 C.2   131  ASN131      0.2292
    125  O          3.4290    7.4450   18.7330 O.2   131  ASN131     -0.2864
    126  CB         2.6860    9.2430   16.6370 C.3   131  ASN131      0.1181
    127  CG         2.4800    9.4890   15.1890 C.2   131  ASN131      0.2629
    128  OD1        2.1130    8.5770   14.4940 O.2   131  ASN131     -0.2716
    129  ND2        2.7030   10.7270   14.7210 N.am  131  ASN131     -0.0877
    130  N          1.9510    4.2840   20.6930 N.3   133  LEU133     -0.1245
    131  CA         1.5380    2.8630   20.5960 C.3   133  LEU133      0.1561
    132  C          1.4480    2.1580   21.9170 C.2   133  LEU133      0.2260
    133  O          2.3150    2.3630   22.7840 O.2   133  LEU133     -0.2867
    134  CB         2.4960    2.1540   19.6980 C.3   133  LEU133      0.0270
    135  CG         2.4540    2.6530   18.2690 C.3   133  LEU133      0.0019
    136  CD1        3.7390    2.3080   17.7650 C.3   133  LEU133      0.0001
    137  CD2        1.2930    2.0060   17.4810 C.3   133  LEU133      0.0001
    138  N          6.1340    6.6700   18.9220 N.3   143  SER143     -0.1202
    139  CA         6.7020    6.2800   17.6120 C.3   143  SER143      0.2020
    140  C          6.6710    7.3720   16.5350 C.2   143  SER143      0.2618
    141  O          6.4200    8.5580   16.8440 O.2   143  SER143     -0.2717
    142  CB         6.0640    4.9490   17.1140 C.3   143  SER143      0.2103
    143  OG         6.9530    4.3850   16.1220 O.3   143  SER143     -0.2182
    144  N          6.9170    6.9740   15.2550 N.am  144  ASP144     -0.1973
    145  CA         6.9160    7.7800   14.0500 C.3   144  ASP144      0.1709
    146  C          7.8550    8.9890   14.1960 C.2   144  ASP144      0.2293
    147  O          7.4130   10.1350   14.5220 O.2   144  ASP144     -0.2864
    148  CB         5.5370    8.3490   13.6720 C.3   144  ASP144      0.1436
    149  CG         5.4320    8.6850   12.1860 C.2   144  ASP144      0.3671
    150  OD1        4.2650    8.8480   11.7080 O.co2 144  ASP144     -0.2456
    151  OD2        6.4930    8.7630   11.4810 O.co2 144  ASP144     -0.2456
@<TRIPOS>BOND
     1    15    16    2
     2    15    14    1
     3    39    38    2
     4    38    37    1
     5    13    14    1
     6    12    11    2
     7    14    17    1
     8    24    25    1
     9    11    10    1
    10    41    40    1
    11    41    42    1
    12    37    40    1
    13    37    36    1
    14    27    26    2
    15    26    25    1
    16    25    28    1
    17    10     9    2
    18    20    22   ar
    19    20    18   ar
    20    22    23   ar
    21    17    18    1
    22    18    19   ar
    23    42    43    1
    24     9     3    1
    25    23    21   ar
    26     1     2    1
    27    19    21   ar
    28    43    44    1
    29    28    30    1
    30    28    29    1
    31     3     2    1
    32     3     4    2
    33     2     5    1
    34     5     6    1
    35   151   149   ar
    36     6     8    1
    37     6     7    1
    38   150   149   ar
    39    33    34    2
    40    33    32    1
    41    59    58    1
    42   149   148    1
    43   110   109    1
    44    32    35    1
    45    32    31    1
    46   118   117    1
    47   118   119    2
    48   109   108    1
    49   121   119    1
    50    52    53    1
    51   117   116    1
    52   119   120    1
    53   148   145    1
    54    58    57    1
    55    57    56    1
    56   145   146    1
    57   145   144    1
    58   146   147    2
    59   128   127    2
    60   108   107    1
    61    56    53    1
    62    76    75    1
    63    53    54    1
    64   129   127   am
    65   116   115    1
    66    55    54    2
    67   127   126    1
    68   144   140   am
    69   115   112    1
    70    54    60   am
    71   107   106    1
    72   100   101    1
    73   100    99    1
    74    75    74    1
    75   143   142    1
    76   114   113    2
    77   140   141    2
    78   140   139    1
    79   101    95    1
    80   126   123    1
    81   113   112    1
    82   113   122   am
    83   112   111    1
    84    60    61    1
    85   106   103    1
    86    99    96    1
    87   142   139    1
    88    63    62    2
    89   123   122    1
    90   123   124    1
    91    73    74    1
    92    73    70    1
    93   137   135    1
    94    62    61    1
    95    62    69   am
    96   139   138    1
    97    70    69    1
    98    70    71    1
    99   136   135    1
   100    61    64    1
   101    50    49    1
   102    95    96    1
   103    95    93   am
   104   103   102    1
   105   103   104    1
   106   135   134    1
   107    96    97    1
   108   124   125    2
   109    92    93    1
   110    92    91    1
   111    90    88   ar
   112    80    79    2
   113    89    88   ar
   114    77    71   am
   115    77    78    1
   116    49    51    1
   117    49    46    1
   118    93    94    2
   119    71    72    2
   120    88    87    1
   121    48    47    2
   122    64    65    1
   123   104   105    2
   124    97    98    2
   125    85    84    2
   126    79    78    1
   127    79    82   am
   128    47    46    1
   129   134   131    1
   130    65    66    1
   131    78    81    1
   132    83    84    1
   133    83    82    1
   134    83    86    1
   135    46    45    1
   136    87    86    1
   137   131   130    1
   138   131   132    1
   139    66    68   ar
   140    66    67   ar
   141   132   133    2
