@<TRIPOS>MOLECULE
tmp/4i0zA00.pdb
 175 167 0 0 0
SMALL
GASTEIGER

@<TRIPOS>ATOM
      1  N          5.4330  -23.2970   13.1930 N.3    13  GLY13      -0.1210
      2  CA         5.8560  -22.8880   11.8760 C.3    13  GLY13       0.1956
      3  C          5.9330  -21.3840   11.7240 C.2    13  GLY13       0.2612
      4  O          6.2460  -20.8960   10.6500 O.2    13  GLY13      -0.2717
      5  N          5.7540  -20.6510   12.8360 N.am   14  GLN14      -0.1965
      6  CA         5.7520  -19.1510   12.8170 C.3    14  GLN14       0.1733
      7  C          6.5950  -18.6550   13.9910 C.2    14  GLN14       0.2616
      8  O          6.4390  -17.5310   14.4410 O.2    14  GLN14      -0.2715
      9  CB         4.2880  -18.6010   12.8840 C.3    14  GLN14       0.0408
     10  CG         3.3950  -19.3360   11.8760 C.3    14  GLN14       0.0908
     11  CD         1.9390  -18.8700   11.8190 C.2    14  GLN14       0.2608
     12  OE1        1.3600  -18.4110   12.8200 O.2    14  GLN14      -0.2717
     13  NE2        1.3370  -19.0160   10.6390 N.am   14  GLN14      -0.0878
     14  N          7.5130  -19.5170   14.4520 N.am   15  GLY15      -0.1955
     15  CA         8.6160  -19.1280   15.3330 C.3    15  GLY15       0.1869
     16  C          8.1230  -18.9000   16.7210 C.2    15  GLY15       0.2309
     17  O          6.9740  -19.2620   17.0860 O.2    15  GLY15      -0.2863
     18  N          9.3780  -11.5480   17.6550 N.3    32  LEU32      -0.1245
     19  CA         9.9720  -12.8390   17.2140 C.3    32  LEU32       0.1561
     20  C         11.4250  -12.9060   17.6320 C.2    32  LEU32       0.2260
     21  O         12.1990  -11.9710   17.3490 O.2    32  LEU32      -0.2867
     22  CB         9.8970  -12.9610   15.6740 C.3    32  LEU32       0.0270
     23  CG        10.5170  -14.2340   15.0670 C.3    32  LEU32       0.0019
     24  CD1        9.6050  -15.4630   15.2500 C.3    32  LEU32       0.0001
     25  CD2       10.5930  -14.0470   13.5460 C.3    32  LEU32       0.0001
     26  N         14.9360  -14.1200   16.7990 N.3    34  ASP34      -0.1239
     27  CA        15.5500  -14.5530   15.5370 C.3    34  ASP34       0.1674
     28  C         17.0980  -14.5460   15.6420 C.2    34  ASP34       0.2266
     29  O         17.7520  -13.4870   15.5450 O.2    34  ASP34      -0.2867
     30  CB        15.0700  -13.6850   14.3400 C.3    34  ASP34       0.1410
     31  CG        15.6950  -14.1280   13.0210 C.2    34  ASP34       0.3668
     32  OD1       15.6720  -13.3260   12.0420 O.co2  34  ASP34      -0.2456
     33  OD2       16.1980  -15.2850   12.9130 O.co2  34  ASP34      -0.2456
     34  N         13.9860   -9.9760    1.5220 N.3    73  TYR73      -0.1241
     35  CA        14.2360  -11.4020    1.7150 C.3    73  TYR73       0.1605
     36  C         13.9400  -12.0830    0.3670 C.2    73  TYR73       0.2264
     37  O         13.2920  -11.4950   -0.4920 O.2    73  TYR73      -0.2867
     38  CB        13.2680  -11.9710    2.7670 C.3    73  TYR73       0.0534
     39  CG        13.6250  -11.6090    4.2460 C.ar   73  TYR73      -0.0201
     40  CD1       14.2440  -12.5580    5.0600 C.ar   73  TYR73      -0.0009
     41  CD2       13.3060  -10.3590    4.7900 C.ar   73  TYR73      -0.0009
     42  CE1       14.5470  -12.3160    6.3820 C.ar   73  TYR73       0.0417
     43  CE2       13.6470  -10.0450    6.1050 C.ar   73  TYR73       0.0417
     44  CZ        14.1770  -11.0380    6.9130 C.ar   73  TYR73       0.1957
     45  OH        14.4670  -10.8220    8.2130 O.3    73  TYR73      -0.2866
     46  N         11.7490  -14.1870    0.2250 N.3    75  GLN75      -0.1231
     47  CA        10.2600  -14.3190    0.3220 C.3    75  GLN75       0.1698
     48  C          9.3850  -13.0400    0.4420 C.2    75  GLN75       0.2593
     49  O          8.1280  -13.1240    0.4160 O.2    75  GLN75      -0.2718
     50  CB         9.8510  -15.3210    1.4450 C.3    75  GLN75       0.0381
     51  CG        10.1170  -16.8010    1.1350 C.3    75  GLN75       0.0905
     52  CD         9.0030  -17.4720    0.3210 C.2    75  GLN75       0.2608
     53  OE1        7.9410  -17.8450    0.8680 O.2    75  GLN75      -0.2717
     54  NE2        9.2390  -17.6400   -0.9950 N.am   75  GLN75      -0.0878
     55  N         10.0080  -11.8790    0.5550 N.am   76  GLY76      -0.1942
     56  CA         9.2670  -10.6940    0.9710 C.3    76  GLY76       0.2014
     57  C         10.2100   -9.6100    1.3350 C.2    76  GLY76       0.2638
     58  O         11.3340   -9.6510    0.9220 O.2    76  GLY76      -0.2714
     59  N          9.7520   -8.6210    2.1170 N.am   77  LYS77      -0.1977
     60  CA        10.6580   -7.5720    2.4860 C.3    77  LYS77       0.1596
     61  C         10.0420   -6.7810    3.6220 C.2    77  LYS77       0.2287
     62  O          8.8230   -6.7910    3.8430 O.2    77  LYS77      -0.2864
     63  CB        10.9750   -6.6490    1.2840 C.3    77  LYS77       0.0298
     64  CG         9.7920   -5.8430    0.8610 C.3    77  LYS77       0.0038
     65  CD        10.2730   -4.4380    0.5150 C.3    77  LYS77       0.0206
     66  CE         9.2970   -3.7670   -0.4520 C.3    77  LYS77       0.1093
     67  NZ         8.2690   -2.9270    0.2340 N.3    77  LYS77      -0.1314
     68  N          4.6400   -9.7820    2.7110 N.3   109  LYS109     -0.1231
     69  CA         4.7980  -11.2090    3.0390 C.3   109  LYS109      0.1693
     70  C          5.6410  -11.4880    4.2860 C.2   109  LYS109      0.2592
     71  O          6.2230  -12.5830    4.4850 O.2   109  LYS109     -0.2718
     72  CB         5.2380  -12.0330    1.7830 C.3   109  LYS109      0.0285
     73  CG         4.3030  -11.7170    0.6120 C.3   109  LYS109      0.0035
     74  CD         4.2080  -12.8310   -0.4230 C.3   109  LYS109      0.0206
     75  CE         5.3760  -12.7870   -1.4050 C.3   109  LYS109      0.1093
     76  NZ         5.1380  -11.8670   -2.5620 N.3   109  LYS109     -0.1314
     77  N          5.6450  -10.5000    5.1710 N.am  110  PHE110     -0.1976
     78  CA         6.4520  -10.5190    6.3900 C.3   110  PHE110      0.1639
     79  C          5.5600  -10.8370    7.5920 C.2   110  PHE110      0.2290
     80  O          5.7460  -11.8550    8.2290 O.2   110  PHE110     -0.2864
     81  CB         7.1760   -9.1770    6.5890 C.3   110  PHE110      0.0560
     82  CG         8.1850   -9.2000    7.7040 C.ar  110  PHE110     -0.0200
     83  CD1        9.2930  -10.0310    7.6390 C.ar  110  PHE110     -0.0042
     84  CD2        7.9680   -8.4730    8.8490 C.ar  110  PHE110     -0.0042
     85  CE1       10.2320  -10.0660    8.6730 C.ar  110  PHE110     -0.0003
     86  CE2        8.8790   -8.5040    9.9070 C.ar  110  PHE110     -0.0003
     87  CZ        10.0110   -9.3120    9.8330 C.ar  110  PHE110     -0.0000
     88  N          2.2000  -12.3210    8.9020 N.3   112  ILE112     -0.1245
     89  CA         1.3090  -13.3610    8.3430 C.3   112  ILE112      0.1561
     90  C         -0.0090  -13.4480    9.1310 C.2   112  ILE112      0.2260
     91  O         -0.0170  -13.2740   10.3290 O.2   112  ILE112     -0.2867
     92  CB         2.0540  -14.7290    8.2790 C.3   112  ILE112      0.0252
     93  CG1        3.2410  -14.6400    7.3110 C.3   112  ILE112      0.0019
     94  CG2        1.1500  -15.8690    7.8390 C.3   112  ILE112      0.0019
     95  CD1        2.9840  -13.8150    6.0490 C.3   112  ILE112      0.0001
     96  N          2.9700  -12.0640   16.2880 N.3   117  TRP117     -0.1241
     97  CA         4.1250  -11.2260   16.6260 C.3   117  TRP117      0.1605
     98  C          4.0520   -9.9990   15.7820 C.2   117  TRP117      0.2264
     99  O          3.5330  -10.0180   14.6310 O.2   117  TRP117     -0.2867
    100  CB         5.5170  -11.9490   16.5510 C.3   117  TRP117      0.0550
    101  CG         5.8100  -12.7000   15.2700 C.ar  117  TRP117      0.0003
    102  CD1        5.5870  -14.0660   15.0330 C.ar  117  TRP117      0.0946
    103  CD2        6.3230  -12.1780   13.9870 C.ar  117  TRP117      0.0152
    104  NE1        5.8880  -14.4010   13.7350 N.ar  117  TRP117     -0.2442
    105  CE2        6.3690  -13.3280   13.0590 C.ar  117  TRP117      0.0810
    106  CE3        6.7860  -10.9610   13.5560 C.ar  117  TRP117      0.0012
    107  CZ2        6.8400  -13.2180   11.7420 C.ar  117  TRP117      0.0191
    108  CZ3        7.2650  -10.8480   12.2130 C.ar  117  TRP117      0.0001
    109  CH2        7.2750  -11.9610   11.3300 C.ar  117  TRP117      0.0015
    110  N         10.4940   -8.1070   15.1620 N.3   120  ILE120     -0.1245
    111  CA        11.5070   -9.1830   15.1870 C.3   120  ILE120      0.1561
    112  C         12.7600   -8.6970   15.9840 C.2   120  ILE120      0.2260
    113  O         13.1400   -7.5010   15.9040 O.2   120  ILE120     -0.2867
    114  CB        11.8680   -9.4970   13.7460 C.3   120  ILE120      0.0252
    115  CG1       12.8350  -10.6950   13.6410 C.3   120  ILE120      0.0019
    116  CG2       12.3290   -8.2370   13.0570 C.3   120  ILE120      0.0019
    117  CD1       13.0610  -11.1390   12.1590 C.3   120  ILE120      0.0001
    118  N         16.9660  -19.7290   15.0450 N.3   221  SER221     -0.1202
    119  CA        15.5830  -19.7810   15.5450 C.3   221  SER221      0.2020
    120  C         14.5270  -19.1410   14.6740 C.2   221  SER221      0.2619
    121  O         13.3630  -19.4000   14.8790 O.2   221  SER221     -0.2717
    122  CB        15.5840  -19.1590   16.9470 C.3   221  SER221      0.2103
    123  OG        15.8040  -17.7310   16.9080 O.3   221  SER221     -0.2182
    124  N         14.9200  -18.3740   13.6600 N.am  222  GLY222     -0.1942
    125  CA        14.0610  -17.7020   12.6650 C.3   222  GLY222      0.2014
    126  C         13.6860  -18.6000   11.4810 C.2   222  GLY222      0.2640
    127  O         12.9200  -18.2160   10.5750 O.2   222  GLY222     -0.2714
    128  N         14.2290  -19.8190   11.4680 N.am  223  THR223     -0.1936
    129  CA        13.9660  -20.8000   10.3940 C.3   223  THR223      0.2028
    130  C         13.1800  -21.9780   10.9960 C.2   223  THR223      0.2643
    131  O         13.4500  -22.4310   12.1470 O.2   223  THR223     -0.2714
    132  CB        15.2640  -21.2960    9.7400 C.3   223  THR223      0.1808
    133  OG1       15.8150  -20.2270    8.9690 O.3   223  THR223     -0.2208
    134  CG2       15.0030  -22.5480    8.8410 C.3   223  THR223      0.0379
    135  N         12.1590  -22.4500   10.2910 N.am  224  THR224     -0.1936
    136  CA        11.4320  -23.6150   10.7980 C.3   224  THR224      0.2028
    137  C         12.2210  -24.9520   10.6350 C.2   224  THR224      0.2642
    138  O         12.3180  -25.7490   11.6130 O.2   224  THR224     -0.2714
    139  CB        10.0420  -23.7000   10.1110 C.3   224  THR224      0.1808
    140  OG1        9.2770  -22.5100   10.4190 O.3   224  THR224     -0.2208
    141  CG2        9.2260  -24.9780   10.5400 C.3   224  THR224      0.0379
    142  N         12.6450  -25.2190    9.3810 N.am  225  ASN225     -0.1971
    143  CA        13.1110  -26.4980    8.9290 C.3   225  ASN225      0.1688
    144  C         14.5510  -26.7480    9.3420 C.2   225  ASN225      0.2292
    145  O         15.2750  -25.8590    9.7980 O.2   225  ASN225     -0.2864
    146  CB        13.0400  -26.5790    7.4090 C.3   225  ASN225      0.1181
    147  CG        11.6210  -26.7460    6.9290 C.2   225  ASN225      0.2629
    148  OD1       10.7370  -26.7660    7.7310 O.2   225  ASN225     -0.2716
    149  ND2       11.4210  -26.9080    5.6020 N.am  225  ASN225     -0.0877
    150  N         17.4550  -27.1120    7.1760 N.3   227  ARG227     -0.1245
    151  CA        17.7100  -26.9330    5.7070 C.3   227  ARG227      0.1563
    152  C         19.1170  -27.3810    5.4080 C.2   227  ARG227      0.2260
    153  O         19.9960  -27.1140    6.2020 O.2   227  ARG227     -0.2867
    154  CB        17.4670  -25.4510    5.2890 C.3   227  ARG227      0.0307
    155  CG        16.0870  -24.9520    5.8510 C.3   227  ARG227      0.0489
    156  CD        15.7030  -23.5110    5.3370 C.3   227  ARG227      0.2205
    157  NE        15.7970  -23.4280    3.8470 N.pl3 227  ARG227     -0.0865
    158  CZ        16.6830  -22.6600    3.1590 C.cat 227  ARG227      0.5346
    159  NH1       16.6810  -22.6980    1.8290 N.pl3 227  ARG227      0.1354
    160  NH2       17.6140  -21.8540    3.7470 N.pl3 227  ARG227      0.1354
    161  N         14.5050  -29.4600    4.1970 N.3   317  SER317     -0.1202
    162  CA        14.3590  -28.8860    2.8590 C.3   317  SER317      0.2020
    163  C         15.7330  -28.4420    2.3040 C.2   317  SER317      0.2618
    164  O         16.7060  -28.3160    3.0430 O.2   317  SER317     -0.2717
    165  CB        13.3060  -27.7490    2.9170 C.3   317  SER317      0.2103
    166  OG        13.7820  -26.6450    3.6960 O.3   317  SER317     -0.2182
    167  N         15.7850  -28.2090    1.0090 N.am  318  GLN318     -0.1979
    168  CA        17.0620  -27.9720    0.3130 C.3   318  GLN318      0.1601
    169  C         17.4310  -26.4980    0.5600 C.2   318  GLN318      0.2287
    170  O         16.5670  -25.6200    0.6470 O.2   318  GLN318     -0.2864
    171  CB        16.8890  -28.2920   -1.1610 C.3   318  GLN318      0.0394
    172  CG        18.1070  -28.0480   -2.0640 C.3   318  GLN318      0.0908
    173  CD        17.9650  -28.5590   -3.4800 C.2   318  GLN318      0.2608
    174  OE1       18.8350  -28.2800   -4.2970 O.2   318  GLN318     -0.2717
    175  NE2       16.9080  -29.3300   -3.7880 N.am  318  GLN318     -0.0878
@<TRIPOS>BOND
     1   174   173    2
     2   175   173   am
     3   173   172    1
     4    76    75    1
     5   172   171    1
     6    75    74    1
     7   171   168    1
     8    54    52   am
     9    37    36    2
    10    66    67    1
    11    66    65    1
    12    74    73    1
    13    46    47    1
    14   168   169    1
    15   168   167    1
    16    52    53    2
    17    52    51    1
    18    47    48    1
    19    47    50    1
    20    36    35    1
    21    49    48    2
    22    48    55   am
    23    65    64    1
    24    55    56    1
    25   169   170    2
    26    73    72    1
    27    64    63    1
    28    58    57    2
    29    56    57    1
    30   167   163   am
    31    51    50    1
    32    63    60    1
    33    57    59   am
    34    34    35    1
    35    35    38    1
    36    72    69    1
    37   159   158    1
    38    59    60    1
    39   163   162    1
    40   163   164    2
    41    60    61    1
    42    68    69    1
    43    38    39    1
    44   162   165    1
    45   162   161    1
    46   165   166    1
    47    69    70    1
    48   158   160    1
    49   158   157    2
    50    61    62    2
    51   157   156    1
    52    39    41   ar
    53    39    40   ar
    54    70    71    2
    55    70    77   am
    56    41    43   ar
    57    40    42   ar
    58    77    78    1
    59   154   151    1
    60   154   155    1
    61   156   155    1
    62   152   151    1
    63   152   153    2
    64   149   147   am
    65   151   150    1
    66    95    93    1
    67    43    44   ar
    68    42    44   ar
    69    78    81    1
    70    78    79    1
    71    81    82    1
    72    44    45    1
    73   147   146    1
    74   147   148    2
    75    93    92    1
    76   146   143    1
    77    79    80    2
    78    83    82   ar
    79    83    85   ar
    80    82    84   ar
    81    94    92    1
    82    92    89    1
    83    89    88    1
    84    89    90    1
    85    85    87   ar
    86   134   132    1
    87    84    86   ar
    88   143   144    1
    89   143   142    1
    90   133   132    1
    91    90    91    2
    92   144   145    2
    93   142   137   am
    94   132   129    1
    95    87    86   ar
    96   139   140    1
    97   139   141    1
    98   139   136    1
    99   135   136    1
   100   135   130   am
   101   129   130    1
   102   129   128    1
   103   127   126    2
   104   137   136    1
   105   137   138    2
   106    13    11   am
   107     4     3    2
   108   130   131    2
   109   109   107   ar
   110   109   108   ar
   111   128   126   am
   112   126   125    1
   113     3     2    1
   114     3     5   am
   115   107   105   ar
   116    11    10    1
   117    11    12    2
   118     2     1    1
   119    10     9    1
   120    32    31   ar
   121   117   115    1
   122   108   106   ar
   123   125   124    1
   124     6     5    1
   125     6     9    1
   126     6     7    1
   127    33    31   ar
   128    31    30    1
   129   116   114    1
   130   105   104   ar
   131   105   103   ar
   132    25    23    1
   133   106   103   ar
   134   115   114    1
   135   124   120   am
   136   104   102   ar
   137   114   111    1
   138   103   101   ar
   139     7     8    2
   140     7    14   am
   141    30    27    1
   142    14    15    1
   143    99    98    2
   144   120   121    2
   145   120   119    1
   146   102   101   ar
   147   118   119    1
   148    23    24    1
   149    23    22    1
   150   110   111    1
   151   111   112    1
   152   101   100    1
   153    15    16    1
   154    27    28    1
   155    27    26    1
   156   119   122    1
   157    29    28    2
   158    22    19    1
   159    98    97    1
   160   113   112    2
   161    96    97    1
   162   100    97    1
   163    16    17    2
   164   123   122    1
   165    19    20    1
   166    19    18    1
   167    21    20    2
