@<TRIPOS>MOLECULE
tmp/4i10A00.pdb
 174 166 0 0 0
SMALL
GASTEIGER

@<TRIPOS>ATOM
      1  N          5.4460  -23.4560   13.0620 N.3    13  GLY13      -0.1210
      2  CA         5.8600  -23.0110   11.7240 C.3    13  GLY13       0.1956
      3  C          5.9020  -21.4870   11.6060 C.2    13  GLY13       0.2612
      4  O          6.2190  -20.9600   10.5540 O.2    13  GLY13      -0.2717
      5  N          5.6190  -20.7790   12.7050 N.am   14  GLN14      -0.1965
      6  CA         5.6790  -19.2750   12.7340 C.3    14  GLN14       0.1733
      7  C          6.5930  -18.7690   13.8980 C.2    14  GLN14       0.2616
      8  O          6.4540  -17.6410   14.3620 O.2    14  GLN14      -0.2715
      9  CB         4.2490  -18.6950   12.7980 C.3    14  GLN14       0.0408
     10  CG         3.3290  -19.4590   11.8000 C.3    14  GLN14       0.0908
     11  CD         1.8780  -18.9620   11.7370 C.2    14  GLN14       0.2608
     12  OE1        1.3530  -18.3780   12.6980 O.2    14  GLN14      -0.2717
     13  NE2        1.2210  -19.2210   10.5980 N.am   14  GLN14      -0.0878
     14  N          7.5160  -19.6260   14.3570 N.am   15  GLY15      -0.1955
     15  CA         8.5820  -19.1570   15.2390 C.3    15  GLY15       0.1869
     16  C          8.0800  -18.9340   16.6510 C.2    15  GLY15       0.2309
     17  O          6.9400  -19.3590   16.9890 O.2    15  GLY15      -0.2863
     18  N          9.3560  -11.6190   17.5650 N.3    32  LEU32      -0.1245
     19  CA        10.0610  -12.8480   17.1630 C.3    32  LEU32       0.1561
     20  C         11.5290  -12.8890   17.5910 C.2    32  LEU32       0.2260
     21  O         12.2960  -11.9610   17.2950 O.2    32  LEU32      -0.2867
     22  CB         9.9820  -13.0850   15.6470 C.3    32  LEU32       0.0270
     23  CG        10.4460  -14.4020   15.0120 C.3    32  LEU32       0.0019
     24  CD1        9.4480  -15.5160   15.2140 C.3    32  LEU32       0.0001
     25  CD2       10.5500  -14.1910   13.4550 C.3    32  LEU32       0.0001
     26  N         14.9210  -14.0290   16.8160 N.3    34  ASP34      -0.1239
     27  CA        15.5620  -14.5530   15.5650 C.3    34  ASP34       0.1674
     28  C         17.1070  -14.5500   15.6590 C.2    34  ASP34       0.2266
     29  O         17.7530  -13.4970   15.5600 O.2    34  ASP34      -0.2867
     30  CB        15.0400  -13.7420   14.3890 C.3    34  ASP34       0.1410
     31  CG        15.6590  -14.1380   13.0480 C.2    34  ASP34       0.3668
     32  OD1       15.6380  -13.3030   12.1160 O.co2  34  ASP34      -0.2456
     33  OD2       16.1080  -15.2950   12.8800 O.co2  34  ASP34      -0.2456
     34  N         14.1070   -9.9080    1.5850 N.3    73  TYR73      -0.1241
     35  CA        14.3740  -11.3520    1.7310 C.3    73  TYR73       0.1605
     36  C         14.1380  -11.9710    0.3430 C.2    73  TYR73       0.2264
     37  O         13.5930  -11.2990   -0.5550 O.2    73  TYR73      -0.2867
     38  CB        13.4200  -12.0460    2.7480 C.3    73  TYR73       0.0534
     39  CG        13.7340  -11.7050    4.2390 C.ar   73  TYR73      -0.0201
     40  CD1       14.4040  -12.6150    5.0510 C.ar   73  TYR73      -0.0009
     41  CD2       13.3610  -10.4720    4.7890 C.ar   73  TYR73      -0.0009
     42  CE1       14.7030  -12.3160    6.3790 C.ar   73  TYR73       0.0417
     43  CE2       13.6200  -10.1660    6.1370 C.ar   73  TYR73       0.0417
     44  CZ        14.3090  -11.0770    6.9000 C.ar   73  TYR73       0.1957
     45  OH        14.5920  -10.7970    8.2140 O.3    73  TYR73      -0.2866
     46  N         11.9340  -14.0180   -0.0830 N.3    75  GLN75      -0.1231
     47  CA        10.4700  -14.1920   -0.0960 C.3    75  GLN75       0.1698
     48  C          9.6160  -12.9690    0.2430 C.2    75  GLN75       0.2593
     49  O          8.3930  -13.0630    0.3750 O.2    75  GLN75      -0.2718
     50  CB        10.0840  -15.3060    0.9050 C.3    75  GLN75       0.0381
     51  CG        10.6340  -16.6930    0.5610 C.3    75  GLN75       0.0905
     52  CD         9.9500  -17.7980    1.3330 C.2    75  GLN75       0.2608
     53  OE1        9.6550  -17.6690    2.5480 O.2    75  GLN75      -0.2717
     54  NE2        9.6590  -18.9040    0.6200 N.am   75  GLN75      -0.0878
     55  N         10.2310  -11.8200    0.3960 N.am   76  GLY76      -0.1942
     56  CA         9.4830  -10.7200    0.9250 C.3    76  GLY76       0.2014
     57  C         10.3820   -9.6060    1.2930 C.2    76  GLY76       0.2638
     58  O         11.5760   -9.5990    0.8930 O.2    76  GLY76      -0.2714
     59  N          9.8260   -8.6310    2.0440 N.am   77  LYS77      -0.1977
     60  CA        10.6600   -7.5600    2.5630 C.3    77  LYS77       0.1596
     61  C         10.0280   -6.7850    3.6830 C.2    77  LYS77       0.2287
     62  O          8.8210   -6.8480    3.9030 O.2    77  LYS77      -0.2864
     63  CB        11.1600   -6.5880    1.4880 C.3    77  LYS77       0.0298
     64  CG        10.0910   -5.9280    0.6590 C.3    77  LYS77       0.0038
     65  CD         9.8130   -4.4990    1.0680 C.3    77  LYS77       0.0206
     66  CE         9.2490   -3.7670   -0.1520 C.3    77  LYS77       0.1093
     67  NZ         8.1940   -2.8290    0.2380 N.3    77  LYS77      -0.1314
     68  N          6.1120   -6.6450    2.9190 N.3   108  ASP108     -0.1225
     69  CA         5.4510   -7.5520    1.9550 C.3   108  ASP108      0.1805
     70  C          5.7280   -8.9610    2.4230 C.2   108  ASP108      0.2598
     71  O          6.9210   -9.2980    2.5860 O.2   108  ASP108     -0.2718
     72  CB         6.1720   -7.4720    0.5910 C.3   108  ASP108      0.1424
     73  CG         6.0240   -6.1240   -0.1170 C.2   108  ASP108      0.3668
     74  OD1        4.9470   -5.5090   -0.0540 O.co2 108  ASP108     -0.2456
     75  OD2        6.9690   -5.6990   -0.8430 O.co2 108  ASP108     -0.2456
     76  N          4.6890   -9.7770    2.6370 N.am  109  LYS109     -0.1966
     77  CA         4.8610  -11.1700    3.0640 C.3   109  LYS109      0.1728
     78  C          5.6210  -11.3640    4.3650 C.2   109  LYS109      0.2616
     79  O          6.1350  -12.4500    4.6460 O.2   109  LYS109     -0.2715
     80  CB         5.5650  -11.9760    1.9770 C.3   109  LYS109      0.0311
     81  CG         4.9900  -11.7020    0.6040 C.3   109  LYS109      0.0038
     82  CD         4.2710  -12.8920    0.0320 C.3   109  LYS109      0.0206
     83  CE         4.5390  -12.9160   -1.4690 C.3   109  LYS109      0.1093
     84  NZ         4.0590  -14.2190   -2.0130 N.3   109  LYS109     -0.1314
     85  N          5.6940  -10.3410    5.1920 N.am  110  PHE110     -0.1974
     86  CA         6.5520  -10.4530    6.3950 C.3   110  PHE110      0.1639
     87  C          5.6600  -10.7950    7.5960 C.2   110  PHE110      0.2290
     88  O          5.8830  -11.8060    8.2180 O.2   110  PHE110     -0.2864
     89  CB         7.3710   -9.1820    6.5900 C.3   110  PHE110      0.0560
     90  CG         8.3320   -9.2400    7.7360 C.ar  110  PHE110     -0.0200
     91  CD1        9.4670  -10.0620    7.6870 C.ar  110  PHE110     -0.0042
     92  CD2        8.1120   -8.4660    8.8610 C.ar  110  PHE110     -0.0042
     93  CE1       10.3590  -10.0970    8.7610 C.ar  110  PHE110     -0.0003
     94  CE2        8.9940   -8.4820    9.9310 C.ar  110  PHE110     -0.0003
     95  CZ        10.1170   -9.3150    9.8880 C.ar  110  PHE110     -0.0000
     96  N          2.4790  -12.4270    8.7620 N.3   112  ILE112     -0.1245
     97  CA         1.5850  -13.5340    8.2820 C.3   112  ILE112      0.1561
     98  C          0.1740  -13.5550    8.9810 C.2   112  ILE112      0.2260
     99  O          0.0720  -13.2180   10.1550 O.2   112  ILE112     -0.2867
    100  CB         2.3380  -14.8930    8.4520 C.3   112  ILE112      0.0252
    101  CG1        3.5880  -14.9270    7.5430 C.3   112  ILE112      0.0019
    102  CG2        1.4590  -16.1270    8.2420 C.3   112  ILE112      0.0019
    103  CD1        3.4610  -14.1370    6.2370 C.3   112  ILE112      0.0001
    104  N          3.0180  -12.0770   16.1890 N.3   117  TRP117     -0.1241
    105  CA         4.1760  -11.2480   16.5590 C.3   117  TRP117      0.1605
    106  C          4.1220   -9.9910   15.7570 C.2   117  TRP117      0.2264
    107  O          3.6970  -10.0310   14.5880 O.2   117  TRP117     -0.2867
    108  CB         5.5340  -11.9700   16.4220 C.3   117  TRP117      0.0550
    109  CG         5.7580  -12.7210   15.1510 C.ar  117  TRP117      0.0003
    110  CD1        5.5710  -14.0830   14.9410 C.ar  117  TRP117      0.0946
    111  CD2        6.3040  -12.2280   13.8840 C.ar  117  TRP117      0.0152
    112  NE1        5.8960  -14.4400   13.6480 N.ar  117  TRP117     -0.2442
    113  CE2        6.3690  -13.3900   12.9750 C.ar  117  TRP117      0.0810
    114  CE3        6.7450  -11.0110   13.4320 C.ar  117  TRP117      0.0012
    115  CZ2        6.8450  -13.2970   11.6760 C.ar  117  TRP117      0.0191
    116  CZ3        7.2180  -10.9290   12.1080 C.ar  117  TRP117      0.0001
    117  CH2        7.2230  -12.0560   11.2450 C.ar  117  TRP117      0.0015
    118  N         10.5560   -8.1670   15.1680 N.3   120  ILE120     -0.1245
    119  CA        11.5790   -9.2370   15.1220 C.3   120  ILE120      0.1561
    120  C         12.7650   -8.7260   15.9540 C.2   120  ILE120      0.2260
    121  O         13.0820   -7.5090   15.9480 O.2   120  ILE120     -0.2867
    122  CB        11.9240   -9.5490   13.6390 C.3   120  ILE120      0.0252
    123  CG1       12.9620  -10.6690   13.4780 C.3   120  ILE120      0.0019
    124  CG2       12.3780   -8.2690   12.9440 C.3   120  ILE120      0.0019
    125  CD1       13.2000  -11.1330   11.9970 C.3   120  ILE120      0.0001
    126  N         16.9650  -19.6980   15.0280 N.3   221  SER221     -0.1202
    127  CA        15.6110  -19.8380   15.5500 C.3   221  SER221      0.2020
    128  C         14.5480  -19.1670   14.6540 C.2   221  SER221      0.2619
    129  O         13.4170  -19.3340   14.9140 O.2   221  SER221     -0.2717
    130  CB        15.5840  -19.2650   16.9450 C.3   221  SER221      0.2103
    131  OG        15.7360  -17.8140   16.8370 O.3   221  SER221     -0.2182
    132  N         14.9110  -18.4270   13.6100 N.am  222  GLY222     -0.1942
    133  CA        13.9290  -17.8090   12.6690 C.3   222  GLY222      0.2014
    134  C         13.6400  -18.6920   11.4300 C.2   222  GLY222      0.2640
    135  O         12.9340  -18.2700   10.5060 O.2   222  GLY222     -0.2714
    136  N         14.1700  -19.9130   11.4120 N.am  223  THR223     -0.1936
    137  CA        13.9260  -20.8250   10.3010 C.3   223  THR223      0.2028
    138  C         13.1710  -21.9810   10.9280 C.2   223  THR223      0.2643
    139  O         13.4680  -22.3910   12.0790 O.2   223  THR223     -0.2714
    140  CB        15.2370  -21.3330    9.6750 C.3   223  THR223      0.1808
    141  OG1       15.8160  -20.2830    8.9210 O.3   223  THR223     -0.2208
    142  CG2       15.0400  -22.5050    8.6760 C.3   223  THR223      0.0379
    143  N         12.1330  -22.4270   10.2580 N.am  224  THR224     -0.1936
    144  CA        11.4100  -23.5860   10.7470 C.3   224  THR224      0.2028
    145  C         12.1570  -24.9550   10.5880 C.2   224  THR224      0.2642
    146  O         12.2610  -25.7590   11.5450 O.2   224  THR224     -0.2714
    147  CB        10.0430  -23.6540   10.0810 C.3   224  THR224      0.1808
    148  OG1        9.2820  -22.4610   10.4290 O.3   224  THR224     -0.2208
    149  CG2        9.3000  -24.9140   10.5140 C.3   224  THR224      0.0379
    150  N         12.6610  -25.2000    9.3770 N.am  225  ASN225     -0.1971
    151  CA        13.1020  -26.5140    8.9550 C.3   225  ASN225      0.1688
    152  C         14.5400  -26.7870    9.3820 C.2   225  ASN225      0.2292
    153  O         15.2540  -25.8760    9.8670 O.2   225  ASN225     -0.2864
    154  CB        13.0300  -26.6040    7.4330 C.3   225  ASN225      0.1181
    155  CG        11.5970  -26.7380    6.9400 C.2   225  ASN225      0.2629
    156  OD1       10.7310  -26.8800    7.7570 O.2   225  ASN225     -0.2716
    157  ND2       11.3600  -26.8170    5.5950 N.am  225  ASN225     -0.0877
    158  N         17.4650  -27.1230    7.2440 N.3   227  ARG227     -0.1245
    159  CA        17.7220  -26.9590    5.7850 C.3   227  ARG227      0.1563
    160  C         19.1280  -27.4070    5.5090 C.2   227  ARG227      0.2260
    161  O         20.0240  -27.1510    6.3230 O.2   227  ARG227     -0.2867
    162  CB        17.4950  -25.4720    5.3190 C.3   227  ARG227      0.0307
    163  CG        16.0850  -24.9800    5.7500 C.3   227  ARG227      0.0489
    164  CD        15.7750  -23.5520    5.2350 C.3   227  ARG227      0.2205
    165  NE        15.8400  -23.5320    3.7730 N.pl3 227  ARG227     -0.0865
    166  CZ        15.6200  -22.4410    3.0250 C.cat 227  ARG227      0.5346
    167  NH1       15.7210  -22.5230    1.6750 N.pl3 227  ARG227      0.1354
    168  NH2       15.2660  -21.2840    3.6260 N.pl3 227  ARG227      0.1354
    169  N         14.4190  -29.5080    4.2870 N.3   317  SER317     -0.1217
    170  CA        14.3260  -28.9620    2.9410 C.3   317  SER317      0.1889
    171  C         15.6870  -28.4740    2.4360 C.2   317  SER317      0.2288
    172  O         16.6770  -28.3740    3.2020 O.2   317  SER317     -0.2866
    173  CB        13.3110  -27.8440    2.8810 C.3   317  SER317      0.2089
    174  OG        13.7720  -26.7650    3.6550 O.3   317  SER317     -0.2183
@<TRIPOS>BOND
     1    84    83    1
     2    83    82    1
     3    75    73   ar
     4    37    36    2
     5    66    67    1
     6    66    65    1
     7    73    74   ar
     8    73    72    1
     9    47    46    1
    10    47    48    1
    11    47    50    1
    12    82    81    1
    13    48    49    2
    14    48    55   am
    15    36    35    1
    16    55    56    1
    17    51    50    1
    18    51    52    1
    19    72    69    1
    20    81    80    1
    21    54    52   am
    22    64    65    1
    23    64    63    1
    24    58    57    2
    25    56    57    1
    26    57    59   am
    27    52    53    2
    28    63    60    1
    29    34    35    1
    30   167   166    1
    31    35    38    1
    32    69    70    1
    33    69    68    1
    34    80    77    1
    35    59    60    1
    36    70    71    2
    37    70    76   am
    38   171   170    1
    39   171   172    2
    40    60    61    1
    41    76    77    1
    42    38    39    1
    43   173   170    1
    44   173   174    1
    45   170   169    1
    46   166   168    1
    47   166   165    2
    48    77    78    1
    49    61    62    2
    50   165   164    1
    51    39    41   ar
    52    39    40   ar
    53    78    79    2
    54    78    85   am
    55    41    43   ar
    56    40    42   ar
    57    85    86    1
    58   164   163    1
    59   162   163    1
    60   162   159    1
    61   160   159    1
    62   160   161    2
    63   157   155   am
    64   159   158    1
    65    43    44   ar
    66   103   101    1
    67    42    44   ar
    68    86    89    1
    69    86    87    1
    70    89    90    1
    71    44    45    1
    72   155   154    1
    73   155   156    2
    74   154   151    1
    75   101   100    1
    76    87    88    2
    77    91    90   ar
    78    91    93   ar
    79    90    92   ar
    80   102   100    1
    81    97   100    1
    82    97    96    1
    83    97    98    1
    84   142   140    1
    85    93    95   ar
    86    92    94   ar
    87   141   140    1
    88   151   150    1
    89   151   152    1
    90    98    99    2
    91   150   145   am
    92   152   153    2
    93   140   137    1
    94    95    94   ar
    95   147   148    1
    96   147   149    1
    97   147   144    1
    98   143   144    1
    99   143   138   am
   100   137   138    1
   101   137   136    1
   102   135   134    2
   103     4     3    2
   104   145   144    1
   105   145   146    2
   106    13    11   am
   107   138   139    2
   108   117   115   ar
   109   117   116   ar
   110   136   134   am
   111   134   133    1
   112     3     2    1
   113     3     5   am
   114   115   113   ar
   115     2     1    1
   116    11    10    1
   117    11    12    2
   118    10     9    1
   119   125   123    1
   120   116   114   ar
   121    32    31   ar
   122   133   132    1
   123     5     6    1
   124     6     9    1
   125     6     7    1
   126    33    31   ar
   127   124   122    1
   128   113   112   ar
   129   113   111   ar
   130    31    30    1
   131   114   111   ar
   132    25    23    1
   133   123   122    1
   134   132   128   am
   135   122   119    1
   136   112   110   ar
   137   111   109   ar
   138     7    14   am
   139     7     8    2
   140    14    15    1
   141    30    27    1
   142   107   106    2
   143   128   129    2
   144   128   127    1
   145   110   109   ar
   146    23    24    1
   147    23    22    1
   148   126   127    1
   149   119   118    1
   150   119   120    1
   151   109   108    1
   152    15    16    1
   153   127   130    1
   154    29    28    2
   155    27    28    1
   156    27    26    1
   157    22    19    1
   158   106   105    1
   159   121   120    2
   160   104   105    1
   161   108   105    1
   162    16    17    2
   163   131   130    1
   164    19    18    1
   165    19    20    1
   166    21    20    2
