@<TRIPOS>MOLECULE
tmp/4i11A00.pdb
 153 145 0 0 0
SMALL
GASTEIGER

@<TRIPOS>ATOM
      1  N          5.4900  -23.2970   13.5420 N.3    15  GLY15      -0.1210
      2  CA         5.8220  -22.9810   12.1730 C.3    15  GLY15       0.1956
      3  C          5.9090  -21.4950   11.9670 C.2    15  GLY15       0.2612
      4  O          6.2680  -21.0710   10.8750 O.2    15  GLY15      -0.2717
      5  N          5.6100  -20.7030   13.0150 N.am   16  GLN16      -0.1965
      6  CA         5.7480  -19.2410   12.9310 C.3    16  GLN16       0.1733
      7  C          6.5840  -18.7120   14.1520 C.2    16  GLN16       0.2616
      8  O          6.4210  -17.6020   14.6270 O.2    16  GLN16      -0.2715
      9  CB         4.3680  -18.5980   12.7330 C.3    16  GLN16       0.0408
     10  CG         3.4370  -19.6260   12.0340 C.3    16  GLN16       0.0908
     11  CD         2.0240  -19.1430   11.7150 C.2    16  GLN16       0.2608
     12  OE1        1.3080  -18.6460   12.5910 O.2    16  GLN16      -0.2717
     13  NE2        1.5930  -19.3640   10.4450 N.am   16  GLN16      -0.0878
     14  N          7.5040  -19.5590   14.6210 N.am   17  GLY17      -0.1955
     15  CA         8.5720  -19.1390   15.5300 C.3    17  GLY17       0.1869
     16  C          8.0850  -18.9420   16.9530 C.2    17  GLY17       0.2309
     17  O          6.9420  -19.3470   17.3540 O.2    17  GLY17      -0.2863
     18  N          9.3190  -11.6010   17.7850 N.3    34  LEU34      -0.1245
     19  CA         9.9490  -12.8610   17.3450 C.3    34  LEU34       0.1561
     20  C         11.4010  -12.9430   17.8010 C.2    34  LEU34       0.2260
     21  O         12.1780  -12.0240   17.5580 O.2    34  LEU34      -0.2867
     22  CB         9.8780  -13.0460   15.7960 C.3    34  LEU34       0.0270
     23  CG        10.3550  -14.3960   15.2220 C.3    34  LEU34       0.0019
     24  CD1        9.2020  -15.4050   15.3690 C.3    34  LEU34       0.0001
     25  CD2       10.6460  -14.1650   13.6680 C.3    34  LEU34       0.0001
     26  N         14.9040  -14.1310   17.0140 N.3    36  ASP36      -0.1239
     27  CA        15.5060  -14.5090   15.7280 C.3    36  ASP36       0.1674
     28  C         17.0310  -14.5640   15.7740 C.2    36  ASP36       0.2266
     29  O         17.6850  -13.5090   15.6690 O.2    36  ASP36      -0.2867
     30  CB        15.0550  -13.5810   14.5850 C.3    36  ASP36       0.1410
     31  CG        15.6140  -14.0380   13.2010 C.2    36  ASP36       0.3668
     32  OD1       15.6550  -13.2390   12.2300 O.co2  36  ASP36      -0.2456
     33  OD2       16.0280  -15.2190   13.0930 O.co2  36  ASP36      -0.2456
     34  N         13.8680   -9.9620    1.5220 N.3    75  TYR75      -0.1241
     35  CA        13.9890  -11.3880    1.7650 C.3    75  TYR75       0.1605
     36  C         13.7970  -12.1820    0.4650 C.2    75  TYR75       0.2264
     37  O         13.3210  -11.6620   -0.5120 O.2    75  TYR75      -0.2867
     38  CB        12.9720  -11.8750    2.7790 C.3    75  TYR75       0.0534
     39  CG        13.2740  -11.5360    4.2110 C.ar   75  TYR75      -0.0201
     40  CD1       13.9860  -12.3860    4.9900 C.ar   75  TYR75      -0.0009
     41  CD2       12.8050  -10.3730    4.7820 C.ar   75  TYR75      -0.0009
     42  CE1       14.2480  -12.0940    6.2510 C.ar   75  TYR75       0.0417
     43  CE2       13.0650  -10.0760    6.0590 C.ar   75  TYR75       0.0417
     44  CZ        13.7780  -10.9350    6.7930 C.ar   75  TYR75       0.1957
     45  OH        14.0670  -10.6490    8.0720 O.3    75  TYR75      -0.2866
     46  N         11.2930  -14.0520   -0.3970 N.3    77  GLN77      -0.1231
     47  CA        10.0340  -13.6770   -1.0100 C.3    77  GLN77       0.1698
     48  C          9.3180  -12.4670   -0.4400 C.2    77  GLN77       0.2592
     49  O          8.3000  -12.0560   -0.9720 O.2    77  GLN77      -0.2718
     50  CB         9.0780  -14.8710   -1.1870 C.3    77  GLN77       0.0381
     51  CG         9.4390  -15.7280   -2.3790 C.3    77  GLN77       0.0905
     52  CD         8.2770  -16.1580   -3.2430 C.2    77  GLN77       0.2608
     53  OE1        7.5340  -15.3340   -3.7670 O.2    77  GLN77      -0.2717
     54  NE2        8.1400  -17.4650   -3.4340 N.am   77  GLN77      -0.0878
     55  N          9.8450  -11.8720    0.6000 N.am   78  GLY78      -0.1957
     56  CA         9.2090  -10.6980    1.1010 C.3    78  GLY78       0.1869
     57  C         10.1410   -9.5650    1.3210 C.2    78  GLY78       0.2309
     58  O         11.2710   -9.6040    0.9210 O.2    78  GLY78      -0.2863
     59  N          4.5330   -9.6680    2.7950 N.3   111  LYS111     -0.1231
     60  CA         4.6970  -11.0770    3.1040 C.3   111  LYS111      0.1693
     61  C          5.6060  -11.3070    4.2870 C.2   111  LYS111      0.2592
     62  O          6.3340  -12.3000    4.3240 O.2   111  LYS111     -0.2718
     63  CB         5.1650  -11.8640    1.8570 C.3   111  LYS111      0.0285
     64  CG         4.0250  -11.9770    0.8590 C.3   111  LYS111      0.0035
     65  CD         4.5080  -12.6120   -0.4260 C.3   111  LYS111      0.0206
     66  CE         4.1330  -11.7000   -1.6030 C.3   111  LYS111      0.1093
     67  NZ         4.7910  -12.1360   -2.8800 N.3   111  LYS111     -0.1314
     68  N          5.5140  -10.3870    5.2550 N.am  112  PHE112     -0.1976
     69  CA         6.3510  -10.3850    6.4800 C.3   112  PHE112      0.1639
     70  C          5.4670  -10.7130    7.6850 C.2   112  PHE112      0.2290
     71  O          5.6220  -11.7590    8.2650 O.2   112  PHE112     -0.2864
     72  CB         7.0980   -9.0490    6.6580 C.3   112  PHE112      0.0560
     73  CG         8.1320   -9.0820    7.7620 C.ar  112  PHE112     -0.0200
     74  CD1        9.2360   -9.8780    7.6520 C.ar  112  PHE112     -0.0042
     75  CD2        7.9340   -8.3680    8.9460 C.ar  112  PHE112     -0.0042
     76  CE1       10.2000   -9.9320    8.6920 C.ar  112  PHE112     -0.0003
     77  CE2        8.8680   -8.3960    9.9790 C.ar  112  PHE112     -0.0003
     78  CZ         9.9960   -9.1930    9.8780 C.ar  112  PHE112     -0.0000
     79  N          2.2350  -12.3160    8.7000 N.3   114  ILE114     -0.1245
     80  CA         1.3160  -13.3840    8.2200 C.3   114  ILE114      0.1561
     81  C         -0.0220  -13.4040    9.0150 C.2   114  ILE114      0.2260
     82  O         -0.0250  -13.1390   10.2010 O.2   114  ILE114     -0.2867
     83  CB         2.0490  -14.7640    8.4530 C.3   114  ILE114      0.0252
     84  CG1        3.2960  -14.8790    7.5640 C.3   114  ILE114      0.0019
     85  CG2        1.1020  -15.9710    8.2880 C.3   114  ILE114      0.0019
     86  CD1        4.4780  -15.6220    8.2290 C.3   114  ILE114      0.0001
     87  N          3.0310  -12.1010   16.4310 N.3   119  TRP119     -0.1241
     88  CA         4.1700  -11.2150   16.7400 C.3   119  TRP119      0.1605
     89  C          4.0570   -9.9470   15.9130 C.2   119  TRP119      0.2264
     90  O          3.5410   -9.9730   14.7590 O.2   119  TRP119     -0.2867
     91  CB         5.5690  -11.8970   16.6130 C.3   119  TRP119      0.0550
     92  CG         5.7680  -12.7070   15.3790 C.ar  119  TRP119      0.0003
     93  CD1        5.5040  -14.0440   15.2300 C.ar  119  TRP119      0.0946
     94  CD2        6.2380  -12.2460   14.0970 C.ar  119  TRP119      0.0152
     95  NE1        5.8180  -14.4460   13.9590 N.ar  119  TRP119     -0.2442
     96  CE2        6.2490  -13.3660   13.2310 C.ar  119  TRP119      0.0810
     97  CE3        6.6740  -11.0140   13.6110 C.ar  119  TRP119      0.0012
     98  CZ2        6.6980  -13.2920   11.8860 C.ar  119  TRP119      0.0191
     99  CZ3        7.1090  -10.9220   12.2710 C.ar  119  TRP119      0.0001
    100  CH2        7.1170  -12.0690   11.4210 C.ar  119  TRP119      0.0015
    101  N         10.5080   -8.1350   15.2700 N.3   122  ILE122     -0.1245
    102  CA        11.4930   -9.1880   15.3040 C.3   122  ILE122      0.1561
    103  C         12.7020   -8.7180   16.1110 C.2   122  ILE122      0.2260
    104  O         13.0970   -7.5290   16.0500 O.2   122  ILE122     -0.2867
    105  CB        11.8710   -9.5530   13.8280 C.3   122  ILE122      0.0252
    106  CG1       12.9810  -10.6040   13.7700 C.3   122  ILE122      0.0019
    107  CG2       12.1820   -8.2990   13.1150 C.3   122  ILE122      0.0019
    108  CD1       13.0980  -11.1630   12.3000 C.3   122  ILE122      0.0001
    109  N         19.6370  -21.1600   13.8700 N.3   226  ASP226     -0.1239
    110  CA        18.6190  -20.0930   13.4950 C.3   226  ASP226      0.1674
    111  C         17.2580  -20.4030   14.0290 C.2   226  ASP226      0.2266
    112  O         16.4770  -21.1350   13.3760 O.2   226  ASP226     -0.2867
    113  CB        18.4910  -20.0140   11.9460 C.3   226  ASP226      0.1410
    114  CG        17.6940  -18.7970   11.5300 C.2   226  ASP226      0.3668
    115  OD1       17.2930  -18.0470   12.4230 O.co2 226  ASP226     -0.2456
    116  OD2       17.4150  -18.6110   10.3530 O.co2 226  ASP226     -0.2456
    117  N         14.9060  -18.4780   13.8990 N.3   228  GLY228     -0.1210
    118  CA        13.9790  -17.8400   12.9760 C.3   228  GLY228      0.1956
    119  C         13.6530  -18.6990   11.7530 C.2   228  GLY228      0.2613
    120  O         12.9000  -18.2590   10.8710 O.2   228  GLY228     -0.2717
    121  N         14.1430  -19.9280   11.7110 N.am  229  THR229     -0.1938
    122  CA        13.8510  -20.8340   10.5820 C.3   229  THR229      0.2028
    123  C         13.0930  -22.0470   11.1270 C.2   229  THR229      0.2643
    124  O         13.4220  -22.5230   12.2130 O.2   229  THR229     -0.2714
    125  CB        15.1560  -21.2830    9.9140 C.3   229  THR229      0.1808
    126  OG1       15.6690  -20.1590    9.1690 O.3   229  THR229     -0.2208
    127  CG2       14.9660  -22.4930    8.9610 C.3   229  THR229      0.0379
    128  N         12.0770  -22.5250   10.4100 N.am  230  THR230     -0.1936
    129  CA        11.3910  -23.7280   10.8780 C.3   230  THR230      0.2028
    130  C         12.1960  -25.0200   10.7190 C.2   230  THR230      0.2642
    131  O         12.4290  -25.7360   11.7230 O.2   230  THR230     -0.2714
    132  CB         9.9780  -23.8640   10.2620 C.3   230  THR230      0.1808
    133  OG1        9.1920  -22.7160   10.6380 O.3   230  THR230     -0.2208
    134  CG2        9.2670  -25.0960   10.7900 C.3   230  THR230      0.0379
    135  N         12.5490  -25.3500    9.4700 N.am  231  ASN231     -0.1971
    136  CA        13.0800  -26.6520    9.0880 C.3   231  ASN231      0.1688
    137  C         14.5750  -26.8190    9.4320 C.2   231  ASN231      0.2292
    138  O         15.2490  -25.8740    9.8250 O.2   231  ASN231     -0.2864
    139  CB        12.9970  -26.8360    7.5440 C.3   231  ASN231      0.1181
    140  CG        11.6020  -26.9280    7.0520 C.2   231  ASN231      0.2629
    141  OD1       10.6830  -27.0250    7.8490 O.2   231  ASN231     -0.2716
    142  ND2       11.4250  -26.9650    5.6880 N.am  231  ASN231     -0.0877
    143  N         17.4580  -27.1680    7.2900 N.3   233  ARG233     -0.1245
    144  CA        17.7510  -26.9970    5.8430 C.3   233  ARG233      0.1563
    145  C         19.1430  -27.5100    5.5520 C.2   233  ARG233      0.2260
    146  O         20.0560  -27.2730    6.3410 O.2   233  ARG233     -0.2867
    147  CB        17.5720  -25.5130    5.4630 C.3   233  ARG233      0.0307
    148  CG        16.1780  -24.9360    6.0540 C.3   233  ARG233      0.0489
    149  CD        15.9090  -23.4820    5.5280 C.3   233  ARG233      0.2205
    150  NE        15.9090  -23.4070    4.0610 N.pl3 233  ARG233     -0.0865
    151  CZ        16.8320  -22.7900    3.2950 C.cat 233  ARG233      0.5346
    152  NH1       16.7070  -22.8030    1.9690 N.pl3 233  ARG233      0.1354
    153  NH2       17.8680  -22.1300    3.8230 N.pl3 233  ARG233      0.1354
@<TRIPOS>BOND
     1    53    52    2
     2    54    52   am
     3    52    51    1
     4    67    66    1
     5    51    50    1
     6    66    65    1
     7    50    47    1
     8    47    48    1
     9    47    46    1
    10    49    48    2
    11    37    36    2
    12    48    55   am
    13    65    64    1
    14    36    35    1
    15    55    56    1
    16    64    63    1
    17    58    57    2
    18    56    57    1
    19    34    35    1
    20    35    38    1
    21    63    60    1
    22   152   151    1
    23    38    39    1
    24    59    60    1
    25    60    61    1
    26   151   153    1
    27   151   150    2
    28   150   149    1
    29    39    41   ar
    30    39    40   ar
    31    61    62    2
    32    61    68   am
    33    41    43   ar
    34    40    42   ar
    35    68    69    1
    36   147   144    1
    37   147   148    1
    38   149   148    1
    39   145   144    1
    40   145   146    2
    41   142   140   am
    42   144   143    1
    43    43    44   ar
    44    42    44   ar
    45    69    72    1
    46    69    70    1
    47    72    73    1
    48    44    45    1
    49   140   139    1
    50   140   141    2
    51   139   136    1
    52    84    86    1
    53    84    83    1
    54    74    73   ar
    55    74    76   ar
    56    70    71    2
    57    73    75   ar
    58    80    83    1
    59    80    79    1
    60    80    81    1
    61    85    83    1
    62    76    78   ar
    63    75    77   ar
    64   127   125    1
    65    81    82    2
    66   136   137    1
    67   136   135    1
    68   126   125    1
    69   137   138    2
    70   135   130   am
    71    78    77   ar
    72   125   122    1
    73   132   133    1
    74   132   134    1
    75   132   129    1
    76   116   114   ar
    77   128   129    1
    78   128   123   am
    79    13    11   am
    80   122   123    1
    81   122   121    1
    82   130   129    1
    83   130   131    2
    84   120   119    2
    85     4     3    2
    86   123   124    2
    87   100    98   ar
    88   100    99   ar
    89   114   113    1
    90   114   115   ar
    91   121   119   am
    92    11    10    1
    93    11    12    2
    94   119   118    1
    95    98    96   ar
    96   113   110    1
    97     3     2    1
    98     3     5   am
    99    10     9    1
   100     2     1    1
   101    32    31   ar
   102    99    97   ar
   103   108   106    1
   104     9     6    1
   105     6     5    1
   106     6     7    1
   107   118   117    1
   108    33    31   ar
   109   107   105    1
   110    31    30    1
   111    96    95   ar
   112    96    94   ar
   113   112   111    2
   114   110   109    1
   115   110   111    1
   116    97    94   ar
   117    25    23    1
   118   106   105    1
   119   105   102    1
   120    95    93   ar
   121    94    92   ar
   122     7    14   am
   123     7     8    2
   124    30    27    1
   125    14    15    1
   126    90    89    2
   127    23    24    1
   128    23    22    1
   129    93    92   ar
   130   101   102    1
   131   102   103    1
   132    92    91    1
   133    15    16    1
   134    29    28    2
   135    27    28    1
   136    27    26    1
   137    22    19    1
   138    89    88    1
   139   104   103    2
   140    87    88    1
   141    91    88    1
   142    16    17    2
   143    19    18    1
   144    19    20    1
   145    21    20    2
