@<TRIPOS>MOLECULE
tmp/4i12A00.pdb
 197 189 0 0 0
SMALL
GASTEIGER

@<TRIPOS>ATOM
      1  N          7.1660  -23.7060   16.6190 N.3     9  SER9       -0.1202
      2  CA         8.0880  -23.7430   15.4790 C.3     9  SER9        0.2020
      3  C          7.4910  -23.2180   14.1780 C.2     9  SER9        0.2619
      4  O          8.2070  -22.6890   13.3450 O.2     9  SER9       -0.2717
      5  CB         8.5490  -25.1740   15.2420 C.3     9  SER9        0.2103
      6  OG         7.4390  -25.9580   14.8310 O.3     9  SER9       -0.2182
      7  N          6.1820  -23.3950   13.9890 N.am   10  GLY10      -0.1942
      8  CA         5.5380  -23.0440   12.7230 C.3    10  GLY10       0.2014
      9  C          5.4570  -21.5380   12.5170 C.2    10  GLY10       0.2639
     10  O          5.3510  -21.0290   11.3720 O.2    10  GLY10      -0.2714
     11  N          5.5020  -20.8130   13.6310 N.am   11  GLN11      -0.1963
     12  CA         5.1900  -19.3840   13.5970 C.3    11  GLN11       0.1733
     13  C          6.0770  -18.5630   14.5400 C.2    11  GLN11       0.2617
     14  O          5.9340  -17.3440   14.6320 O.2    11  GLN11      -0.2715
     15  CB         3.6750  -19.1700   13.8210 C.3    11  GLN11       0.0408
     16  CG         2.8440  -19.6250   12.6120 C.3    11  GLN11       0.0908
     17  CD         1.4020  -20.0210   12.9080 C.2    11  GLN11       0.2608
     18  OE1        1.0540  -20.4120   14.0250 O.2    11  GLN11      -0.2717
     19  NE2        0.5560  -19.9470   11.8810 N.am   11  GLN11      -0.0878
     20  N          7.0030  -19.2460   15.2170 N.am   12  GLY12      -0.1940
     21  CA         8.0980  -18.5970   15.9570 C.3    12  GLY12       0.2014
     22  C          7.9210  -18.3910   17.4550 C.2    12  GLY12       0.2638
     23  O          6.8370  -18.5800   17.9980 O.2    12  GLY12      -0.2714
     24  N          9.0030  -17.9870   18.1160 N.am   13  TYR13      -0.1973
     25  CA         9.0040  -17.7960   19.5620 C.3    13  TYR13       0.1639
     26  C          9.3000  -16.3500   19.8360 C.2    13  TYR13       0.2290
     27  O         10.2790  -15.8440   19.2770 O.2    13  TYR13      -0.2864
     28  CB        10.0840  -18.6460   20.2120 C.3    13  TYR13       0.0560
     29  CG         9.6990  -20.1000   20.2210 C.ar   13  TYR13      -0.0198
     30  CD1        9.1940  -20.7270   21.3960 C.ar   13  TYR13      -0.0009
     31  CD2        9.8660  -20.8500   19.0720 C.ar   13  TYR13      -0.0009
     32  CE1        8.8590  -22.0840   21.3720 C.ar   13  TYR13       0.0417
     33  CE2        9.5810  -22.2120   19.0420 C.ar   13  TYR13       0.0417
     34  CZ         9.0600  -22.8240   20.1750 C.ar   13  TYR13       0.1957
     35  OH         8.7730  -24.1730   20.0790 O.3    13  TYR13      -0.2866
     36  N          9.4290  -11.6350   18.0590 N.3    29  LEU29      -0.1245
     37  CA        10.0100  -12.8710   17.6060 C.3    29  LEU29       0.1561
     38  C         11.5260  -12.8210   17.7950 C.2    29  LEU29       0.2260
     39  O         12.1640  -11.8670   17.3860 O.2    29  LEU29      -0.2867
     40  CB         9.7660  -13.0460   16.1370 C.3    29  LEU29       0.0270
     41  CG        10.4500  -14.3310   15.5210 C.3    29  LEU29       0.0019
     42  CD1        9.4520  -15.4600   15.6350 C.3    29  LEU29       0.0001
     43  CD2       10.6860  -14.0560   14.0690 C.3    29  LEU29       0.0001
     44  N         15.0890  -13.8740   16.7920 N.3    31  ASP31      -0.1239
     45  CA        15.6650  -14.2360   15.4720 C.3    31  ASP31       0.1674
     46  C         17.2160  -14.2100   15.4860 C.2    31  ASP31       0.2266
     47  O         17.8740  -13.1240   15.4030 O.2    31  ASP31      -0.2867
     48  CB        15.1330  -13.3640   14.3150 C.3    31  ASP31       0.1410
     49  CG        15.7080  -13.8030   12.9270 C.2    31  ASP31       0.3668
     50  OD1       15.7300  -13.0540   11.9020 O.co2  31  ASP31      -0.2456
     51  OD2       16.1950  -14.9350   12.8630 O.co2  31  ASP31      -0.2456
     52  N         13.9640   -9.9750    1.4020 N.3    70  TYR70      -0.1241
     53  CA        14.2130  -11.3810    1.6610 C.3    70  TYR70       0.1605
     54  C         13.8560  -12.1200    0.3390 C.2    70  TYR70       0.2264
     55  O         13.1680  -11.5620   -0.5610 O.2    70  TYR70      -0.2867
     56  CB        13.3220  -11.8770    2.8250 C.3    70  TYR70       0.0534
     57  CG        13.7630  -11.5670    4.2430 C.ar   70  TYR70      -0.0201
     58  CD1       14.2990  -12.5840    5.0590 C.ar   70  TYR70      -0.0009
     59  CD2       13.5880  -10.2880    4.8110 C.ar   70  TYR70      -0.0009
     60  CE1       14.7030  -12.3490    6.3310 C.ar   70  TYR70       0.0417
     61  CE2       14.0060  -10.0240    6.1180 C.ar   70  TYR70       0.0417
     62  CZ        14.5600  -11.0580    6.8840 C.ar   70  TYR70       0.1957
     63  OH        14.9780  -10.8630    8.1810 O.3    70  TYR70      -0.2866
     64  N         11.7260  -14.1720   -0.4500 N.3    72  GLN72      -0.1231
     65  CA        10.3230  -13.9300   -0.6770 C.3    72  GLN72       0.1698
     66  C          9.6150  -13.0890    0.3720 C.2    72  GLN72       0.2593
     67  O          9.1060  -13.5980    1.3550 O.2    72  GLN72      -0.2718
     68  CB         9.5770  -15.2020   -1.0550 C.3    72  GLN72       0.0381
     69  CG         9.2600  -15.1900   -2.5470 C.3    72  GLN72       0.0905
     70  CD         8.6110  -16.4610   -3.0420 C.2    72  GLN72       0.2608
     71  OE1        7.7160  -17.0170   -2.4000 O.2    72  GLN72      -0.2717
     72  NE2        9.0600  -16.9280   -4.2000 N.am   72  GLN72      -0.0878
     73  N          9.5900  -11.7850    0.1080 N.am   73  GLY73      -0.1942
     74  CA         8.9190  -10.8240    0.9590 C.3    73  GLY73       0.2014
     75  C          9.9350   -9.7780    1.3430 C.2    73  GLY73       0.2638
     76  O         11.0770   -9.8220    0.8340 O.2    73  GLY73      -0.2714
     77  N          9.5330   -8.8460    2.2300 N.am   74  LYS74      -0.1977
     78  CA        10.3980   -7.7400    2.6200 C.3    74  LYS74       0.1596
     79  C          9.7620   -6.9570    3.7200 C.2    74  LYS74       0.2287
     80  O          8.5570   -7.0080    3.8770 O.2    74  LYS74      -0.2864
     81  CB        10.6440   -6.7980    1.4470 C.3    74  LYS74       0.0298
     82  CG        10.7010   -7.5660    0.1340 C.3    74  LYS74       0.0038
     83  CD        11.3370   -6.8650   -1.0640 C.3    74  LYS74       0.0206
     84  CE        11.5630   -7.8950   -2.1660 C.3    74  LYS74       0.1093
     85  NZ        12.0950   -7.2720   -3.4140 N.3    74  LYS74      -0.1314
     86  N          5.7950   -6.8960    2.8990 N.3   105  ASP105     -0.1225
     87  CA         5.1910   -7.9360    2.1000 C.3   105  ASP105      0.1805
     88  C          5.6280   -9.3200    2.5680 C.2   105  ASP105      0.2598
     89  O          6.8180   -9.6300    2.4810 O.2   105  ASP105     -0.2718
     90  CB         5.6800   -7.8100    0.6520 C.3   105  ASP105      0.1424
     91  CG         4.9390   -8.7460   -0.2760 C.2   105  ASP105      0.3668
     92  OD1        3.7100   -8.9370   -0.0560 O.co2 105  ASP105     -0.2456
     93  OD2        5.5940   -9.3040   -1.1880 O.co2 105  ASP105     -0.2456
     94  N          4.6600  -10.1240    3.0210 N.am  106  LYS106     -0.1966
     95  CA         4.8120  -11.5530    3.3090 C.3   106  LYS106      0.1728
     96  C          5.7080  -11.7690    4.5330 C.2   106  LYS106      0.2616
     97  O          6.3030  -12.8110    4.6830 O.2   106  LYS106     -0.2715
     98  CB         5.3010  -12.3300    2.0650 C.3   106  LYS106      0.0311
     99  CG         4.3940  -12.1120    0.8650 C.3   106  LYS106      0.0038
    100  CD         3.8240  -13.4080    0.3300 C.3   106  LYS106      0.0206
    101  CE         2.7730  -13.0970   -0.7420 C.3   106  LYS106      0.1093
    102  NZ         2.4150  -14.2880   -1.5700 N.3   106  LYS106     -0.1314
    103  N          5.7600  -10.7720    5.4150 N.am  107  PHE107     -0.1974
    104  CA         6.6040  -10.7940    6.6120 C.3   107  PHE107      0.1639
    105  C          5.7640  -11.2060    7.8360 C.2   107  PHE107      0.2290
    106  O          6.0790  -12.1760    8.5470 O.2   107  PHE107     -0.2864
    107  CB         7.2040   -9.3980    6.7820 C.3   107  PHE107      0.0560
    108  CG         8.0970   -9.2700    7.9460 C.ar  107  PHE107     -0.0200
    109  CD1        9.2840  -10.0040    8.0000 C.ar  107  PHE107     -0.0042
    110  CD2        7.7680   -8.4210    8.9850 C.ar  107  PHE107     -0.0042
    111  CE1       10.1510   -9.8920    9.0900 C.ar  107  PHE107     -0.0003
    112  CE2        8.6020   -8.2850   10.0650 C.ar  107  PHE107     -0.0003
    113  CZ         9.7990   -9.0300   10.1390 C.ar  107  PHE107     -0.0000
    114  N          2.7340  -12.9220    9.6060 N.3   109  ILE109     -0.1245
    115  CA         1.8370  -14.0060    9.2600 C.3   109  ILE109      0.1561
    116  C          0.5950  -14.0450   10.1180 C.2   109  ILE109      0.2260
    117  O          0.6300  -13.8210   11.3480 O.2   109  ILE109     -0.2867
    118  CB         2.5310  -15.3780    9.1500 C.3   109  ILE109      0.0252
    119  CG1        3.2970  -15.7110   10.4430 C.3   109  ILE109      0.0019
    120  CG2        3.3830  -15.4100    7.8880 C.3   109  ILE109      0.0019
    121  CD1        3.7230  -17.1630   10.5540 C.3   109  ILE109      0.0001
    122  N          3.0690  -12.0810   17.1750 N.3   114  TRP114     -0.1241
    123  CA         4.2260  -11.2210   17.3660 C.3   114  TRP114      0.1605
    124  C          4.1490  -10.0710   16.4250 C.2   114  TRP114      0.2264
    125  O          3.6290  -10.1890   15.3130 O.2   114  TRP114     -0.2867
    126  CB         5.5670  -11.9840   17.2560 C.3   114  TRP114      0.0550
    127  CG         5.6620  -12.8060   16.0190 C.ar  114  TRP114      0.0003
    128  CD1        5.2730  -14.1440   15.8610 C.ar  114  TRP114      0.0946
    129  CD2        6.1450  -12.3770   14.7080 C.ar  114  TRP114      0.0152
    130  NE1        5.4840  -14.5480   14.5600 N.ar  114  TRP114     -0.2442
    131  CE2        6.0380  -13.5430   13.8280 C.ar  114  TRP114      0.0810
    132  CE3        6.7370  -11.2250   14.2210 C.ar  114  TRP114      0.0012
    133  CZ2        6.4310  -13.5000   12.4920 C.ar  114  TRP114      0.0191
    134  CZ3        7.1250  -11.1860   12.8700 C.ar  114  TRP114      0.0001
    135  CH2        6.9810  -12.3020   12.0270 C.ar  114  TRP114      0.0015
    136  N         10.5600   -8.2620   15.2840 N.3   117  ILE117     -0.1245
    137  CA        11.6400   -9.2450   15.3020 C.3   117  ILE117      0.1561
    138  C         12.8200   -8.6310   16.1120 C.2   117  ILE117      0.2260
    139  O         13.1440   -7.4020   16.0270 O.2   117  ILE117     -0.2867
    140  CB        11.9870   -9.6060   13.8190 C.3   117  ILE117      0.0252
    141  CG1       12.9560  -10.7170   13.6680 C.3   117  ILE117      0.0019
    142  CG2       12.6010   -8.3880   13.0600 C.3   117  ILE117      0.0019
    143  CD1       13.4550  -10.7330   12.2230 C.3   117  ILE117      0.0001
    144  N         17.0830  -19.3510   14.9180 N.3   213  SER213     -0.1202
    145  CA        15.7730  -19.4610   15.5670 C.3   213  SER213      0.2020
    146  C         14.6610  -18.8450   14.7470 C.2   213  SER213      0.2619
    147  O         13.5070  -19.0940   15.0840 O.2   213  SER213     -0.2717
    148  CB        15.7770  -18.8260   16.9380 C.3   213  SER213      0.2103
    149  OG        15.9630  -17.4260   16.7020 O.3   213  SER213     -0.2182
    150  N         15.0050  -18.0750   13.6810 N.am  214  GLY214     -0.1942
    151  CA        14.0060  -17.4400   12.7690 C.3   214  GLY214      0.2014
    152  C         13.5980  -18.2890   11.5710 C.2   214  GLY214      0.2640
    153  O         12.7390  -17.8960   10.7420 O.2   214  GLY214     -0.2714
    154  N         14.2290  -19.4670   11.4560 N.am  215  THR215     -0.1936
    155  CA        13.9430  -20.4100   10.3720 C.3   215  THR215      0.2028
    156  C         13.1930  -21.6210   10.9740 C.2   215  THR215      0.2643
    157  O         13.6060  -22.1240   12.0290 O.2   215  THR215     -0.2714
    158  CB        15.2260  -20.8170    9.6230 C.3   215  THR215      0.1808
    159  OG1       15.7300  -19.7050    8.8630 O.3   215  THR215     -0.2208
    160  CG2       14.9510  -22.0500    8.5940 C.3   215  THR215      0.0379
    161  N         12.1070  -22.0970   10.3260 N.am  216  THR216     -0.1936
    162  CA        11.3720  -23.2400   10.9060 C.3   216  THR216      0.2028
    163  C         12.2000  -24.5390   10.6660 C.2   216  THR216      0.2642
    164  O         12.4540  -25.3260   11.5590 O.2   216  THR216     -0.2714
    165  CB         9.9450  -23.4320   10.2990 C.3   216  THR216      0.1808
    166  OG1        9.1350  -22.2840   10.5890 O.3   216  THR216     -0.2208
    167  CG2        9.2360  -24.6870   10.8960 C.3   216  THR216      0.0379
    168  N         12.5650  -24.7630    9.4240 N.am  217  ASN217     -0.1971
    169  CA        13.1110  -26.0700    9.0090 C.3   217  ASN217      0.1688
    170  C         14.5770  -26.3240    9.3340 C.2   217  ASN217      0.2292
    171  O         15.3140  -25.4290    9.7370 O.2   217  ASN217     -0.2864
    172  CB        12.8750  -26.2470    7.5040 C.3   217  ASN217      0.1181
    173  CG        11.4170  -26.5360    7.1790 C.2   217  ASN217      0.2629
    174  OD1       10.5940  -26.5380    8.0480 O.2   217  ASN217     -0.2716
    175  ND2       11.0850  -26.7430    5.8950 N.am  217  ASN217     -0.0877
    176  N         17.4380  -26.8600    7.1670 N.3   219  ARG219     -0.1245
    177  CA        17.6430  -26.6430    5.7370 C.3   219  ARG219      0.1563
    178  C         19.0610  -27.1550    5.4050 C.2   219  ARG219      0.2260
    179  O         19.9720  -26.9670    6.2010 O.2   219  ARG219     -0.2867
    180  CB        17.4990  -25.1260    5.3680 C.3   219  ARG219      0.0307
    181  CG        16.1220  -24.5200    5.7130 C.3   219  ARG219      0.0489
    182  CD        16.0150  -23.0540    5.2410 C.3   219  ARG219      0.2205
    183  NE        15.8190  -22.9950    3.8070 N.pl3 219  ARG219     -0.0865
    184  CZ        16.5620  -22.2930    2.9620 C.cat 219  ARG219      0.5346
    185  NH1       16.2760  -22.3420    1.6670 N.pl3 219  ARG219      0.1354
    186  NH2       17.5900  -21.5460    3.3960 N.pl3 219  ARG219      0.1354
    187  N         14.2610  -29.0870    4.3240 N.3   305  SER305     -0.1217
    188  CA        14.1510  -28.5390    2.9550 C.3   305  SER305      0.1889
    189  C         15.4850  -28.1710    2.3480 C.2   305  SER305      0.2288
    190  O         16.4770  -28.0470    3.0410 O.2   305  SER305     -0.2866
    191  CB        13.1340  -27.3680    2.8520 C.3   305  SER305      0.2089
    192  OG        13.5110  -26.3170    3.6910 O.3   305  SER305     -0.2183
    193  N         14.3130  -23.8420   13.9700 N.3   315  ALA315     -0.1245
    194  CA        13.6120  -24.0470   15.2110 C.3   315  ALA315      0.1562
    195  C         13.2730  -25.5120   15.4140 C.2   315  ALA315      0.2260
    196  O         13.3150  -25.9520   16.5430 O.2   315  ALA315     -0.2867
    197  CB        12.2920  -23.2280   15.2290 C.3   315  ALA315      0.0290
@<TRIPOS>BOND
     1    72    70   am
     2    85    84    1
     3    70    69    1
     4    70    71    2
     5    69    68    1
     6    84    83    1
     7   102   101    1
     8    93    91   ar
     9    83    82    1
    10    68    65    1
    11   101   100    1
    12    65    64    1
    13    65    66    1
    14    55    54    2
    15    91    92   ar
    16    91    90    1
    17    73    66   am
    18    73    74    1
    19    82    81    1
    20   100    99    1
    21    54    53    1
    22    66    67    2
    23    90    87    1
    24    76    75    2
    25    99    98    1
    26    74    75    1
    27    75    77   am
    28    52    53    1
    29    81    78    1
    30    53    56    1
    31   185   184    1
    32    98    95    1
    33    87    88    1
    34    87    86    1
    35    77    78    1
    36   189   188    1
    37   189   190    2
    38    89    88    2
    39    88    94   am
    40    78    79    1
    41    56    57    1
    42   191   188    1
    43   191   192    1
    44   188   187    1
    45   184   186    1
    46   184   183    2
    47    94    95    1
    48    95    96    1
    49    79    80    2
    50   183   182    1
    51    57    59   ar
    52    57    58   ar
    53    96    97    2
    54    96   103   am
    55    59    61   ar
    56    58    60   ar
    57   182   181    1
    58   180   181    1
    59   180   177    1
    60   178   177    1
    61   178   179    2
    62   103   104    1
    63   177   176    1
    64   175   173   am
    65    61    62   ar
    66    60    62   ar
    67   104   107    1
    68   104   105    1
    69   107   108    1
    70    62    63    1
    71   173   172    1
    72   173   174    2
    73   172   169    1
    74   105   106    2
    75   120   118    1
    76   108   109   ar
    77   108   110   ar
    78   109   111   ar
    79   160   158    1
    80   159   158    1
    81   110   112   ar
    82   169   170    1
    83   169   168    1
    84   111   113   ar
    85   118   115    1
    86   118   119    1
    87   115   114    1
    88   115   116    1
    89   170   171    2
    90   168   163   am
    91   158   155    1
    92   112   113   ar
    93   116   117    2
    94   165   166    1
    95   165   167    1
    96   165   162    1
    97   161   162    1
    98   161   156   am
    99   155   156    1
   100   155   154    1
   101   119   121    1
   102   163   162    1
   103   163   164    2
   104   153   152    2
   105   156   157    2
   106    10     9    2
   107   154   152   am
   108   152   151    1
   109    19    17   am
   110    50    49   ar
   111   135   133   ar
   112   135   134   ar
   113   143   141    1
   114   133   131   ar
   115     9     8    1
   116     9    11   am
   117    16    17    1
   118    16    15    1
   119     8     7    1
   120   151   150    1
   121    51    49   ar
   122   134   132   ar
   123    17    18    2
   124    49    48    1
   125   142   140    1
   126     4     3    2
   127    12    11    1
   128    12    15    1
   129    12    13    1
   130   141   140    1
   131   150   146   am
   132   140   137    1
   133   131   130   ar
   134   131   129   ar
   135   193   194    1
   136     7     3   am
   137    43    41    1
   138     3     2    1
   139   132   129   ar
   140    48    45    1
   141    13    14    2
   142    13    20   am
   143   130   128   ar
   144   129   127   ar
   145   146   147    2
   146   146   145    1
   147     6     5    1
   148   144   145    1
   149   194   197    1
   150   194   195    1
   151    20    21    1
   152     5     2    1
   153   136   137    1
   154   137   138    1
   155   125   124    2
   156    47    46    2
   157   195   196    2
   158    45    46    1
   159    45    44    1
   160     2     1    1
   161    41    42    1
   162    41    40    1
   163   145   148    1
   164   128   127   ar
   165    21    22    1
   166   127   126    1
   167   139   138    2
   168    40    37    1
   169   124   123    1
   170   149   148    1
   171   122   123    1
   172   126   123    1
   173    39    38    2
   174    22    23    2
   175    22    24   am
   176    37    38    1
   177    37    36    1
   178    24    25    1
   179    33    31   ar
   180    33    34   ar
   181    31    29   ar
   182    27    26    2
   183    25    26    1
   184    25    28    1
   185    35    34    1
   186    34    32   ar
   187    28    29    1
   188    29    30   ar
   189    32    30   ar
