@<TRIPOS>MOLECULE
tmp/4i1cA00.pdb
 191 184 0 0 0
SMALL
GASTEIGER

@<TRIPOS>ATOM
      1  N          7.2010  -23.7280   16.4180 N.3    12  SER12      -0.1202
      2  CA         8.0710  -23.7760   15.2130 C.3    12  SER12       0.2020
      3  C          7.4440  -23.2040   13.9290 C.2    12  SER12       0.2619
      4  O          8.1470  -22.6050   13.0820 O.2    12  SER12      -0.2717
      5  CB         8.5930  -25.2150   14.9640 C.3    12  SER12       0.2103
      6  OG         7.5150  -26.0740   14.5890 O.3    12  SER12      -0.2182
      7  N          6.1270  -23.3680   13.8060 N.am   13  GLY13      -0.1942
      8  CA         5.3840  -22.9420   12.6210 C.3    13  GLY13       0.2014
      9  C          5.2870  -21.4310   12.4580 C.2    13  GLY13       0.2639
     10  O          5.3210  -20.9150   11.3140 O.2    13  GLY13      -0.2714
     11  N          5.2010  -20.7430   13.6080 N.am   14  GLN14      -0.1963
     12  CA         4.8340  -19.3090   13.7180 C.3    14  GLN14       0.1733
     13  C          5.8860  -18.4960   14.4930 C.2    14  GLN14       0.2617
     14  O          5.8500  -17.2530   14.5050 O.2    14  GLN14      -0.2715
     15  CB         3.4730  -19.1510   14.4360 C.3    14  GLN14       0.0408
     16  CG         2.3590  -20.1380   14.0450 C.3    14  GLN14       0.0908
     17  CD         2.4470  -21.4850   14.7730 C.2    14  GLN14       0.2608
     18  OE1        2.7510  -21.5540   15.9760 O.2    14  GLN14      -0.2717
     19  NE2        2.1780  -22.5630   14.0430 N.am   14  GLN14      -0.0878
     20  N          6.7810  -19.2110   15.1790 N.am   15  GLY15      -0.1940
     21  CA         7.9470  -18.6220   15.8210 C.3    15  GLY15       0.2014
     22  C          7.9120  -18.4850   17.3320 C.2    15  GLY15       0.2638
     23  O          6.8920  -18.7300   17.9790 O.2    15  GLY15      -0.2714
     24  N          9.0420  -18.0780   17.8990 N.am   16  TYR16      -0.1973
     25  CA         9.1260  -17.8420   19.3390 C.3    16  TYR16       0.1639
     26  C          9.3620  -16.4040   19.6540 C.2    16  TYR16       0.2290
     27  O         10.3330  -15.8250   19.1530 O.2    16  TYR16      -0.2864
     28  CB        10.2150  -18.7000   19.9510 C.3    16  TYR16       0.0560
     29  CG         9.7730  -20.1560   20.0100 C.ar   16  TYR16      -0.0198
     30  CD1        9.8800  -20.9630   18.8690 C.ar   16  TYR16      -0.0009
     31  CD2        9.2540  -20.7400   21.2190 C.ar   16  TYR16      -0.0009
     32  CE1        9.5280  -22.3190   18.8950 C.ar   16  TYR16       0.0417
     33  CE2        8.8670  -22.0940   21.2410 C.ar   16  TYR16       0.0417
     34  CZ         9.0050  -22.8740   20.0610 C.ar   16  TYR16       0.1957
     35  OH         8.6800  -24.2110   19.9970 O.3    16  TYR16      -0.2866
     36  N          9.3590  -11.5890   17.9120 N.3    32  LEU32      -0.1245
     37  CA         9.9860  -12.8040   17.3850 C.3    32  LEU32       0.1561
     38  C         11.5130  -12.7880   17.5980 C.2    32  LEU32       0.2260
     39  O         12.1810  -11.9190   17.0840 O.2    32  LEU32      -0.2867
     40  CB         9.6860  -12.9740   15.8710 C.3    32  LEU32       0.0270
     41  CG        10.3000  -14.2910   15.2740 C.3    32  LEU32       0.0019
     42  CD1        9.3120  -15.3620   15.6560 C.3    32  LEU32       0.0001
     43  CD2       10.4190  -14.2590   13.7400 C.3    32  LEU32       0.0001
     44  N         15.0770  -13.9490   16.7060 N.3    34  ASP34      -0.1239
     45  CA        15.6400  -14.3460   15.4050 C.3    34  ASP34       0.1674
     46  C         17.1870  -14.3020   15.4560 C.2    34  ASP34       0.2266
     47  O         17.8270  -13.2090   15.3910 O.2    34  ASP34      -0.2867
     48  CB        14.9790  -13.5060   14.2760 C.3    34  ASP34       0.1410
     49  CG        15.5430  -13.8560   12.8460 C.2    34  ASP34       0.3668
     50  OD1       15.6010  -13.0040   11.9190 O.co2  34  ASP34      -0.2456
     51  OD2       16.0250  -14.9780   12.6770 O.co2  34  ASP34      -0.2456
     52  N         13.9300   -9.9400    1.3090 N.3    73  TYR73      -0.1241
     53  CA        14.1410  -11.3250    1.5040 C.3    73  TYR73       0.1605
     54  C         13.7600  -12.0220    0.1990 C.2    73  TYR73       0.2264
     55  O         13.0440  -11.4380   -0.6320 O.2    73  TYR73      -0.2867
     56  CB        13.1670  -11.7710    2.5810 C.3    73  TYR73       0.0534
     57  CG        13.6180  -11.4630    3.9860 C.ar   73  TYR73      -0.0201
     58  CD1       14.2270  -12.4540    4.7470 C.ar   73  TYR73      -0.0009
     59  CD2       13.3820  -10.2130    4.5820 C.ar   73  TYR73      -0.0009
     60  CE1       14.6230  -12.2340    6.0550 C.ar   73  TYR73       0.0417
     61  CE2       13.7770   -9.9970    5.9040 C.ar   73  TYR73       0.0417
     62  CZ        14.4060  -11.0170    6.6280 C.ar   73  TYR73       0.1957
     63  OH        14.8090  -10.8620    7.9470 O.3    73  TYR73      -0.2866
     64  N         11.6860  -14.1800   -0.0940 N.3    75  GLN75      -0.1231
     65  CA        10.2600  -14.4770    0.0660 C.3    75  GLN75       0.1698
     66  C          9.3560  -13.2330    0.1910 C.2    75  GLN75       0.2593
     67  O          8.1470  -13.3130   -0.0670 O.2    75  GLN75      -0.2718
     68  CB        10.0580  -15.4240    1.2880 C.3    75  GLN75       0.0381
     69  CG        10.6700  -16.8080    1.1290 C.3    75  GLN75       0.0905
     70  CD        10.4100  -17.7060    2.3250 C.2    75  GLN75       0.2608
     71  OE1        9.2640  -17.9140    2.7260 O.2    75  GLN75      -0.2717
     72  NE2       11.4770  -18.2530    2.8960 N.am   75  GLN75      -0.0878
     73  N          9.9280  -12.0900    0.5620 N.am   76  GLY76      -0.1942
     74  CA         9.1300  -10.8870    0.8960 C.3    76  GLY76       0.2014
     75  C         10.0310   -9.7110    1.1940 C.2    76  GLY76       0.2638
     76  O         11.1170   -9.6110    0.6000 O.2    76  GLY76      -0.2714
     77  N          9.6010   -8.8210    2.1090 N.am   77  LYS77      -0.1977
     78  CA        10.4290   -7.6740    2.5210 C.3    77  LYS77       0.1596
     79  C          9.7860   -6.8960    3.6410 C.2    77  LYS77       0.2287
     80  O          8.5860   -7.0020    3.8600 O.2    77  LYS77      -0.2864
     81  CB        10.6420   -6.6580    1.3950 C.3    77  LYS77       0.0298
     82  CG         9.3840   -5.8390    1.0740 C.3    77  LYS77       0.0038
     83  CD         9.7150   -4.4950    0.4600 C.3    77  LYS77       0.0206
     84  CE         8.4770   -3.8080   -0.1070 C.3    77  LYS77       0.1093
     85  NZ         7.9180   -2.8720    0.8890 N.3    77  LYS77      -0.1314
     86  N          5.9060   -6.8200    3.0120 N.3   108  ASP108     -0.1225
     87  CA         5.2180   -7.7730    2.2060 C.3   108  ASP108      0.1805
     88  C          5.6040   -9.1980    2.6160 C.2   108  ASP108      0.2598
     89  O          6.7640   -9.5760    2.5030 O.2   108  ASP108     -0.2718
     90  CB         5.6200   -7.5670    0.7580 C.3   108  ASP108      0.1424
     91  CG         4.8300   -8.4640   -0.1950 C.2   108  ASP108      0.3668
     92  OD1        3.6310   -8.7270    0.0700 O.co2 108  ASP108     -0.2456
     93  OD2        5.4190   -8.9150   -1.1960 O.co2 108  ASP108     -0.2456
     94  N          4.6250   -9.9720    3.0690 N.am  109  LYS109     -0.1966
     95  CA         4.7990  -11.3800    3.3020 C.3   109  LYS109      0.1728
     96  C          5.6660  -11.6820    4.5280 C.2   109  LYS109      0.2616
     97  O          6.1380  -12.8170    4.6900 O.2   109  LYS109     -0.2715
     98  CB         5.2940  -12.0960    2.0230 C.3   109  LYS109      0.0311
     99  CG         4.1090  -12.6150    1.2120 C.3   109  LYS109      0.0038
    100  CD         4.5170  -13.1500   -0.1330 C.3   109  LYS109      0.0206
    101  CE         5.3450  -12.0820   -0.8470 C.3   109  LYS109      0.1093
    102  NZ         4.9500  -11.8600   -2.2700 N.3   109  LYS109     -0.1314
    103  N          5.8350  -10.6570    5.3870 N.am  110  PHE110     -0.1974
    104  CA         6.6460  -10.7290    6.6000 C.3   110  PHE110      0.1639
    105  C          5.7970  -11.1100    7.8630 C.2   110  PHE110      0.2290
    106  O          6.1550  -12.0060    8.6640 O.2   110  PHE110     -0.2864
    107  CB         7.2640   -9.3500    6.8090 C.3   110  PHE110      0.0560
    108  CG         8.2040   -9.2750    7.9690 C.ar  110  PHE110     -0.0200
    109  CD1        9.4110   -9.9750    7.9570 C.ar  110  PHE110     -0.0042
    110  CD2        7.8810   -8.5230    9.0900 C.ar  110  PHE110     -0.0042
    111  CE1       10.3050   -9.9040    9.0500 C.ar  110  PHE110     -0.0003
    112  CE2        8.7450   -8.4350   10.1940 C.ar  110  PHE110     -0.0003
    113  CZ         9.9720   -9.1140   10.1730 C.ar  110  PHE110     -0.0000
    114  N          2.6240  -12.7740    9.6590 N.3   112  ILE112     -0.1245
    115  CA         1.7540  -13.8710    9.2620 C.3   112  ILE112      0.1561
    116  C          0.4940  -13.8970   10.0960 C.2   112  ILE112      0.2260
    117  O          0.5130  -13.5370   11.2800 O.2   112  ILE112     -0.2867
    118  CB         2.4580  -15.2570    9.2560 C.3   112  ILE112      0.0252
    119  CG1        2.9640  -15.6680   10.6630 C.3   112  ILE112      0.0019
    120  CG2        3.5680  -15.2780    8.2350 C.3   112  ILE112      0.0019
    121  CD1        3.2970  -17.1620   10.8090 C.3   112  ILE112      0.0001
    122  N          2.9600  -12.1580   17.1520 N.3   117  TRP117     -0.1241
    123  CA         4.1190  -11.2600   17.3010 C.3   117  TRP117      0.1605
    124  C          4.0900  -10.1050   16.3440 C.2   117  TRP117      0.2264
    125  O          3.5710  -10.1960   15.2450 O.2   117  TRP117     -0.2867
    126  CB         5.4630  -12.0350   17.2700 C.3   117  TRP117      0.0550
    127  CG         5.5920  -12.8090   16.0120 C.ar  117  TRP117      0.0003
    128  CD1        5.2410  -14.1430   15.8090 C.ar  117  TRP117      0.0946
    129  CD2        6.0340  -12.3100   14.6950 C.ar  117  TRP117      0.0152
    130  NE1        5.4440  -14.4970   14.4870 N.ar  117  TRP117     -0.2442
    131  CE2        5.9220  -13.4400   13.7690 C.ar  117  TRP117      0.0810
    132  CE3        6.5030  -11.0930   14.2190 C.ar  117  TRP117      0.0012
    133  CZ2        6.2700  -13.3340   12.4310 C.ar  117  TRP117      0.0191
    134  CZ3        6.8500  -10.9950   12.8730 C.ar  117  TRP117      0.0001
    135  CH2        6.7450  -12.0950   12.0010 C.ar  117  TRP117      0.0015
    136  N         10.4840   -8.2360   15.2360 N.3   120  ILE120     -0.1245
    137  CA        11.5890   -9.1810   15.1390 C.3   120  ILE120      0.1561
    138  C         12.7800   -8.6270   15.9640 C.2   120  ILE120      0.2260
    139  O         13.0250   -7.3990   15.9770 O.2   120  ILE120     -0.2867
    140  CB        11.9400   -9.3610   13.6440 C.3   120  ILE120      0.0252
    141  CG1       12.7790  -10.6190   13.3750 C.3   120  ILE120      0.0019
    142  CG2       12.5470   -8.0810   13.0810 C.3   120  ILE120      0.0019
    143  CD1       12.8990  -10.9940   11.8820 C.3   120  ILE120      0.0001
    144  N         16.9980  -19.6110   14.7250 N.3   216  SER216     -0.1202
    145  CA        15.6900  -19.6120   15.3690 C.3   216  SER216      0.2020
    146  C         14.5610  -18.9660   14.5550 C.2   216  SER216      0.2619
    147  O         13.3960  -19.1820   14.8700 O.2   216  SER216     -0.2717
    148  CB        15.8190  -18.9230   16.7140 C.3   216  SER216      0.2103
    149  OG        15.9770  -17.4990   16.5710 O.3   216  SER216     -0.2182
    150  N         14.9190  -18.2860   13.4440 N.am  217  GLY217     -0.1942
    151  CA        13.9720  -17.5970   12.5820 C.3   217  GLY217      0.2014
    152  C         13.5080  -18.3950   11.3690 C.2   217  GLY217      0.2640
    153  O         12.6020  -17.9610   10.6850 O.2   217  GLY217     -0.2714
    154  N         14.1040  -19.5830   11.1350 N.am  218  THR218     -0.1936
    155  CA        13.6920  -20.4630   10.0790 C.3   218  THR218      0.2028
    156  C         13.0360  -21.6520   10.7110 C.2   218  THR218      0.2643
    157  O         13.5010  -22.1060   11.7460 O.2   218  THR218     -0.2714
    158  CB        14.9840  -20.9530    9.4040 C.3   218  THR218      0.1808
    159  OG1       15.5500  -19.8730    8.6700 O.3   218  THR218     -0.2208
    160  CG2       14.7590  -22.2040    8.4670 C.3   218  THR218      0.0379
    161  N         11.9680  -22.1780   10.1140 N.am  219  THR219     -0.1936
    162  CA        11.3190  -23.3550   10.6600 C.3   219  THR219      0.2028
    163  C         12.1200  -24.6490   10.4240 C.2   219  THR219      0.2642
    164  O         12.3950  -25.4100   11.3670 O.2   219  THR219     -0.2714
    165  CB         9.8870  -23.5210   10.0970 C.3   219  THR219      0.1808
    166  OG1        9.0500  -22.4440   10.5570 O.3   219  THR219     -0.2208
    167  CG2        9.2840  -24.8350   10.4960 C.3   219  THR219      0.0379
    168  N         12.4690  -24.9160    9.1620 N.am  220  ASN220     -0.1971
    169  CA        13.0300  -26.2200    8.7760 C.3   220  ASN220      0.1688
    170  C         14.5250  -26.4270    9.1450 C.2   220  ASN220      0.2292
    171  O         15.2530  -25.4830    9.4190 O.2   220  ASN220     -0.2864
    172  CB        12.8520  -26.4030    7.2590 C.3   220  ASN220      0.1181
    173  CG        11.4020  -26.5990    6.8900 C.2   220  ASN220      0.2629
    174  OD1       10.5520  -26.6230    7.7740 O.2   220  ASN220     -0.2716
    175  ND2       11.0930  -26.6760    5.5890 N.am  220  ASN220     -0.0877
    176  N         17.4220  -26.9140    6.9610 N.3   222  ARG222     -0.1245
    177  CA        17.6470  -26.6800    5.5040 C.3   222  ARG222      0.1563
    178  C         19.0370  -27.2550    5.2230 C.2   222  ARG222      0.2260
    179  O         19.9100  -27.1320    6.0710 O.2   222  ARG222     -0.2867
    180  CB        17.5120  -25.1450    5.1860 C.3   222  ARG222      0.0307
    181  CG        16.1460  -24.5240    5.6170 C.3   222  ARG222      0.0489
    182  CD        15.8830  -23.1040    5.0770 C.3   222  ARG222      0.2205
    183  NE        15.7880  -23.1980    3.6260 N.pl3 222  ARG222     -0.0865
    184  CZ        16.4940  -22.4880    2.7350 C.cat 222  ARG222      0.5346
    185  NH1       16.3550  -22.7340    1.4320 N.pl3 222  ARG222      0.1354
    186  NH2       17.3330  -21.5440    3.1190 N.pl3 222  ARG222      0.1354
    187  N         14.3400  -23.9260   13.7470 N.3   322  ALA322     -0.1245
    188  CA        13.5590  -24.1370   14.9610 C.3   322  ALA322      0.1562
    189  C         13.1860  -25.5960   15.1550 C.2   322  ALA322      0.2260
    190  O         13.1870  -26.0570   16.3140 O.2   322  ALA322     -0.2867
    191  CB        12.2380  -23.2860   14.9470 C.3   322  ALA322      0.0290
@<TRIPOS>BOND
     1   102   101    1
     2    93    91   ar
     3   101   100    1
     4    55    54    2
     5    91    92   ar
     6    91    90    1
     7   100    99    1
     8    84    83    1
     9    84    85    1
    10    64    65    1
    11    67    66    2
    12    65    66    1
    13    65    68    1
    14    66    73   am
    15    54    53    1
    16    83    82    1
    17    73    74    1
    18    76    75    2
    19    90    87    1
    20    74    75    1
    21    82    81    1
    22    69    68    1
    23    69    70    1
    24    75    77   am
    25    99    98    1
    26    52    53    1
    27    81    78    1
    28   185   184    1
    29    53    56    1
    30    98    95    1
    31    77    78    1
    32    87    88    1
    33    87    86    1
    34    70    71    2
    35    70    72   am
    36    89    88    2
    37    78    79    1
    38    56    57    1
    39    88    94   am
    40   184   186    1
    41   184   183    2
    42    94    95    1
    43    95    96    1
    44   183   182    1
    45    79    80    2
    46    57    59   ar
    47    57    58   ar
    48    96    97    2
    49    96   103   am
    50    59    61   ar
    51    58    60   ar
    52   182   181    1
    53   180   177    1
    54   180   181    1
    55   178   177    1
    56   178   179    2
    57   103   104    1
    58   177   176    1
    59   175   173   am
    60    61    62   ar
    61    60    62   ar
    62   104   107    1
    63   104   105    1
    64    62    63    1
    65   107   108    1
    66   173   172    1
    67   173   174    2
    68   172   169    1
    69   105   106    2
    70   109   108   ar
    71   109   111   ar
    72   108   110   ar
    73   120   118    1
    74   160   158    1
    75   159   158    1
    76   169   170    1
    77   169   168    1
    78   111   113   ar
    79   110   112   ar
    80   170   171    2
    81   168   163   am
    82   118   115    1
    83   118   119    1
    84   115   114    1
    85   115   116    1
    86   158   155    1
    87   155   156    1
    88   155   154    1
    89   116   117    2
    90   165   167    1
    91   165   166    1
    92   165   162    1
    93   161   162    1
    94   161   156   am
    95   113   112   ar
    96   163   162    1
    97   163   164    2
    98   119   121    1
    99   153   152    2
   100   156   157    2
   101   154   152   am
   102    10     9    2
   103   152   151    1
   104   143   141    1
   105    50    49   ar
   106   135   133   ar
   107   135   134   ar
   108   133   131   ar
   109     9     8    1
   110     9    11   am
   111   151   150    1
   112     8     7    1
   113    51    49   ar
   114    49    48    1
   115   134   132   ar
   116   142   140    1
   117     4     3    2
   118   141   140    1
   119   150   146   am
   120    11    12    1
   121   140   137    1
   122    12    15    1
   123    12    13    1
   124    43    41    1
   125   187   188    1
   126   131   130   ar
   127   131   129   ar
   128     7     3   am
   129     3     2    1
   130    19    17   am
   131    16    15    1
   132    16    17    1
   133   132   129   ar
   134    48    45    1
   135   130   128   ar
   136    13    14    2
   137    13    20   am
   138   146   147    2
   139   146   145    1
   140     6     5    1
   141   129   127   ar
   142   144   145    1
   143    17    18    2
   144   191   188    1
   145   188   189    1
   146     5     2    1
   147   137   136    1
   148   137   138    1
   149   189   190    2
   150    20    21    1
   151     2     1    1
   152   125   124    2
   153    41    42    1
   154    41    40    1
   155   145   148    1
   156    47    46    2
   157    45    46    1
   158    45    44    1
   159   128   127   ar
   160    21    22    1
   161    40    37    1
   162   138   139    2
   163   127   126    1
   164   124   123    1
   165   149   148    1
   166    39    38    2
   167   122   123    1
   168   126   123    1
   169    22    24   am
   170    22    23    2
   171    37    38    1
   172    37    36    1
   173    24    25    1
   174    30    32   ar
   175    30    29   ar
   176    32    34   ar
   177    27    26    2
   178    25    26    1
   179    25    28    1
   180    28    29    1
   181    35    34    1
   182    29    31   ar
   183    34    33   ar
   184    31    33   ar
