@<TRIPOS>MOLECULE
tmp/4i1oC03.pdb
 92 90 0 0 0
SMALL
GASTEIGER

@<TRIPOS>ATOM
      1  N        108.4690  -38.5260   10.6150 N.3     7  LYS7       -0.1231
      2  CA       107.6090  -39.2430    9.6900 C.3     7  LYS7        0.1693
      3  C        106.2630  -39.5530   10.3090 C.2     7  LYS7        0.2592
      4  O        106.1740  -40.2790   11.2860 O.2     7  LYS7       -0.2718
      5  CB       108.2840  -40.5310    9.2290 C.3     7  LYS7        0.0285
      6  CG       109.2310  -40.3180    8.0890 C.3     7  LYS7        0.0035
      7  CD       110.4870  -41.1430    8.2240 C.3     7  LYS7        0.0206
      8  CE       110.2290  -42.5970    7.9390 C.3     7  LYS7        0.1093
      9  NZ       111.4970  -43.3630    7.9170 N.3     7  LYS7       -0.1314
     10  N        105.2130  -39.0070    9.7180 N.am    8  LEU8       -0.1966
     11  CA       103.8760  -39.1910   10.2400 C.3     8  LEU8        0.1728
     12  C        103.0050  -40.0110    9.3080 C.2     8  LEU8        0.2616
     13  O        103.2410  -40.0730    8.1120 O.2     8  LEU8       -0.2715
     14  CB       103.2160  -37.8420   10.4770 C.3     8  LEU8        0.0311
     15  CG       104.0360  -36.7950   11.2110 C.3     8  LEU8        0.0022
     16  CD1      103.1260  -35.6820   11.6550 C.3     8  LEU8        0.0001
     17  CD2      104.7420  -37.4100   12.3800 C.3     8  LEU8        0.0001
     18  N        101.9800  -40.6290    9.8660 N.am    9  LEU9       -0.1977
     19  CA       101.0620  -41.4190    9.0800 C.3     9  LEU9        0.1596
     20  C         99.6380  -41.1530    9.5350 C.2     9  LEU9        0.2287
     21  O         99.3680  -41.0580   10.7240 O.2     9  LEU9       -0.2864
     22  CB       101.4090  -42.8950    9.2260 C.3     9  LEU9        0.0297
     23  CG       100.7510  -43.9320    8.3210 C.3     9  LEU9        0.0022
     24  CD1      101.0530  -43.6770    6.8690 C.3     9  LEU9        0.0001
     25  CD2      101.2350  -45.2940    8.7190 C.3     9  LEU9        0.0001
     26  N        107.3280  -35.4140    7.2500 N.3    57  GLN57      -0.1245
     27  CA       107.1180  -36.2360    6.0730 C.3    57  GLN57       0.1566
     28  C        105.8610  -37.0560    6.2840 C.2    57  GLN57       0.2260
     29  O        105.8910  -38.0950    6.9280 O.2    57  GLN57      -0.2867
     30  CB       108.3150  -37.1480    5.8680 C.3    57  GLN57       0.0367
     31  CG       108.3690  -37.8370    4.5400 C.3    57  GLN57       0.0905
     32  CD       109.4710  -38.8560    4.4830 C.2    57  GLN57       0.2608
     33  OE1      109.2510  -40.0380    4.7180 O.2    57  GLN57      -0.2717
     34  NE2      110.6730  -38.4020    4.1760 N.am   57  GLN57      -0.0878
     35  N        102.4590  -39.2170    5.5070 N.3    59  TRP59      -0.1241
     36  CA       101.9040  -40.2090    4.6100 C.3    59  TRP59       0.1605
     37  C        100.4260  -40.4300    4.8370 C.2    59  TRP59       0.2264
     38  O         99.9810  -40.6570    5.9480 O.2    59  TRP59      -0.2867
     39  CB       102.6280  -41.5350    4.7720 C.3    59  TRP59       0.0550
     40  CG       104.0690  -41.4830    4.4600 C.ar   59  TRP59       0.0003
     41  CD1      105.0590  -41.0450    5.2710 C.ar   59  TRP59       0.0946
     42  CD2      104.6980  -41.9090    3.2560 C.ar   59  TRP59       0.0152
     43  NE1      106.2690  -41.1570    4.6500 N.ar   59  TRP59      -0.2442
     44  CE2      106.0740  -41.6880    3.4080 C.ar   59  TRP59       0.0810
     45  CE3      104.2320  -42.4570    2.0610 C.ar   59  TRP59       0.0012
     46  CZ2      106.9850  -41.9900    2.4180 C.ar   59  TRP59       0.0191
     47  CZ3      105.1350  -42.7510    1.0830 C.ar   59  TRP59       0.0001
     48  CH2      106.4970  -42.5180    1.2630 C.ar   59  TRP59       0.0015
     49  N         99.9360  -51.1790    5.6190 N.3    72  SER72      -0.1202
     50  CA       100.5580  -51.6320    6.8480 C.3    72  SER72       0.2020
     51  C        102.0660  -51.5300    6.7860 C.2    72  SER72       0.2619
     52  O        102.7270  -51.3430    7.7960 O.2    72  SER72      -0.2717
     53  CB       100.1290  -53.0590    7.1730 C.3    72  SER72       0.2103
     54  OG       100.3460  -53.9090    6.0730 O.3    72  SER72      -0.2182
     55  N        102.6110  -51.6380    5.5890 N.am   73  SER73      -0.1937
     56  CA       104.0470  -51.6660    5.4420 C.3    73  SER73       0.2055
     57  C        104.6610  -50.3450    5.8380 C.2    73  SER73       0.2643
     58  O        105.8550  -50.2630    6.0830 O.2    73  SER73      -0.2714
     59  CB       104.4290  -52.0240    4.0140 C.3    73  SER73       0.2130
     60  OG       103.7140  -51.2320    3.0960 O.3    73  SER73      -0.2179
     61  N        103.8440  -49.3100    5.9150 N.am   74  TYR74      -0.1973
     62  CA       104.3540  -47.9880    6.2190 C.3    74  TYR74       0.1639
     63  C        104.2130  -47.6510    7.6860 C.2    74  TYR74       0.2290
     64  O        104.6350  -46.5940    8.1220 O.2    74  TYR74      -0.2864
     65  CB       103.6200  -46.9440    5.4010 C.3    74  TYR74       0.0560
     66  CG       104.0180  -46.8730    3.9530 C.ar   74  TYR74      -0.0198
     67  CD1      103.5220  -47.7680    3.0300 C.ar   74  TYR74      -0.0009
     68  CD2      104.8650  -45.8840    3.5010 C.ar   74  TYR74      -0.0009
     69  CE1      103.8760  -47.6890    1.7080 C.ar   74  TYR74       0.0417
     70  CE2      105.2200  -45.7980    2.1850 C.ar   74  TYR74       0.0417
     71  CZ       104.7250  -46.7020    1.2940 C.ar   74  TYR74       0.1957
     72  OH       105.0860  -46.6060   -0.0220 O.3    74  TYR74      -0.2866
     73  N        105.3840  -49.3820   10.6170 N.3    76  ARG76      -0.1231
     74  CA       106.5140  -49.6110   11.5090 C.3    76  ARG76       0.1694
     75  C        107.5880  -48.5320   11.5290 C.2    76  ARG76       0.2593
     76  O        108.3770  -48.4580   12.4610 O.2    76  ARG76      -0.2718
     77  CB       107.1510  -50.9580   11.1850 C.3    76  ARG76       0.0321
     78  CG       108.3990  -51.2560   11.9570 C.3    76  ARG76       0.0489
     79  CD       108.5090  -52.7340   12.2320 C.3    76  ARG76       0.2205
     80  NE       107.5610  -53.1620   13.2540 N.pl3  76  ARG76      -0.0865
     81  CZ       107.4590  -54.4070   13.7030 C.cat  76  ARG76       0.5346
     82  NH1      108.2510  -55.3500   13.2160 N.pl3  76  ARG76       0.1354
     83  NH2      106.5680  -54.7070   14.6370 N.pl3  76  ARG76       0.1354
     84  N        107.6190  -47.6980   10.5060 N.am   77  GLY77      -0.1942
     85  CA       108.6950  -46.7460   10.3500 C.3    77  GLY77       0.2014
     86  C        108.2340  -45.3500   10.6690 C.2    77  GLY77       0.2638
     87  O        108.8920  -44.3750   10.3390 O.2    77  GLY77      -0.2714
     88  N        107.0900  -45.2530   11.3220 N.am   78  ALA78      -0.1977
     89  CA       106.5180  -43.9590   11.6080 C.3    78  ALA78       0.1597
     90  C        106.8600  -43.5410   13.0190 C.2    78  ALA78       0.2287
     91  O        106.9920  -44.3740   13.9070 O.2    78  ALA78      -0.2864
     92  CB       105.0300  -43.9930   11.4070 C.3    78  ALA78       0.0319
@<TRIPOS>BOND
     1    72    71    1
     2    47    48   ar
     3    47    45   ar
     4    48    46   ar
     5    71    69   ar
     6    71    70   ar
     7    69    67   ar
     8    45    42   ar
     9    70    68   ar
    10    46    44   ar
    11    67    66   ar
    12    60    59    1
    13    42    44   ar
    14    42    40   ar
    15    44    43   ar
    16    68    66   ar
    17    66    65    1
    18    59    56    1
    19    34    32   am
    20    40    39    1
    21    40    41   ar
    22    32    31    1
    23    32    33    2
    24    31    30    1
    25    36    39    1
    26    36    37    1
    27    36    35    1
    28    43    41   ar
    29    37    38    2
    30    65    62    1
    31    56    55    1
    32    56    57    1
    33    55    51   am
    34    49    50    1
    35    57    61   am
    36    57    58    2
    37    30    27    1
    38    61    62    1
    39    27    28    1
    40    27    26    1
    41    54    53    1
    42    62    63    1
    43    28    29    2
    44    51    50    1
    45    51    52    2
    46    50    53    1
    47    24    23    1
    48    63    64    2
    49     9     8    1
    50     8     7    1
    51     6     7    1
    52     6     5    1
    53    13    12    2
    54    23    25    1
    55    23    22    1
    56    19    22    1
    57    19    20    1
    58    19    18    1
    59     5     2    1
    60    12    18   am
    61    12    11    1
    62    20    21    2
    63     2     3    1
    64     2     1    1
    65    10    11    1
    66    10     3   am
    67    11    14    1
    68     3     4    2
    69    87    86    2
    70    85    84    1
    71    85    86    1
    72    14    15    1
    73    84    75   am
    74    73    74    1
    75    86    88   am
    76    77    74    1
    77    77    78    1
    78    15    16    1
    79    15    17    1
    80    88    89    1
    81    92    89    1
    82    74    75    1
    83    75    76    2
    84    89    90    1
    85    78    79    1
    86    79    80    1
    87    90    91    2
    88    82    81    1
    89    80    81    2
    90    81    83    1
