@<TRIPOS>MOLECULE
tmp/4i1oG01.pdb
 91 84 0 0 0
SMALL
GASTEIGER

@<TRIPOS>ATOM
      1  N         91.2360 -116.8480    1.4480 N.3    30  TYR30      -0.1241
      2  CA        90.2270 -115.8440    1.1990 C.3    30  TYR30       0.1605
      3  C         89.3930 -115.6550    2.4520 C.2    30  TYR30       0.2264
      4  O         88.7260 -116.5810    2.8980 O.2    30  TYR30      -0.2867
      5  CB        89.3410 -116.2840    0.0440 C.3    30  TYR30       0.0534
      6  CG        88.1950 -115.3550   -0.2340 C.ar   30  TYR30      -0.0201
      7  CD1       88.3590 -114.2410   -1.0250 C.ar   30  TYR30      -0.0009
      8  CD2       86.9490 -115.5940    0.2940 C.ar   30  TYR30      -0.0009
      9  CE1       87.3090 -113.3910   -1.2800 C.ar   30  TYR30       0.0417
     10  CE2       85.9000 -114.7550    0.0430 C.ar   30  TYR30       0.0417
     11  CZ        86.0820 -113.6530   -0.7410 C.ar   30  TYR30       0.1957
     12  OH        85.0300 -112.8130   -0.9870 O.3    30  TYR30      -0.2866
     13  N         86.2910 -113.3640    4.2680 N.3    32  GLU32      -0.1245
     14  CA        85.1520 -112.5640    3.8690 C.3    32  GLU32       0.1567
     15  C         84.9450 -111.3770    4.8040 C.2    32  GLU32       0.2260
     16  O         84.0190 -110.6010    4.6350 O.2    32  GLU32      -0.2867
     17  CB        83.8990 -113.4300    3.7860 C.3    32  GLU32       0.0388
     18  CG        82.9180 -113.0440    2.6770 C.3    32  GLU32       0.1160
     19  CD        82.4160 -114.2510    1.9110 C.2    32  GLU32       0.3649
     20  OE1       82.4370 -115.3610    2.4660 O.co2  32  GLU32      -0.2457
     21  OE2       82.0210 -114.0950    0.7460 O.co2  32  GLU32      -0.2457
     22  N         84.9910 -107.8520    6.4120 N.3    34  TYR34      -0.1241
     23  CA        84.9020 -106.5390    5.7990 C.3    34  TYR34       0.1605
     24  C         85.9550 -105.6140    6.3650 C.2    34  TYR34       0.2264
     25  O         85.6610 -104.7540    7.1810 O.2    34  TYR34      -0.2867
     26  CB        83.5360 -105.9230    6.0480 C.3    34  TYR34       0.0534
     27  CG        82.3900 -106.5770    5.3230 C.ar   34  TYR34      -0.0201
     28  CD1       82.5140 -106.9890    4.0180 C.ar   34  TYR34      -0.0009
     29  CD2       81.1770 -106.7710    5.9510 C.ar   34  TYR34      -0.0009
     30  CE1       81.4660 -107.5770    3.3610 C.ar   34  TYR34       0.0417
     31  CE2       80.1300 -107.3550    5.3010 C.ar   34  TYR34       0.0417
     32  CZ        80.2770 -107.7560    4.0020 C.ar   34  TYR34       0.1957
     33  OH        79.2300 -108.3440    3.3430 O.3    34  TYR34      -0.2866
     34  N         85.1990 -103.8870  -10.4380 N.3    86  ASP86      -0.1239
     35  CA        84.2420 -104.8830   -9.9970 C.3    86  ASP86       0.1674
     36  C         83.2280 -105.1340  -11.0990 C.2    86  ASP86       0.2266
     37  O         82.4750 -104.2480  -11.4630 O.2    86  ASP86      -0.2867
     38  CB        83.5390 -104.3890   -8.7340 C.3    86  ASP86       0.1410
     39  CG        82.6330 -105.4210   -8.1210 C.2    86  ASP86       0.3668
     40  OD1       82.0080 -106.1970   -8.8600 O.co2  86  ASP86      -0.2456
     41  OD2       82.5470 -105.4570   -6.8850 O.co2  86  ASP86      -0.2456
     42  N         80.6190 -106.0160  -11.0900 N.3    88  THR88      -0.1218
     43  CA        79.2890 -105.8550  -10.5200 C.3    88  THR88       0.1862
     44  C         78.9900 -104.3870  -10.2970 C.2    88  THR88       0.2287
     45  O         77.8890 -104.0040   -9.9260 O.2    88  THR88      -0.2866
     46  CB        79.2250 -106.5870   -9.1890 C.3    88  THR88       0.1770
     47  OG1       78.7840 -107.9250   -9.4150 O.3    88  THR88      -0.2211
     48  CG2       78.2860 -105.9050   -8.2500 C.3    88  THR88       0.0375
     49  N         85.4860 -110.4440   -9.1590 N.3   119  LYS119     -0.1245
     50  CA        84.1930 -110.9090   -8.6830 C.3   119  LYS119      0.1561
     51  C         83.3720 -111.5090   -9.8010 C.2   119  LYS119      0.2260
     52  O         82.1810 -111.2700   -9.8930 O.2   119  LYS119     -0.2867
     53  CB        83.4190 -109.7670   -8.0440 C.3   119  LYS119      0.0271
     54  CG        84.0820 -109.1950   -6.8310 C.3   119  LYS119      0.0035
     55  CD        83.2950 -108.0460   -6.3070 C.3   119  LYS119      0.0206
     56  CE        83.9980 -107.3790   -5.1720 C.3   119  LYS119      0.1093
     57  NZ        83.3530 -106.0900   -4.8760 N.3   119  LYS119     -0.1314
     58  N         82.5820 -114.5010  -10.2200 N.3   121  ASP121     -0.1225
     59  CA        81.7660 -115.5950   -9.7430 C.3   121  ASP121      0.1805
     60  C         80.3440 -115.1340   -9.5140 C.2   121  ASP121      0.2597
     61  O         79.4270 -115.9400   -9.4290 O.2   121  ASP121     -0.2718
     62  CB        82.3480 -116.1290   -8.4550 C.3   121  ASP121      0.1424
     63  CG        82.8270 -115.0370   -7.5540 C.2   121  ASP121      0.3668
     64  OD1       84.0060 -114.6610   -7.6510 O.co2 121  ASP121     -0.2456
     65  OD2       82.0270 -114.5440   -6.7530 O.co2 121  ASP121     -0.2456
     66  N         80.1710 -113.8290   -9.3950 N.am  122  LEU122     -0.1979
     67  CA        78.8620 -113.2540   -9.1920 C.3   122  LEU122      0.1596
     68  C         78.1740 -113.0480  -10.5180 C.2   122  LEU122      0.2287
     69  O         77.9750 -111.9280  -10.9540 O.2   122  LEU122     -0.2864
     70  CB        78.9720 -111.9380   -8.4320 C.3   122  LEU122      0.0297
     71  CG        79.6870 -112.0470   -7.0890 C.3   122  LEU122      0.0022
     72  CD1       79.5330 -110.7840   -6.2760 C.3   122  LEU122      0.0001
     73  CD2       79.2290 -113.2590   -6.3120 C.3   122  LEU122      0.0001
     74  N         74.7620 -110.7590  -10.9100 N.3   125  LYS125     -0.1245
     75  CA        74.8110 -109.3220  -10.7720 C.3   125  LYS125      0.1561
     76  C         75.8730 -108.7010  -11.6480 C.2   125  LYS125      0.2260
     77  O         76.0540 -107.4950  -11.6340 O.2   125  LYS125     -0.2867
     78  CB        75.0690 -108.9660   -9.3210 C.3   125  LYS125      0.0271
     79  CG        74.8670 -110.1310   -8.3760 C.3   125  LYS125      0.0035
     80  CD        75.4820 -109.8730   -7.0020 C.3   125  LYS125      0.0206
     81  CE        74.4390 -109.8480   -5.9020 C.3   125  LYS125      0.1093
     82  NZ        73.3730 -108.8570   -6.1820 N.3   125  LYS125     -0.1314
     83  N         87.6780 -115.1590   -4.8600 N.3   150  LYS150     -0.1245
     84  CA        86.9750 -116.1090   -4.0350 C.3   150  LYS150      0.1561
     85  C         87.1140 -117.5070   -4.6110 C.2   150  LYS150      0.2260
     86  O         87.5470 -118.4280   -3.9300 O.2   150  LYS150     -0.2867
     87  CB        85.5110 -115.7150   -3.9950 C.3   150  LYS150      0.0271
     88  CG        84.6560 -116.4910   -3.0160 C.3   150  LYS150      0.0035
     89  CD        83.2090 -116.1050   -3.1950 C.3   150  LYS150      0.0206
     90  CE        82.2920 -116.6830   -2.1570 C.3   150  LYS150      0.1093
     91  NZ        80.8980 -116.5690   -2.6470 N.3   150  LYS150     -0.1314
@<TRIPOS>BOND
     1    76    77    2
     2    76    75    1
     3    37    36    2
     4    36    35    1
     5    42    43    1
     6    69    68    2
     7    74    75    1
     8    75    78    1
     9    43    44    1
    10    43    46    1
    11    68    67    1
    12    34    35    1
    13    44    45    2
    14    58    59    1
    15    35    38    1
    16    52    51    2
    17    51    50    1
    18    59    60    1
    19    59    62    1
    20    60    61    2
    21    60    66   am
    22    47    46    1
    23    66    67    1
    24    78    79    1
    25    67    70    1
    26    46    48    1
    27    49    50    1
    28    40    39   ar
    29    38    39    1
    30    50    53    1
    31    62    63    1
    32    70    71    1
    33    79    80    1
    34    39    41   ar
    35    53    54    1
    36    64    63   ar
    37    63    65   ar
    38    71    73    1
    39    71    72    1
    40    80    81    1
    41    54    55    1
    42    55    56    1
    43    82    81    1
    44    56    57    1
    45    83    84    1
    46    85    84    1
    47    85    86    2
    48    84    87    1
    49    87    88    1
    50    89    88    1
    51    89    90    1
    52    91    90    1
    53     9     7   ar
    54     9    11   ar
    55     7     6   ar
    56    12    11    1
    57    11    10   ar
    58     6     5    1
    59     6     8   ar
    60    10     8   ar
    61     5     2    1
    62    21    19   ar
    63     2     1    1
    64     2     3    1
    65    19    20   ar
    66    19    18    1
    67     3     4    2
    68    18    17    1
    69    33    32    1
    70    30    32   ar
    71    30    28   ar
    72    17    14    1
    73    14    13    1
    74    14    15    1
    75    32    31   ar
    76    28    27   ar
    77    16    15    2
    78    31    29   ar
    79    27    29   ar
    80    27    26    1
    81    23    26    1
    82    23    24    1
    83    23    22    1
    84    24    25    2
