@<TRIPOS>MOLECULE
tmp/4i1pA00.pdb
 195 192 0 0 0
SMALL
GASTEIGER

@<TRIPOS>ATOM
      1  N         17.3960   35.7540   10.5600 N.3    20  PRO20      -0.2102
      2  CA        17.9760   36.3030    9.3270 C.3    20  PRO20       0.1504
      3  C         18.2830   35.2270    8.2920 C.2    20  PRO20       0.2576
      4  O         18.6440   34.1190    8.6680 O.2    20  PRO20      -0.2718
      5  CB        19.2840   36.9250    9.8180 C.3    20  PRO20       0.0282
      6  CG        19.0250   37.2700   11.2420 C.3    20  PRO20       0.0208
      7  CD        18.1320   36.1940   11.7600 C.3    20  PRO20       0.0893
      8  N         18.1540   35.5540    7.0110 N.am   21  LYS21      -0.1966
      9  CA        18.3720   34.5710    5.9610 C.3    21  LYS21       0.1728
     10  C         19.8340   34.5900    5.5180 C.2    21  LYS21       0.2616
     11  O         20.4820   35.6340    5.5610 O.2    21  LYS21      -0.2715
     12  CB        17.4530   34.8540    4.7610 C.3    21  LYS21       0.0311
     13  CG        15.9570   34.6950    5.0390 C.3    21  LYS21       0.0038
     14  CD        15.1720   34.5400    3.7380 C.3    21  LYS21       0.0206
     15  CE        13.7150   34.9070    3.9260 C.3    21  LYS21       0.1093
     16  NZ        13.0390   33.9780    4.8700 N.3    21  LYS21      -0.1314
     17  N         20.3400   33.4470    5.0610 N.am   22  LEU22      -0.1963
     18  CA        21.7160   33.3510    4.5870 C.3    22  LEU22       0.1728
     19  C         21.7410   33.0370    3.0890 C.2    22  LEU22       0.2616
     20  O         20.7590   32.5700    2.5490 O.2    22  LEU22      -0.2715
     21  CB        22.4700   32.2640    5.3440 C.3    22  LEU22       0.0311
     22  CG        22.4890   32.2770    6.8780 C.3    22  LEU22       0.0022
     23  CD1       23.1570   30.9950    7.3760 C.3    22  LEU22       0.0001
     24  CD2       23.1920   33.5220    7.4460 C.3    22  LEU22       0.0001
     25  N         22.8700   33.2810    2.4320 N.am   23  LYS23      -0.1963
     26  CA        22.9930   33.0940    0.9910 C.3    23  LYS23       0.1728
     27  C         24.0290   32.0460    0.5710 C.2    23  LYS23       0.2616
     28  O         23.7990   31.2600   -0.3650 O.2    23  LYS23      -0.2715
     29  CB        23.3310   34.4370    0.3260 C.3    23  LYS23       0.0311
     30  CG        23.8130   34.3320   -1.1110 C.3    23  LYS23       0.0038
     31  CD        24.3690   35.6590   -1.6020 C.3    23  LYS23       0.0206
     32  CE        24.7200   35.5970   -3.0790 C.3    23  LYS23       0.1093
     33  NZ        23.5310   35.2550   -3.9080 N.3    23  LYS23      -0.1314
     34  N         25.1760   32.0400    1.2470 N.am   24  ALA24      -0.1964
     35  CA        26.2960   31.1990    0.8130 C.3    24  ALA24       0.1713
     36  C         26.2880   29.6930    1.1550 C.2    24  ALA24       0.2458
     37  O         27.0740   28.9410    0.5570 O.2    24  ALA24      -0.2730
     38  CB        27.6250   31.8340    1.2230 C.3    24  ALA24       0.0333
     39  N         25.4500   29.2430    2.1210 N.am   25  PRO25      -0.2727
     40  CA        25.4410   27.7860    2.3290 C.3    25  PRO25       0.1402
     41  C         25.1930   26.9680    1.0630 C.2    25  PRO25       0.2269
     42  O         25.7450   25.8800    0.9600 O.2    25  PRO25      -0.2865
     43  CB        24.3020   27.5820    3.3270 C.3    25  PRO25       0.0296
     44  CG        24.3070   28.8550    4.1530 C.3    25  PRO25       0.0237
     45  CD        24.7340   29.9520    3.2060 C.3    25  PRO25       0.0939
     46  N         28.5720   26.6980   -0.6570 N.3    28  ASP28      -0.1239
     47  CA        29.4810   25.9530    0.2190 C.3    28  ASP28       0.1674
     48  C         29.2000   24.4590    0.1440 C.2    28  ASP28       0.2266
     49  O         30.1080   23.6380   -0.0940 O.2    28  ASP28      -0.2867
     50  CB        29.3810   26.4440    1.6730 C.3    28  ASP28       0.1410
     51  CG        29.8600   27.8710    1.8370 C.2    28  ASP28       0.3668
     52  OD1       30.6870   28.3070    1.0060 O.co2  28  ASP28      -0.2456
     53  OD2       29.3760   28.5740    2.7600 O.co2  28  ASP28      -0.2456
     54  N         26.4110   24.1480    7.1530 N.3    76  ALA76      -0.1231
     55  CA        26.4670   25.5910    6.9570 C.3    76  ALA76       0.1694
     56  C         25.0820   26.1600    7.1910 C.2    76  ALA76       0.2593
     57  O         24.1240   25.7920    6.5090 O.2    76  ALA76      -0.2718
     58  CB        26.9310   25.9100    5.5610 C.3    76  ALA76       0.0304
     59  N         25.0020   27.1080    8.1130 N.am   77  GLY77      -0.1942
     60  CA        23.7440   27.6220    8.6100 C.3    77  GLY77       0.2014
     61  C         23.9220   28.2170    9.9900 C.2    77  GLY77       0.2639
     62  O         25.0420   28.3280   10.4950 O.2    77  GLY77      -0.2714
     63  N         22.8100   28.6370   10.5810 N.am   78  HIS78      -0.1959
     64  CA        22.8150   29.1940   11.9170 C.3    78  HIS78       0.1787
     65  C         23.0490   28.1090   12.9440 C.2    78  HIS78       0.2620
     66  O         22.5170   26.9980   12.8450 O.2    78  HIS78      -0.2715
     67  CB        21.5030   29.9190   12.2030 C.3    78  HIS78       0.0785
     68  CG        21.3730   31.2280   11.4840 C.ar   78  HIS78       0.0821
     69  ND1       22.3970   32.1530   11.4300 N.ar   78  HIS78      -0.2267
     70  CD2       20.3490   31.7570   10.7660 C.ar   78  HIS78       0.1154
     71  CE1       22.0030   33.1990   10.7240 C.ar   78  HIS78       0.1986
     72  NE2       20.7640   32.9840   10.3110 N.ar   78  HIS78      -0.2212
     73  N         23.8710   28.4340   13.9290 N.am   79  GLY79      -0.1954
     74  CA        24.1060   27.5350   15.0400 C.3    79  GLY79       0.1869
     75  C         24.3450   28.3100   16.3140 C.2    79  GLY79       0.2309
     76  O         24.4960   29.5420   16.2890 O.2    79  GLY79      -0.2863
     77  N         30.2890   24.8910   10.2340 N.3   125  ASP125     -0.1225
     78  CA        30.4780   26.1910    9.6400 C.3   125  ASP125      0.1805
     79  C         29.3220   27.0590   10.1040 C.2   125  ASP125      0.2598
     80  O         28.4070   27.3730    9.3420 O.2   125  ASP125     -0.2718
     81  CB        30.4960   26.0220    8.1260 C.3   125  ASP125      0.1424
     82  CG        31.0530   27.2150    7.4040 C.2   125  ASP125      0.3668
     83  OD1       31.0390   28.3240    7.9740 O.co2 125  ASP125     -0.2456
     84  OD2       31.4870   27.0400    6.2400 O.co2 125  ASP125     -0.2456
     85  N         29.3930   27.4640   11.3680 N.am  126  MET126     -0.1965
     86  CA        28.2930   28.1550   12.0210 C.3   126  MET126      0.1736
     87  C         28.8130   28.9500   13.2130 C.2   126  MET126      0.2616
     88  O         29.8970   28.6650   13.7420 O.2   126  MET126     -0.2715
     89  CB        27.2920   27.1220   12.5390 C.3   126  MET126      0.0427
     90  CG        27.8940   26.1720   13.5760 C.3   126  MET126      0.0599
     91  SD        26.7850   24.8930   14.1760 S.3   126  MET126     -0.1393
     92  CE        27.2310   24.8760   15.9210 C.3   126  MET126      0.0692
     93  N         28.0010   29.8970   13.6730 N.am  127  CYS127     -0.1968
     94  CA        28.3360   30.6820   14.8440 C.3   127  CYS127      0.1712
     95  C         28.3800   29.8090   16.0830 C.2   127  CYS127      0.2296
     96  O         27.7150   28.7720   16.1450 O.2   127  CYS127     -0.2864
     97  CB        27.3250   31.8140   15.0500 C.3   127  CYS127      0.0983
     98  SG        27.3380   33.0440   13.7350 S.3   127  CYS127     -0.0798
     99  N         31.8050   34.2060   16.1990 N.3   160  GLU160     -0.1231
    100  CA        30.9060   34.1310   15.0390 C.3   160  GLU160      0.1699
    101  C         31.6100   33.5540   13.8000 C.2   160  GLU160      0.2592
    102  O         32.8210   33.7140   13.6390 O.2   160  GLU160     -0.2718
    103  CB        30.3840   35.5430   14.7000 C.3   160  GLU160      0.0402
    104  CG        29.4190   36.1490   15.7260 C.3   160  GLU160      0.1161
    105  CD        28.9430   37.5670   15.3730 C.2   160  GLU160      0.3649
    106  OE1       29.7640   38.4020   14.9380 O.co2 160  GLU160     -0.2457
    107  OE2       27.7380   37.8500   15.5470 O.co2 160  GLU160     -0.2457
    108  N         30.8450   32.9010   12.9240 N.am  161  ALA161     -0.1966
    109  CA        31.3310   32.4590   11.6070 C.3   161  ALA161      0.1728
    110  C         30.6310   33.2780   10.5160 C.2   161  ALA161      0.2616
    111  O         29.4600   33.6150   10.6670 O.2   161  ALA161     -0.2715
    112  CB        31.0680   30.9640   11.4070 C.3   161  ALA161      0.0334
    113  N         31.3470   33.6140    9.4390 N.am  162  PHE162     -0.1960
    114  CA        30.8500   34.6060    8.4860 C.3   162  PHE162      0.1771
    115  C         30.8060   34.1160    7.0530 C.2   162  PHE162      0.2619
    116  O         31.5130   33.1670    6.6880 O.2   162  PHE162     -0.2715
    117  CB        31.6940   35.8950    8.5260 C.3   162  PHE162      0.0574
    118  CG        31.6530   36.6160    9.8480 C.ar  162  PHE162     -0.0200
    119  CD1       30.5270   37.3300   10.2360 C.ar  162  PHE162     -0.0042
    120  CD2       32.7530   36.5810   10.7100 C.ar  162  PHE162     -0.0042
    121  CE1       30.4960   37.9910   11.4690 C.ar  162  PHE162     -0.0003
    122  CE2       32.7320   37.2460   11.9470 C.ar  162  PHE162     -0.0003
    123  CZ        31.6050   37.9500   12.3260 C.ar  162  PHE162     -0.0000
    124  N         30.0130   34.8120    6.2480 N.am  163  GLU163     -0.1963
    125  CA        30.0160   34.7360    4.7950 C.3   163  GLU163      0.1733
    126  C         30.0710   36.1570    4.2250 C.2   163  GLU163      0.2616
    127  O         29.7180   37.0870    4.8910 O.2   163  GLU163     -0.2715
    128  CB        28.8030   33.9700    4.2760 C.3   163  GLU163      0.0429
    129  CG        27.4650   34.5110    4.7030 C.3   163  GLU163      0.1163
    130  CD        26.3010   33.7860    4.0820 C.2   163  GLU163      0.3649
    131  OE1       26.1110   32.6170    4.3870 O.co2 163  GLU163     -0.2457
    132  OE2       25.5640   34.3930    3.3060 O.co2 163  GLU163     -0.2457
    133  N         30.4640   36.2810    2.9780 N.am  164  ILE164     -0.1963
    134  CA        30.6310   37.5760    2.3970 C.3   164  ILE164      0.1727
    135  C         29.3990   38.0390    1.6630 C.2   164  ILE164      0.2616
    136  O         28.8070   37.3170    0.8900 O.2   164  ILE164     -0.2715
    137  CB        31.8220   37.6210    1.4510 C.3   164  ILE164      0.0290
    138  CG1       33.0710   37.1880    2.1800 C.3   164  ILE164      0.0022
    139  CG2       32.0230   39.0320    0.9380 C.3   164  ILE164      0.0023
    140  CD1       33.9780   36.3480    1.3250 C.3   164  ILE164      0.0001
    141  N         29.0340   39.2810    1.9290 N.am  165  GLN165     -0.1963
    142  CA        27.8900   39.8910    1.3060 C.3   165  GLN165      0.1733
    143  C         28.3400   40.4230   -0.0160 C.2   165  GLN165      0.2616
    144  O         28.6730   41.5860   -0.1500 O.2   165  GLN165     -0.2715
    145  CB        27.4280   41.0600    2.1350 C.3   165  GLN165      0.0408
    146  CG        26.4800   40.7020    3.2400 C.3   165  GLN165      0.0908
    147  CD        25.4220   41.7450    3.3820 C.2   165  GLN165      0.2608
    148  OE1       24.5930   41.9060    2.5030 O.2   165  GLN165     -0.2717
    149  NE2       25.4580   42.4750    4.4720 N.am  165  GLN165     -0.0878
    150  N         28.3760   39.5480   -0.9940 N.am  166  HIS166     -0.1973
    151  CA        28.7360   39.9400   -2.3220 C.3   166  HIS166      0.1656
    152  C         27.6220   39.4430   -3.1840 C.2   166  HIS166      0.2291
    153  O         27.2130   38.3040   -3.0540 O.2   166  HIS166     -0.2864
    154  CB        30.0460   39.2750   -2.7180 C.3   166  HIS166      0.0771
    155  CG        30.2300   39.1400   -4.1920 C.ar  166  HIS166      0.0820
    156  ND1       30.1490   40.2130   -5.0520 N.ar  166  HIS166     -0.2267
    157  CD2       30.4840   38.0570   -4.9620 C.ar  166  HIS166      0.1154
    158  CE1       30.3520   39.7970   -6.2890 C.ar  166  HIS166      0.1986
    159  NE2       30.5570   38.4930   -6.2620 N.ar  166  HIS166     -0.2212
    160  N         31.3720   31.1790    1.9770 N.3   172  GLY172     -0.1210
    161  CA        31.6090   31.6010    3.3350 C.3   172  GLY172      0.1956
    162  C         33.0860   31.5010    3.6350 C.2   172  GLY172      0.2611
    163  O         33.7670   30.8590    2.9020 O.2   172  GLY172     -0.2717
    164  N         33.5670   32.1550    4.6850 N.am  173  ILE173     -0.1979
    165  CA        35.0000   32.2610    4.9800 C.3   173  ILE173      0.1595
    166  C         35.6840   30.8900    5.0440 C.2   173  ILE173      0.2287
    167  O         36.7080   30.6200    4.3480 O.2   173  ILE173     -0.2864
    168  CB        35.1990   33.0350    6.2860 C.3   173  ILE173      0.0276
    169  CG1       34.7080   34.4770    6.1280 C.3   173  ILE173      0.0022
    170  CG2       36.6550   32.9790    6.7550 C.3   173  ILE173      0.0022
    171  CD1       35.4190   35.2310    5.0430 C.3   173  ILE173      0.0001
    172  N         39.7110   40.6770    6.6970 N.3   204  LEU204     -0.1231
    173  CA        38.3180   40.9330    6.9830 C.3   204  LEU204      0.1693
    174  C         37.8880   40.2310    8.2550 C.2   204  LEU204      0.2592
    175  O         37.0820   40.7630    9.0080 O.2   204  LEU204     -0.2718
    176  CB        37.4690   40.4670    5.8100 C.3   204  LEU204      0.0284
    177  CG        36.6800   41.5750    5.1150 C.3   204  LEU204      0.0019
    178  CD1       37.5840   42.7670    4.7400 C.3   204  LEU204      0.0001
    179  CD2       35.9800   41.0140    3.8850 C.3   204  LEU204      0.0001
    180  N         38.3990   39.0250    8.4790 N.am  205  THR205     -0.1953
    181  CA        38.0090   38.2480    9.6600 C.3   205  THR205      0.1897
    182  C         38.9440   38.3420   10.8780 C.2   205  THR205      0.2313
    183  O         38.5930   37.8380   11.9490 O.2   205  THR205     -0.2863
    184  CB        37.7810   36.7570    9.3140 C.3   205  THR205      0.1794
    185  OG1       38.8560   36.2670    8.4940 O.3   205  THR205     -0.2208
    186  CG2       36.4760   36.5970    8.5600 C.3   205  THR205      0.0378
    187  N         37.8220   38.5010   14.5590 N.3   208  LYS208     -0.1245
    188  CA        36.4190   38.1250   14.6180 C.3   208  LYS208      0.1561
    189  C         36.1510   36.6450   14.4770 C.2   208  LYS208      0.2260
    190  O         35.2910   36.1080   15.1350 O.2   208  LYS208     -0.2867
    191  CB        35.6460   38.8460   13.5370 C.3   208  LYS208      0.0271
    192  CG        35.6990   40.3490   13.6180 C.3   208  LYS208      0.0035
    193  CD        35.1780   40.9590   12.3390 C.3   208  LYS208      0.0206
    194  CE        35.0520   42.4580   12.4740 C.3   208  LYS208      0.1093
    195  NZ        35.6810   43.1560   11.3260 N.3   208  LYS208     -0.1314
@<TRIPOS>BOND
     1   158   159   ar
     2   158   156   ar
     3   159   157   ar
     4   156   155   ar
     5   157   155   ar
     6   155   154    1
     7    33    32    1
     8   152   153    2
     9   152   151    1
    10    32    31    1
    11   154   151    1
    12   151   150    1
    13    31    30    1
    14    30    29    1
    15   150   143   am
    16    46    47    1
    17    28    27    2
    18   144   143    2
    19    49    48    2
    20   143   142    1
    21    48    47    1
    22    47    50    1
    23    29    26    1
    24    37    36    2
    25    27    26    1
    26    27    34   am
    27    35    36    1
    28    35    38    1
    29    35    34    1
    30   136   135    2
    31   139   137    1
    32    42    41    2
    33    26    25    1
    34    52    51   ar
    35    41    40    1
    36    36    39   am
    37   142   141    1
    38   142   145    1
    39   140   138    1
    40   137   138    1
    41   137   134    1
    42   135   141   am
    43   135   134    1
    44    50    51    1
    45    51    53   ar
    46   160   161    1
    47    39    40    1
    48    39    45    1
    49   145   146    1
    50    40    43    1
    51   134   133    1
    52    25    19   am
    53   148   147    2
    54    20    19    2
    55   163   162    2
    56   133   126   am
    57    19    18    1
    58    45    44    1
    59   146   147    1
    60   132   130   ar
    61    43    44    1
    62   161   162    1
    63   147   149   am
    64   162   164   am
    65    14    15    1
    66    14    13    1
    67   179   177    1
    68    15    16    1
    69   130   131   ar
    70   130   129    1
    71   126   125    1
    72   126   127    2
    73   128   129    1
    74   128   125    1
    75   167   166    2
    76    18    17    1
    77    18    21    1
    78   164   165    1
    79   178   177    1
    80    12    13    1
    81    12     9    1
    82   125   124    1
    83   165   166    1
    84   165   168    1
    85   171   169    1
    86    17    10   am
    87   177   176    1
    88    21    22    1
    89    10    11    2
    90    10     9    1
    91    58    55    1
    92   176   173    1
    93     9     8    1
    94   169   168    1
    95    84    82   ar
    96   124   115   am
    97   168   170    1
    98    57    56    2
    99   116   115    2
   100   172   173    1
   101    22    23    1
   102    22    24    1
   103    55    54    1
   104    55    56    1
   105   173   174    1
   106     8     3   am
   107   115   114    1
   108    56    59   am
   109    82    83   ar
   110    82    81    1
   111    59    60    1
   112    81    78    1
   113   174   180   am
   114   174   175    2
   115     3     4    2
   116     3     2    1
   117   180   181    1
   118   114   117    1
   119   114   113    1
   120   185   184    1
   121   117   118    1
   122   186   184    1
   123    60    61    1
   124   184   181    1
   125     2     5    1
   126     2     1    1
   127    80    79    2
   128   113   110   am
   129    78    79    1
   130    78    77    1
   131   181   182    1
   132     5     6    1
   133   118   119   ar
   134   118   120   ar
   135    61    62    2
   136    61    63   am
   137    79    85   am
   138   119   121   ar
   139    72    71   ar
   140    72    70   ar
   141   110   111    2
   142   110   109    1
   143     1     7    1
   144    63    64    1
   145   120   122   ar
   146    71    69   ar
   147    70    68   ar
   148   182   183    2
   149     6     7    1
   150   195   194    1
   151    85    86    1
   152   112   109    1
   153    69    68   ar
   154   121   123   ar
   155    68    67    1
   156   109   108    1
   157    64    67    1
   158    64    65    1
   159   122   123   ar
   160    86    89    1
   161    86    87    1
   162   193   194    1
   163   193   192    1
   164    89    90    1
   165    66    65    2
   166   108   101   am
   167    65    73   am
   168    87    93   am
   169    87    88    2
   170   191   192    1
   171   191   188    1
   172    90    91    1
   173   102   101    2
   174    93    94    1
   175    98    97    1
   176   101   100    1
   177    73    74    1
   178    91    92    1
   179   189   188    1
   180   189   190    2
   181   187   188    1
   182   103   100    1
   183   103   104    1
   184    94    97    1
   185    94    95    1
   186   106   105   ar
   187   100    99    1
   188    74    75    1
   189   105   107   ar
   190   105   104    1
   191    95    96    2
   192    76    75    2
