@<TRIPOS>MOLECULE
tmp/4i1rA00.pdb
 148 138 0 0 0
SMALL
GASTEIGER

@<TRIPOS>ATOM
      1  N        -23.4010  -22.9670   24.1570 N.3     7  VAL7       -0.1231
      2  CA       -23.6700  -21.9520   23.1310 C.3     7  VAL7        0.1692
      3  C        -22.3640  -21.4480   22.5370 C.2     7  VAL7        0.2592
      4  O        -21.3990  -21.2240   23.2680 O.2     7  VAL7       -0.2718
      5  CB       -24.5560  -20.7870   23.6590 C.3     7  VAL7        0.0266
      6  CG1      -25.9870  -21.2460   23.9030 C.3     7  VAL7        0.0020
      7  CG2      -23.9690  -20.1420   24.9150 C.3     7  VAL7        0.0020
      8  N        -22.3310  -21.2840   21.2110 N.am    8  ALA8       -0.1966
      9  CA       -21.1330  -20.8250   20.5050 C.3     8  ALA8        0.1728
     10  C        -21.4180  -19.7720   19.4630 C.2     8  ALA8        0.2616
     11  O        -22.4650  -19.8050   18.7980 O.2     8  ALA8       -0.2715
     12  CB       -20.4180  -21.9960   19.8570 C.3     8  ALA8        0.0334
     13  N        -20.4610  -18.8420   19.3050 N.am    9  LEU9       -0.1977
     14  CA       -20.5550  -17.8100   18.2760 C.3     9  LEU9        0.1596
     15  C        -19.3390  -17.9060   17.3620 C.2     9  LEU9        0.2287
     16  O        -18.1830  -17.9250   17.8180 O.2     9  LEU9       -0.2864
     17  CB       -20.7300  -16.3890   18.8480 C.3     9  LEU9        0.0297
     18  CG       -20.7740  -15.2530   17.8260 C.3     9  LEU9        0.0022
     19  CD1      -21.9390  -15.4140   16.8520 C.3     9  LEU9        0.0001
     20  CD2      -20.8250  -13.9070   18.5100 C.3     9  LEU9        0.0001
     21  N        -25.4330  -25.0270   20.5470 N.3    42  LYS42      -0.1245
     22  CA       -26.3870  -24.1950   19.8200 C.3    42  LYS42       0.1561
     23  C        -25.5600  -23.0510   19.1760 C.2    42  LYS42       0.2260
     24  O        -25.4470  -21.9650   19.7280 O.2    42  LYS42      -0.2867
     25  CB       -27.5250  -23.6910   20.7350 C.3    42  LYS42       0.0271
     26  CG       -28.4990  -24.7740   21.1740 C.3    42  LYS42       0.0035
     27  CD       -28.8600  -24.6880   22.6550 C.3    42  LYS42       0.0206
     28  CE       -29.1100  -26.0620   23.2200 C.3    42  LYS42       0.1093
     29  NZ       -29.7860  -26.0080   24.5410 N.3    42  LYS42      -0.1314
     30  N        -24.3560  -20.1830   16.3470 N.3    44  VAL44      -0.1245
     31  CA       -24.7330  -19.1060   15.4330 C.3    44  VAL44       0.1561
     32  C        -23.4460  -18.9070   14.6230 C.2    44  VAL44       0.2260
     33  O        -22.3680  -18.6850   15.2130 O.2    44  VAL44      -0.2867
     34  CB       -25.1850  -17.7980   16.1310 C.3    44  VAL44       0.0252
     35  CG1      -25.1540  -16.6160   15.1660 C.3    44  VAL44       0.0019
     36  CG2      -26.5840  -17.9560   16.6920 C.3    44  VAL44       0.0019
     37  N        -21.8180  -16.6470   11.6430 N.3    46  LEU46      -0.1245
     38  CA       -21.9940  -15.4120   10.8450 C.3    46  LEU46       0.1561
     39  C        -20.7720  -15.0030   10.0180 C.2    46  LEU46       0.2260
     40  O        -19.6430  -14.9720   10.5220 O.2    46  LEU46      -0.2867
     41  CB       -22.4290  -14.2340   11.7360 C.3    46  LEU46       0.0270
     42  CG       -23.6670  -14.4180   12.6280 C.3    46  LEU46       0.0019
     43  CD1      -23.7170  -13.3820   13.7310 C.3    46  LEU46       0.0001
     44  CD2      -24.9340  -14.3490   11.8290 C.3    46  LEU46       0.0001
     45  N        -23.2880   -8.8160   17.9050 N.3    57  ALA57      -0.1245
     46  CA       -23.1440  -10.2590   17.9640 C.3    57  ALA57       0.1562
     47  C        -22.5460  -10.7050   19.2910 C.2    57  ALA57       0.2260
     48  O        -23.1990  -11.4370   20.0550 O.2    57  ALA57      -0.2867
     49  CB       -22.2850  -10.7400   16.8090 C.3    57  ALA57       0.0290
     50  N        -24.6170  -10.0050   22.4090 N.3    60  GLU60      -0.1231
     51  CA       -25.6650  -11.0280   22.4230 C.3    60  GLU60       0.1699
     52  C        -25.1270  -12.4030   22.8260 C.2    60  GLU60       0.2592
     53  O        -25.8290  -13.1320   23.5310 O.2    60  GLU60      -0.2718
     54  CB       -26.3920  -11.1140   21.0720 C.3    60  GLU60       0.0402
     55  CG       -27.4670  -10.0610   20.8600 C.3    60  GLU60       0.1161
     56  CD       -28.7020  -10.2510   21.7080 C.2    60  GLU60       0.3649
     57  OE1      -29.5440  -11.0890   21.3200 O.co2  60  GLU60      -0.2457
     58  OE2      -28.8160   -9.5920   22.7690 O.co2  60  GLU60      -0.2457
     59  N        -23.8840  -12.7470   22.4170 N.am   61  PHE61      -0.1976
     60  CA       -23.2550  -14.0030   22.8380 C.3    61  PHE61       0.1639
     61  C        -22.9790  -13.9210   24.3330 C.2    61  PHE61       0.2290
     62  O        -23.2360  -14.8810   25.0630 O.2    61  PHE61      -0.2864
     63  CB       -21.9350  -14.2650   22.0740 C.3    61  PHE61       0.0560
     64  CG       -21.0990  -15.3730   22.6770 C.ar   61  PHE61      -0.0200
     65  CD1      -21.4940  -16.7040   22.5700 C.ar   61  PHE61      -0.0042
     66  CD2      -19.9570  -15.0800   23.4230 C.ar   61  PHE61      -0.0042
     67  CE1      -20.7450  -17.7210   23.1660 C.ar   61  PHE61      -0.0003
     68  CE2      -19.2090  -16.1010   24.0200 C.ar   61  PHE61      -0.0003
     69  CZ       -19.5960  -17.4160   23.8690 C.ar   61  PHE61      -0.0000
     70  N        -24.4980  -12.3370   26.6740 N.3    63  LEU63      -0.1231
     71  CA       -25.7110  -12.3710   27.4810 C.3    63  LEU63       0.1693
     72  C        -26.1120  -13.7870   27.8560 C.2    63  LEU63       0.2591
     73  O        -26.6400  -13.9970   28.9470 O.2    63  LEU63      -0.2718
     74  CB       -26.8470  -11.5890   26.8030 C.3    63  LEU63       0.0284
     75  CG       -26.7680  -10.0650   26.9910 C.3    63  LEU63       0.0019
     76  CD1      -27.5190   -9.3250   25.9080 C.3    63  LEU63       0.0001
     77  CD2      -27.2820   -9.6480   28.3670 C.3    63  LEU63       0.0001
     78  N        -25.7650  -14.7620   26.9950 N.am   64  LEU64      -0.1980
     79  CA       -26.0090  -16.1980   27.1700 C.3    64  LEU64       0.1596
     80  C        -25.0510  -16.8140   28.1890 C.2    64  LEU64       0.2287
     81  O        -25.3190  -17.9220   28.6670 O.2    64  LEU64      -0.2864
     82  CB       -25.7970  -16.9530   25.8520 C.3    64  LEU64       0.0297
     83  CG       -26.4280  -16.4110   24.5760 C.3    64  LEU64       0.0022
     84  CD1      -25.7880  -17.0370   23.3900 C.3    64  LEU64       0.0001
     85  CD2      -27.8880  -16.7050   24.5250 C.3    64  LEU64       0.0001
     86  N        -33.7250  -22.3150   25.7550 N.3   209  ARG209     -0.1245
     87  CA       -32.7110  -21.7100   24.8870 C.3   209  ARG209      0.1563
     88  C        -32.5200  -22.5230   23.6130 C.2   209  ARG209      0.2260
     89  O        -32.1400  -21.9490   22.5970 O.2   209  ARG209     -0.2867
     90  CB       -31.3840  -21.5090   25.6440 C.3   209  ARG209      0.0307
     91  CG       -30.3520  -20.6000   24.9570 C.3   209  ARG209      0.0489
     92  CD       -30.8000  -19.1550   24.7740 C.3   209  ARG209      0.2205
     93  NE       -30.8190  -18.3890   26.0200 N.pl3 209  ARG209     -0.0865
     94  CZ       -31.0870  -17.0880   26.0920 C.cat 209  ARG209      0.5346
     95  NH1      -31.0820  -16.4680   27.2620 N.pl3 209  ARG209      0.1354
     96  NH2      -31.3470  -16.3950   24.9890 N.pl3 209  ARG209      0.1354
     97  N        -35.2720  -21.3390   21.2300 N.3   212  GLN212     -0.1231
     98  CA       -34.9080  -19.9980   20.7570 C.3   212  GLN212      0.1698
     99  C        -33.9190  -20.0800   19.5860 C.2   212  GLN212      0.2592
    100  O        -33.9530  -19.2230   18.6980 O.2   212  GLN212     -0.2718
    101  CB       -34.2890  -19.1910   21.9040 C.3   212  GLN212      0.0381
    102  CG       -35.0780  -17.9420   22.2570 C.3   212  GLN212      0.0905
    103  CD       -34.8230  -17.5250   23.6790 C.2   212  GLN212      0.2608
    104  OE1      -33.6840  -17.5390   24.1610 O.2   212  GLN212     -0.2717
    105  NE2      -35.8820  -17.1470   24.3830 N.am  212  GLN212     -0.0878
    106  N        -33.0300  -21.1060   19.6020 N.am  213  TRP213     -0.1976
    107  CA       -32.0420  -21.3750   18.5520 C.3   213  TRP213      0.1640
    108  C        -32.7640  -21.8370   17.2890 C.2   213  TRP213      0.2290
    109  O        -32.4260  -21.3620   16.2030 O.2   213  TRP213     -0.2864
    110  CB       -31.0210  -22.4470   18.9890 C.3   213  TRP213      0.0576
    111  CG       -29.9620  -22.7070   17.9560 C.ar  213  TRP213      0.0006
    112  CD1      -28.7800  -22.0450   17.8130 C.ar  213  TRP213      0.0946
    113  CD2      -30.0350  -23.6360   16.8620 C.ar  213  TRP213      0.0152
    114  NE1      -28.0900  -22.5330   16.7300 N.ar  213  TRP213     -0.2442
    115  CE2      -28.8440  -23.4980   16.1160 C.ar  213  TRP213      0.0810
    116  CE3      -31.0050  -24.5600   16.4250 C.ar  213  TRP213      0.0012
    117  CZ2      -28.6010  -24.2370   14.9490 C.ar  213  TRP213      0.0191
    118  CZ3      -30.7610  -25.2950   15.2730 C.ar  213  TRP213      0.0001
    119  CH2      -29.5760  -25.1270   14.5450 C.ar  213  TRP213      0.0015
    120  N        -34.4220  -19.1620   15.5040 N.3   216  ALA216     -0.1245
    121  CA       -33.3890  -18.3390   14.8620 C.3   216  ALA216      0.1562
    122  C        -32.8140  -18.9420   13.5600 C.2   216  ALA216      0.2260
    123  O        -32.0400  -18.2660   12.8770 O.2   216  ALA216     -0.2867
    124  CB       -32.2550  -18.0940   15.8530 C.3   216  ALA216      0.0290
    125  N        -31.2050  -16.0090   10.6690 N.3   345  ILE345     -0.1245
    126  CA       -30.8620  -14.9560   11.6290 C.3   345  ILE345      0.1561
    127  C        -31.6290  -13.6440   11.4210 C.2   345  ILE345      0.2260
    128  O        -31.6840  -12.8190   12.3370 O.2   345  ILE345     -0.2867
    129  CB       -29.3140  -14.7470   11.7080 C.3   345  ILE345      0.0252
    130  CG1      -28.8170  -14.5560   13.1580 C.3   345  ILE345      0.0019
    131  CG2      -28.7930  -13.6920   10.7110 C.3   345  ILE345      0.0019
    132  CD1      -28.1980  -13.2430   13.4580 C.3   345  ILE345      0.0001
    133  N        -34.6540  -12.4870   14.0910 N.3   348  LEU348     -0.1245
    134  CA       -34.2970  -11.5490   15.1550 C.3   348  LEU348      0.1561
    135  C        -33.5020  -10.3910   14.5110 C.2   348  LEU348      0.2260
    136  O        -32.4420  -10.6230   13.9080 O.2   348  LEU348     -0.2867
    137  CB       -33.5150  -12.2320   16.2880 C.3   348  LEU348      0.0270
    138  CG       -32.4500  -13.2310   15.8650 C.3   348  LEU348      0.0019
    139  CD1      -31.0580  -12.7100   16.1830 C.3   348  LEU348      0.0001
    140  CD2      -32.6720  -14.5430   16.5270 C.3   348  LEU348      0.0001
    141  N        -31.0150   -7.5660   13.9780 N.3   350  MET350     -0.1245
    142  CA       -29.6890   -7.3200   14.5620 C.3   350  MET350      0.1570
    143  C        -29.6280   -5.9950   15.3360 C.2   350  MET350      0.2261
    144  O        -28.7480   -5.8070   16.1790 O.2   350  MET350     -0.2867
    145  CB       -28.6030   -7.3940   13.4820 C.3   350  MET350      0.0387
    146  CG       -27.2520   -7.8600   13.9980 C.3   350  MET350      0.0595
    147  SD       -27.1340   -9.6170   14.4370 S.3   350  MET350     -0.1393
    148  CE       -25.4650   -9.6600   14.9760 C.3   350  MET350      0.0692
@<TRIPOS>BOND
     1    39    40    2
     2    39    38    1
     3   125   126    1
     4   131   129    1
     5    38    37    1
     6    38    41    1
     7   127   126    1
     8   127   128    2
     9   126   129    1
    10   129   130    1
    11    41    42    1
    12    44    42    1
    13    42    43    1
    14   123   122    2
    15   130   132    1
    16   145   146    1
    17   145   142    1
    18   122   121    1
    19   136   135    2
    20   141   142    1
    21   146   147    1
    22   133   134    1
    23   147   148    1
    24   135   134    1
    25   119   117   ar
    26   119   118   ar
    27   142   143    1
    28    32    33    2
    29    32    31    1
    30   121   120    1
    31   121   124    1
    32   117   115   ar
    33   134   137    1
    34    35    34    1
    35   118   116   ar
    36   143   144    2
    37    31    34    1
    38    31    30    1
    39   138   139    1
    40   138   137    1
    41   138   140    1
    42   115   114   ar
    43   115   113   ar
    44    34    36    1
    45   109   108    2
    46   116   113   ar
    47   114   112   ar
    48    49    46    1
    49    19    18    1
    50   113   111   ar
    51   108   107    1
    52    15    16    2
    53    15    14    1
    54   112   111   ar
    55    18    20    1
    56    18    17    1
    57    45    46    1
    58   111   110    1
    59    46    47    1
    60    14    17    1
    61    14    13    1
    62   107   110    1
    63   107   106    1
    64   100    99    2
    65    11    10    2
    66    23    24    2
    67    23    22    1
    68    47    48    2
    69    13    10   am
    70    10     9    1
    71    99   106   am
    72    99    98    1
    73    22    21    1
    74    22    25    1
    75    12     9    1
    76     9     8    1
    77    25    26    1
    78    98    97    1
    79    98   101    1
    80    55    54    1
    81    55    56    1
    82    54    51    1
    83    26    27    1
    84     8     3   am
    85    57    56   ar
    86    56    58   ar
    87   101   102    1
    88    63    64    1
    89    63    60    1
    90   102   103    1
    91    50    51    1
    92    59    52   am
    93    59    60    1
    94    51    52    1
    95     3     2    1
    96     3     4    2
    97    65    64   ar
    98    65    67   ar
    99    89    88    2
   100    27    28    1
   101    64    66   ar
   102    52    53    2
   103    60    61    1
   104     2     5    1
   105     2     1    1
   106    67    69   ar
   107    28    29    1
   108    84    83    1
   109    66    68   ar
   110    88    87    1
   111     5     6    1
   112     5     7    1
   113   103   104    2
   114   103   105   am
   115    69    68   ar
   116    61    62    2
   117    85    83    1
   118    83    82    1
   119    92    91    1
   120    92    93    1
   121    87    90    1
   122    87    86    1
   123    91    90    1
   124    96    94    1
   125    82    79    1
   126    76    75    1
   127    93    94    2
   128    94    95    1
   129    70    71    1
   130    74    75    1
   131    74    71    1
   132    75    77    1
   133    78    79    1
   134    78    72   am
   135    79    80    1
   136    71    72    1
   137    72    73    2
   138    80    81    2
