@<TRIPOS>MOLECULE
tmp/4i1vA00.pdb
 99 95 0 0 0
SMALL
GASTEIGER

@<TRIPOS>ATOM
      1  N         73.5250   24.0460  -20.3670 N.3    15  ILE15      -0.1231
      2  CA        72.9840   24.9460  -21.3550 C.3    15  ILE15       0.1692
      3  C         72.2650   24.1390  -22.4320 C.2    15  ILE15       0.2593
      4  O         72.7940   23.1680  -22.9560 O.2    15  ILE15      -0.2718
      5  CB        74.0600   25.9010  -21.9580 C.3    15  ILE15       0.0266
      6  CG1       73.3920   26.9880  -22.7980 C.3    15  ILE15       0.0019
      7  CG2       75.1020   25.1420  -22.7930 C.3    15  ILE15       0.0020
      8  CD1       74.3630   27.9840  -23.4220 C.3    15  ILE15       0.0001
      9  N         71.0380   24.5580  -22.7250 N.am   16  GLY16      -0.1942
     10  CA        70.2370   23.9420  -23.7850 C.3    16  GLY16       0.2014
     11  C         69.5570   22.6410  -23.3860 C.2    16  GLY16       0.2640
     12  O         68.9970   21.9780  -24.2470 O.2    16  GLY16      -0.2714
     13  N         69.6180   22.2690  -22.1040 N.am   17  SER17      -0.1935
     14  CA        69.1250   20.9770  -21.6620 C.3    17  SER17       0.2055
     15  C         67.6270   20.9640  -21.5160 C.2    17  SER17       0.2644
     16  O         67.0100   19.9440  -21.6950 O.2    17  SER17      -0.2714
     17  CB        69.7960   20.5510  -20.3510 C.3    17  SER17       0.2130
     18  OG        69.5120   21.4520  -19.2880 O.3    17  SER17      -0.2179
     19  N         67.0220   22.0970  -21.1950 N.am   18  GLY18      -0.1939
     20  CA        65.5680   22.1860  -21.1140 C.3    18  GLY18       0.2014
     21  C         64.9970   22.7600  -19.8330 C.2    18  GLY18       0.2639
     22  O         63.7970   22.6080  -19.5700 O.2    18  GLY18      -0.2714
     23  N         65.8150   23.4510  -19.0470 N.am   19  LYS19      -0.1963
     24  CA        65.3420   24.0460  -17.8010 C.3    19  LYS19       0.1728
     25  C         64.0800   24.8960  -18.0390 C.2    19  LYS19       0.2617
     26  O         63.0380   24.6670  -17.4240 O.2    19  LYS19      -0.2715
     27  CB        66.4230   24.9020  -17.1820 C.3    19  LYS19       0.0311
     28  CG        67.6590   24.1020  -16.8120 C.3    19  LYS19       0.0038
     29  CD        68.7300   24.9640  -16.1640 C.3    19  LYS19       0.0206
     30  CE        69.2890   25.9980  -17.1250 C.3    19  LYS19       0.1093
     31  NZ        70.0220   25.3530  -18.2470 N.3    19  LYS19      -0.1314
     32  N         64.1510   25.8340  -18.9710 N.am   20  THR20      -0.1937
     33  CA        63.0080   26.6830  -19.2200 C.3    20  THR20       0.2028
     34  C         61.7830   25.8400  -19.5950 C.2    20  THR20       0.2642
     35  O         60.6660   26.0480  -19.0920 O.2    20  THR20      -0.2714
     36  CB        63.3120   27.6800  -20.3520 C.3    20  THR20       0.1808
     37  OG1       64.5170   28.4100  -20.0430 O.3    20  THR20      -0.2208
     38  CG2       62.1510   28.6280  -20.5410 C.3    20  THR20       0.0379
     39  N         61.9940   24.8790  -20.4770 N.am   21  THR21      -0.1950
     40  CA        60.9040   24.0610  -20.9530 C.3    21  THR21       0.1897
     41  C         60.2210   23.2990  -19.8110 C.2    21  THR21       0.2313
     42  O         58.9980   23.2660  -19.7040 O.2    21  THR21      -0.2863
     43  CB        61.4200   23.1030  -22.0550 C.3    21  THR21       0.1794
     44  OG1       61.9700   23.8850  -23.1200 O.3    21  THR21      -0.2208
     45  CG2       60.2920   22.2560  -22.5940 C.3    21  THR21       0.0378
     46  N         70.8250   22.1570  -30.0380 N.3   145  ARG145     -0.1245
     47  CA        69.7640   23.0450  -29.6350 C.3   145  ARG145      0.1563
     48  C         70.2420   24.4490  -29.5100 C.2   145  ARG145      0.2260
     49  O         69.4950   25.3720  -29.8530 O.2   145  ARG145     -0.2867
     50  CB        69.1440   22.6560  -28.3000 C.3   145  ARG145      0.0307
     51  CG        68.1470   21.5240  -28.3770 C.3   145  ARG145      0.0489
     52  CD        67.9050   21.0430  -26.9650 C.3   145  ARG145      0.2205
     53  NE        67.0780   19.8510  -26.9280 N.pl3 145  ARG145     -0.0865
     54  CZ        66.7780   19.2150  -25.8160 C.cat 145  ARG145      0.5346
     55  NH1       67.2450   19.6530  -24.6570 N.pl3 145  ARG145      0.1354
     56  NH2       66.0220   18.1360  -25.8680 N.pl3 145  ARG145      0.1354
     57  N         69.0140   27.6110  -31.5860 N.3   149  ARG149     -0.1245
     58  CA        68.2130   28.6270  -30.9260 C.3   149  ARG149      0.1563
     59  C         68.9820   29.9150  -30.6160 C.2   149  ARG149      0.2260
     60  O         68.3530   30.9060  -30.3300 O.2   149  ARG149     -0.2867
     61  CB        67.5320   28.0570  -29.6800 C.3   149  ARG149      0.0307
     62  CG        66.3820   27.0830  -30.0000 C.3   149  ARG149      0.0489
     63  CD        65.6990   26.6020  -28.7310 C.3   149  ARG149      0.2205
     64  NE        66.6300   25.8810  -27.8610 N.pl3 149  ARG149     -0.0865
     65  CZ        67.0200   26.2700  -26.6480 C.cat 149  ARG149      0.5346
     66  NH1       66.5160   27.3650  -26.0870 N.pl3 149  ARG149      0.1354
     67  NH2       67.8830   25.5310  -25.9740 N.pl3 149  ARG149      0.1354
     68  N         65.6840   14.8800  -21.0230 N.3   180  ASN180     -0.1240
     69  CA        64.9490   15.6040  -22.0420 C.3   180  ASN180      0.1653
     70  C         65.7060   15.4520  -23.3280 C.2   180  ASN180      0.2266
     71  O         66.4420   16.3490  -23.6990 O.2   180  ASN180     -0.2867
     72  CB        64.8340   17.0890  -21.6620 C.3   180  ASN180      0.1155
     73  CG        64.1670   17.9220  -22.7480 C.2   180  ASN180      0.2627
     74  OD1       63.3790   17.4210  -23.5270 O.2   180  ASN180     -0.2716
     75  ND2       64.4800   19.1930  -22.7890 N.am  180  ASN180     -0.0877
     76  N         64.0730   13.6320  -26.2770 N.3   182  ALA182     -0.1231
     77  CA        63.2290   13.2080  -27.3870 C.3   182  ALA182      0.1694
     78  C         63.2820   14.3010  -28.4460 C.2   182  ALA182      0.2592
     79  O         63.6790   15.4400  -28.1510 O.2   182  ALA182     -0.2718
     80  CB        61.8070   12.9630  -26.9120 C.3   182  ALA182      0.0304
     81  N         62.9070   13.9470  -29.6740 N.am  183  ALA183     -0.1966
     82  CA        62.7540   14.9320  -30.7540 C.3   183  ALA183      0.1728
     83  C         61.7910   16.0650  -30.3550 C.2   183  ALA183      0.2617
     84  O         61.8600   17.1920  -30.8860 O.2   183  ALA183     -0.2715
     85  CB        62.2570   14.2480  -32.0270 C.3   183  ALA183      0.0334
     86  N         60.9310   15.7460  -29.3850 N.am  184  THR184     -0.1937
     87  CA        59.8020   16.5630  -29.0030 C.3   184  THR184      0.2013
     88  C         59.6400   16.5560  -27.4590 C.2   184  THR184      0.2484
     89  O         59.9910   15.5480  -26.7880 O.2   184  THR184     -0.2729
     90  CB        58.5530   16.0250  -29.7490 C.3   184  THR184      0.1807
     91  OG1       58.3100   16.8420  -30.9010 O.3   184  THR184     -0.2208
     92  CG2       57.3030   15.9810  -28.8880 C.3   184  THR184      0.0379
     93  N         59.1400   17.6820  -26.9030 N.am  185  PRO185     -0.2726
     94  CA        58.8560   17.8850  -25.4850 C.3   185  PRO185      0.1402
     95  C         57.4740   17.4600  -25.0020 C.2   185  PRO185      0.2269
     96  O         57.1630   17.6050  -23.8290 O.2   185  PRO185     -0.2865
     97  CB        59.0170   19.4090  -25.3170 C.3   185  PRO185      0.0296
     98  CG        58.6930   19.9840  -26.6500 C.3   185  PRO185      0.0237
     99  CD        59.0620   18.9450  -27.6710 C.3   185  PRO185      0.0939
@<TRIPOS>BOND
     1    85    82    1
     2    57    58    1
     3    58    59    1
     4    58    61    1
     5    91    90    1
     6    84    83    2
     7    82    83    1
     8    82    81    1
     9    59    60    2
    10    83    86   am
    11    46    47    1
    12    62    61    1
    13    62    63    1
    14    49    48    2
    15    90    87    1
    16    90    92    1
    17    81    78   am
    18    47    48    1
    19    47    50    1
    20    86    87    1
    21    87    88    1
    22    63    64    1
    23    78    79    2
    24    78    77    1
    25    51    50    1
    26    51    52    1
    27    64    65    2
    28    99    93    1
    29    99    98    1
    30    88    93   am
    31    88    89    2
    32    77    80    1
    33    77    76    1
    34    52    53    1
    35    53    54    2
    36    93    94    1
    37    98    97    1
    38    65    66    1
    39    65    67    1
    40    56    54    1
    41    54    55    1
    42    94    97    1
    43    94    95    1
    44    95    96    2
    45    12    11    2
    46    10    11    1
    47    10     9    1
    48    71    70    2
    49    74    73    2
    50     8     6    1
    51    11    13   am
    52    70    69    1
    53    44    43    1
    54     4     3    2
    55     6     5    1
    56     7     5    1
    57    75    73   am
    58    73    72    1
    59     9     3   am
    60    45    43    1
    61     3     2    1
    62    13    14    1
    63    43    40    1
    64    69    72    1
    65    69    68    1
    66     5     2    1
    67    16    15    2
    68    14    15    1
    69    14    17    1
    70    15    19   am
    71     2     1    1
    72    19    20    1
    73    20    21    1
    74    40    39    1
    75    40    41    1
    76    38    36    1
    77    39    34   am
    78    36    37    1
    79    36    33    1
    80    17    18    1
    81    21    22    2
    82    21    23   am
    83    41    42    2
    84    34    33    1
    85    34    35    2
    86    33    32    1
    87    23    24    1
    88    32    25   am
    89    31    30    1
    90    25    24    1
    91    25    26    2
    92    24    27    1
    93    27    28    1
    94    30    29    1
    95    28    29    1
