@<TRIPOS>MOLECULE
tmp/4i22A00.pdb
 157 146 0 0 0
SMALL
GASTEIGER

@<TRIPOS>ATOM
      1  N          8.3530  -22.1940   11.8040 N.3    19  LEU19      -0.1231
      2  CA         9.3350  -21.4580   11.0280 C.3    19  LEU19       0.1693
      3  C         10.6480  -21.3820   11.7900 C.2    19  LEU19       0.2592
      4  O         11.7240  -21.4960   11.2050 O.2    19  LEU19      -0.2718
      5  CB         8.8150  -20.0470   10.7250 C.3    19  LEU19       0.0284
      6  CG         7.6660  -20.0010    9.7130 C.3    19  LEU19       0.0019
      7  CD1        7.1510  -18.5740    9.5520 C.3    19  LEU19       0.0001
      8  CD2        8.1600  -20.5400    8.3790 C.3    19  LEU19       0.0001
      9  N         10.5510  -21.1990   13.1010 N.am   20  GLY20      -0.1957
     10  CA        11.7420  -21.0820   13.9180 C.3    20  GLY20       0.1869
     11  C         11.4100  -20.9610   15.3900 C.2    20  GLY20       0.2309
     12  O         10.2500  -20.8090   15.7670 O.2    20  GLY20      -0.2863
     13  N          7.9200  -19.3270   16.4090 N.3    27  VAL27      -0.1245
     14  CA         7.2290  -18.6390   15.3300 C.3    27  VAL27       0.1561
     15  C          6.6910  -19.6330   14.3150 C.2    27  VAL27       0.2260
     16  O          7.4070  -20.5300   13.8630 O.2    27  VAL27      -0.2867
     17  CB         8.1640  -17.6370   14.6240 C.3    27  VAL27       0.0252
     18  CG1        7.4490  -16.9930   13.4420 C.3    27  VAL27       0.0019
     19  CG2        8.6130  -16.5780   15.6210 C.3    27  VAL27       0.0019
     20  N          1.8900  -14.6400   10.2530 N.3    44  ALA44      -0.1231
     21  CA         2.9100  -15.1690   11.1510 C.3    44  ALA44       0.1694
     22  C          2.3730  -15.1420   12.5670 C.2    44  ALA44       0.2592
     23  O          1.7130  -14.1860   12.9760 O.2    44  ALA44      -0.2718
     24  CB         4.1880  -14.3400   11.0660 C.3    44  ALA44       0.0304
     25  N          2.6550  -16.2010   13.3150 N.am   45  ILE45      -0.1966
     26  CA         2.1740  -16.3130   14.6800 C.3    45  ILE45       0.1727
     27  C          3.3490  -16.6470   15.5810 C.2    45  ILE45       0.2616
     28  O          4.1080  -17.5680   15.2960 O.2    45  ILE45      -0.2715
     29  CB         1.1270  -17.4330   14.8100 C.3    45  ILE45       0.0290
     30  CG1       -0.0600  -17.1480   13.8900 C.3    45  ILE45       0.0022
     31  CG2        0.6590  -17.5390   16.2530 C.3    45  ILE45       0.0023
     32  CD1       -1.1030  -18.2460   13.9020 C.3    45  ILE45       0.0001
     33  N          3.5070  -15.8970   16.6620 N.am   46  LYS46      -0.1977
     34  CA         4.5320  -16.2320   17.6360 C.3    46  LYS46       0.1596
     35  C          3.8690  -16.5650   18.9590 C.2    46  LYS46       0.2287
     36  O          3.1180  -15.7620   19.5110 O.2    46  LYS46      -0.2864
     37  CB         5.5140  -15.0740   17.8180 C.3    46  LYS46       0.0298
     38  CG         6.6970  -15.4180   18.7160 C.3    46  LYS46       0.0038
     39  CD         7.7340  -14.3080   18.7220 C.3    46  LYS46       0.0206
     40  CE         8.8960  -14.6440   19.6410 C.3    46  LYS46       0.1093
     41  NZ         9.9870  -13.6330   19.5270 N.3    46  LYS46      -0.1314
     42  N          3.2560   -1.9530   20.7550 N.3    62  MET62      -0.1245
     43  CA         3.8070   -2.6620   19.6020 C.3    62  MET62       0.1570
     44  C          2.9240   -2.5020   18.3680 C.2    62  MET62       0.2261
     45  O          3.4190   -2.5140   17.2390 O.2    62  MET62      -0.2867
     46  CB         3.9680   -4.1490   19.9230 C.3    62  MET62       0.0387
     47  CG         4.9900   -4.4390   21.0110 C.3    62  MET62       0.0595
     48  SD         4.6780   -6.0180   21.8290 S.3    62  MET62      -0.1393
     49  CE         5.1000   -7.1960   20.5250 C.3    62  MET62       0.0692
     50  N          1.1570  -13.8460   19.2870 N.3    84  LEU84      -0.1245
     51  CA         1.2330  -12.5940   18.5480 C.3    84  LEU84       0.1561
     52  C          1.0000  -12.8740   17.0690 C.2    84  LEU84       0.2260
     53  O          1.5420  -13.8270   16.5230 O.2    84  LEU84      -0.2867
     54  CB         2.6120  -11.9640   18.7400 C.3    84  LEU84       0.0270
     55  CG         3.0480  -11.7830   20.1980 C.3    84  LEU84       0.0019
     56  CD1        4.5010  -11.3220   20.2520 C.3    84  LEU84       0.0001
     57  CD2        2.1340  -10.7770   20.8790 C.3    84  LEU84       0.0001
     58  N          1.2730  -11.3350   13.1850 N.3    86  MET86      -0.1230
     59  CA         1.8800  -10.3110   12.3410 C.3    86  MET86       0.1702
     60  C          1.8310  -10.7100   10.8720 C.2    86  MET86       0.2592
     61  O          1.5270  -11.8500   10.5300 O.2    86  MET86      -0.2718
     62  CB         3.3340  -10.0710   12.7610 C.3    86  MET86       0.0401
     63  CG         3.4780   -9.5380   14.1860 C.3    86  MET86       0.0596
     64  SD         5.1960   -9.3970   14.7380 S.3    86  MET86      -0.1393
     65  CE         5.5440   -7.6570   14.2970 C.3    86  MET86       0.0692
     66  N          2.1310   -9.7590    9.9970 N.am   87  GLN87      -0.1966
     67  CA         2.1790  -10.0570    8.5740 C.3    87  GLN87       0.1733
     68  C          3.2980  -11.0510    8.2870 C.2    87  GLN87       0.2616
     69  O          4.4080  -10.9090    8.7970 O.2    87  GLN87      -0.2715
     70  CB         2.4140   -8.7750    7.7810 C.3    87  GLN87       0.0408
     71  CG         2.3830   -8.9730    6.2840 C.3    87  GLN87       0.0908
     72  CD         2.5130   -7.6670    5.5300 C.2    87  GLN87       0.2608
     73  OE1        3.2650   -6.7810    5.9320 O.2    87  GLN87      -0.2717
     74  NE2        1.7750   -7.5400    4.4330 N.am   87  GLN87      -0.0878
     75  N          3.0030  -12.0510    7.4630 N.am   88  LEU88      -0.1963
     76  CA         4.0030  -13.0410    7.0740 C.3    88  LEU88       0.1728
     77  C          4.9290  -12.4710    6.0070 C.2    88  LEU88       0.2616
     78  O          4.4680  -11.8830    5.0250 O.2    88  LEU88      -0.2715
     79  CB         3.3110  -14.2990    6.5390 C.3    88  LEU88       0.0311
     80  CG         4.2230  -15.4350    6.0650 C.3    88  LEU88       0.0022
     81  CD1        5.0590  -15.9450    7.2240 C.3    88  LEU88       0.0001
     82  CD2        3.3720  -16.5610    5.4950 C.3    88  LEU88       0.0001
     83  N          6.2330  -12.6400    6.2080 N.am   89  MET89      -0.1964
     84  CA         7.2350  -12.1920    5.2440 C.3    89  MET89       0.1722
     85  C          7.8460  -13.4030    4.5440 C.2    89  MET89       0.2458
     86  O          8.7390  -14.0510    5.0800 O.2    89  MET89      -0.2730
     87  CB         8.3400  -11.4130    5.9640 C.3    89  MET89       0.0427
     88  CG         7.8410  -10.2050    6.7350 C.3    89  MET89       0.0599
     89  SD         7.4570   -8.8390    5.6230 S.3    89  MET89      -0.1393
     90  CE         6.2410   -7.9410    6.6000 C.3    89  MET89       0.0692
     91  N          7.3730  -13.7190    3.3290 N.am   90  PRO90      -0.2727
     92  CA         7.7630  -14.9860    2.7040 C.3    90  PRO90       0.1402
     93  C          9.2630  -15.1420    2.4460 C.2    90  PRO90       0.2269
     94  O          9.7790  -16.2630    2.4600 O.2    90  PRO90      -0.2865
     95  CB         6.9340  -15.0280    1.4160 C.3    90  PRO90       0.0296
     96  CG         6.5580  -13.6050    1.1480 C.3    90  PRO90       0.0237
     97  CD         6.4250  -12.9550    2.4990 C.3    90  PRO90       0.0939
     98  N         11.4960  -14.3010    4.4790 N.3    92  GLY92      -0.1210
     99  CA        12.1060  -14.7240    5.7290 C.3    92  GLY92       0.1956
    100  C         13.0330  -13.7000    6.3540 C.2    92  GLY92       0.2612
    101  O         12.9210  -12.5000    6.0880 O.2    92  GLY92      -0.2717
    102  N         13.9580  -14.1650    7.1890 N.am   93  CYS93      -0.1970
    103  CA        14.8180  -13.2340    7.9060 C.3    93  CYS93       0.1712
    104  C         16.1150  -12.9520    7.1570 C.2    93  CYS93       0.2296
    105  O         16.5850  -13.7610    6.3460 O.2    93  CYS93      -0.2864
    106  CB        15.1000  -13.7400    9.3260 C.3    93  CYS93       0.0983
    107  SG        16.4850  -14.8750    9.5130 S.3    93  CYS93      -0.0798
    108  N         19.3120  -15.3150    7.3630 N.3    96  ASP96      -0.1239
    109  CA        19.2390  -16.4660    6.4650 C.3    96  ASP96       0.1674
    110  C         19.4610  -16.0300    5.0220 C.2    96  ASP96       0.2266
    111  O         20.1060  -16.7310    4.2400 O.2    96  ASP96      -0.2867
    112  CB        17.8740  -17.1470    6.5740 C.3    96  ASP96       0.1410
    113  CG        17.5860  -17.6700    7.9630 C.2    96  ASP96       0.3668
    114  OD1       16.4140  -18.0030    8.2270 O.co2  96  ASP96      -0.2456
    115  OD2       18.5180  -17.7520    8.7900 O.co2  96  ASP96      -0.2456
    116  N         23.0990  -15.3490    4.1530 N.3    99  ARG99      -0.1245
    117  CA        23.8100  -16.6230    4.1550 C.3    99  ARG99       0.1563
    118  C         23.5320  -17.3950    2.8710 C.2    99  ARG99       0.2260
    119  O         24.4430  -17.9460    2.2500 O.2    99  ARG99      -0.2867
    120  CB        23.3990  -17.4550    5.3680 C.3    99  ARG99       0.0307
    121  CG        24.0270  -16.9680    6.6620 C.3    99  ARG99       0.0489
    122  CD        23.4770  -17.7100    7.8610 C.3    99  ARG99       0.2205
    123  NE        24.1900  -17.3540    9.0830 N.pl3  99  ARG99      -0.0865
    124  CZ        23.8500  -17.7780   10.2940 C.cat  99  ARG99       0.5346
    125  NH1       22.8030  -18.5790   10.4500 N.pl3  99  ARG99       0.1354
    126  NH2       24.5530  -17.3960   11.3510 N.pl3  99  ARG99       0.1354
    127  N         16.6240  -10.7850   13.5850 N.3   138  ASN138     -0.1240
    128  CA        15.4050  -10.0400   13.8820 C.3   138  ASN138      0.1653
    129  C         15.1590   -8.9300   12.8710 C.2   138  ASN138      0.2266
    130  O         14.4710   -7.9560   13.1680 O.2   138  ASN138     -0.2867
    131  CB        15.4770   -9.4370   15.2870 C.3   138  ASN138      0.1155
    132  CG        15.3830  -10.4880   16.3720 C.2   138  ASN138      0.2627
    133  OD1       15.9780  -10.3490   17.4420 O.2   138  ASN138     -0.2716
    134  ND2       14.6330  -11.5480   16.1010 N.am  138  ASN138     -0.0877
    135  N         13.6290   -8.7710    8.9440 N.3   140  LEU140     -0.1245
    136  CA        12.9300   -9.5970    7.9680 C.3   140  LEU140      0.1561
    137  C         12.9970   -8.9690    6.5900 C.2   140  LEU140      0.2260
    138  O         13.1580   -7.7530    6.4530 O.2   140  LEU140     -0.2867
    139  CB        11.4690   -9.7640    8.3700 C.3   140  LEU140      0.0270
    140  CG        11.2330  -10.4340    9.7190 C.3   140  LEU140      0.0019
    141  CD1        9.7450  -10.6150    9.9180 C.3   140  LEU140      0.0001
    142  CD2       11.9410  -11.7850    9.7610 C.3   140  LEU140      0.0001
    143  N         11.9370   -6.6260   13.1780 N.3   150  THR150     -0.1203
    144  CA        10.8410   -7.2580   13.8960 C.3   150  THR150      0.1994
    145  C         11.2170   -7.5300   15.3500 C.2   150  THR150      0.2617
    146  O         12.3020   -7.1690   15.7990 O.2   150  THR150     -0.2717
    147  CB        10.3910   -8.5740   13.2000 C.3   150  THR150      0.1784
    148  OG1        9.1520   -9.0180   13.7720 O.3   150  THR150     -0.2211
    149  CG2       11.4450   -9.6630   13.3580 C.3   150  THR150      0.0376
    150  N         10.2950   -8.1320   16.0880 N.am  151  ASP151     -0.1973
    151  CA        10.5260   -8.4780   17.4830 C.3   151  ASP151      0.1709
    152  C         10.6320   -7.2550   18.3920 C.2   151  ASP151      0.2293
    153  O         11.1540   -7.3430   19.5040 O.2   151  ASP151     -0.2864
    154  CB        11.7920   -9.3250   17.6100 C.3   151  ASP151      0.1436
    155  CG        11.5520  -10.6130   18.3640 C.2   151  ASP151      0.3671
    156  OD1       10.4140  -11.1270   18.3180 O.co2 151  ASP151     -0.2456
    157  OD2       12.5050  -11.1080   19.0030 O.co2 151  ASP151     -0.2456
@<TRIPOS>BOND
     1    96    95    1
     2    96    97    1
     3    95    92    1
     4   119   118    2
     5    93    94    2
     6    93    92    1
     7    97    91    1
     8    92    91    1
     9   118   117    1
    10    91    85   am
    11   116   117    1
    12   117   120    1
    13   111   110    2
    14    74    72   am
    15    98    99    1
    16    85    86    2
    17    85    84    1
    18   110   109    1
    19    78    77    2
    20    84    87    1
    21    84    83    1
    22   120   121    1
    23    82    80    1
    24    72    73    2
    25    72    71    1
    26    89    90    1
    27    89    88    1
    28    99   100    1
    29    87    88    1
    30    77    83   am
    31    77    76    1
    32    80    79    1
    33    80    81    1
    34   101   100    2
    35    71    70    1
    36   105   104    2
    37   100   102   am
    38   138   137    2
    39   109   112    1
    40   109   108    1
    41    79    76    1
    42   112   113    1
    43   137   136    1
    44   121   122    1
    45    76    75    1
    46   104   103    1
    47   102   103    1
    48    75    68   am
    49    70    67    1
    50   122   123    1
    51   103   106    1
    52   113   114   ar
    53   113   115   ar
    54   136   139    1
    55   136   135    1
    56    68    67    1
    57    68    69    2
    58   139   140    1
    59     8     6    1
    60    67    66    1
    61   123   124    2
    62   106   107    1
    63     7     6    1
    64     6     5    1
    65   140   142    1
    66   140   141    1
    67    66    60   am
    68    20    21    1
    69   124   125    1
    70   124   126    1
    71    61    60    2
    72     5     2    1
    73    60    59    1
    74     2     3    1
    75     2     1    1
    76    24    21    1
    77    21    22    1
    78     4     3    2
    79     3     9   am
    80    59    62    1
    81    59    58    1
    82    22    23    2
    83    22    25   am
    84    62    63    1
    85   129   130    2
    86   129   128    1
    87     9    10    1
    88   143   144    1
    89   147   149    1
    90   147   148    1
    91   147   144    1
    92    25    26    1
    93    18    17    1
    94   127   128    1
    95    16    15    2
    96   128   131    1
    97    30    32    1
    98    30    29    1
    99   144   145    1
   100    10    11    1
   101    63    64    1
   102    65    64    1
   103    15    14    1
   104    17    14    1
   105    17    19    1
   106    26    29    1
   107    26    27    1
   108    29    31    1
   109   131   132    1
   110    28    27    2
   111    14    13    1
   112   145   146    2
   113   145   150   am
   114    11    12    2
   115    27    33   am
   116   150   151    1
   117   134   132   am
   118   132   133    2
   119    53    52    2
   120    33    34    1
   121    52    51    1
   122    45    44    2
   123   151   154    1
   124   151   152    1
   125   154   155    1
   126    34    37    1
   127    34    35    1
   128    37    38    1
   129   156   155   ar
   130   155   157   ar
   131    44    43    1
   132   152   153    2
   133    51    54    1
   134    51    50    1
   135    38    39    1
   136    39    40    1
   137    54    55    1
   138    35    36    2
   139    41    40    1
   140    43    46    1
   141    43    42    1
   142    46    47    1
   143    55    56    1
   144    55    57    1
   145    49    48    1
   146    47    48    1
