@<TRIPOS>MOLECULE
tmp/4i23A00.pdb
 147 138 0 0 0
SMALL
GASTEIGER

@<TRIPOS>ATOM
      1  N         -3.3000  -46.0320  -19.2880 N.3    24  LEU24      -0.1231
      2  CA        -2.2250  -46.7900  -18.6670 C.3    24  LEU24       0.1693
      3  C         -0.9060  -46.1000  -18.9790 C.2    24  LEU24       0.2592
      4  O          0.0150  -46.1050  -18.1670 O.2    24  LEU24      -0.2718
      5  CB        -2.2020  -48.2250  -19.2000 C.3    24  LEU24       0.0284
      6  CG        -3.2380  -49.1880  -18.6230 C.3    24  LEU24       0.0019
      7  CD1       -4.5950  -48.5260  -18.6220 C.3    24  LEU24       0.0001
      8  CD2       -3.2730  -50.4610  -19.4380 C.3    24  LEU24       0.0001
      9  N         -0.8250  -45.5030  -20.1640 N.am   25  GLY25      -0.1957
     10  CA         0.4050  -44.8550  -20.5800 C.3    25  GLY25       0.1869
     11  C          0.1420  -43.6530  -21.4610 C.2    25  GLY25       0.2309
     12  O         -0.9610  -43.4930  -21.9880 O.2    25  GLY25      -0.2863
     13  N         -1.8270  -45.4450  -24.4310 N.3    29  VAL29      -0.1245
     14  CA        -2.3930  -46.7810  -24.2200 C.3    29  VAL29       0.1561
     15  C         -3.4610  -46.7820  -23.1290 C.2    29  VAL29       0.2260
     16  O         -3.2710  -46.1810  -22.0760 O.2    29  VAL29      -0.2867
     17  CB        -1.3050  -47.7920  -23.8120 C.3    29  VAL29       0.0252
     18  CG1       -1.9270  -49.1520  -23.5900 C.3    29  VAL29       0.0019
     19  CG2       -0.2370  -47.8700  -24.8770 C.3    29  VAL29       0.0019
     20  N         -6.3340  -53.8720  -23.7010 N.3    46  ALA46      -0.1245
     21  CA        -5.6220  -52.6170  -23.8540 C.3    46  ALA46       0.1562
     22  C         -5.8660  -52.0640  -25.2570 C.2    46  ALA46       0.2260
     23  O         -5.8650  -52.8030  -26.2440 O.2    46  ALA46      -0.2867
     24  CB        -4.1530  -52.8200  -23.6270 C.3    46  ALA46       0.0290
     25  N         -4.4960  -49.1870  -27.9040 N.3    48  LYS48      -0.1245
     26  CA        -3.3850  -48.2860  -28.1640 C.3    48  LYS48       0.1561
     27  C         -3.5810  -47.5030  -29.4580 C.2    48  LYS48       0.2260
     28  O         -3.5960  -48.0840  -30.5450 O.2    48  LYS48      -0.2867
     29  CB        -2.0790  -49.0720  -28.2400 C.3    48  LYS48       0.0271
     30  CG        -0.8900  -48.2060  -28.5650 C.3    48  LYS48       0.0035
     31  CD         0.3820  -49.0200  -28.6490 C.3    48  LYS48       0.0206
     32  CE         0.7760  -49.2780  -30.0890 C.3    48  LYS48       0.1093
     33  NZ         1.9920  -50.1190  -30.1620 N.3    48  LYS48      -0.1314
     34  N          2.5890  -52.7090  -37.3640 N.3    63  GLU63      -0.1245
     35  CA         2.5220  -53.3540  -36.0710 C.3    63  GLU63       0.1567
     36  C          1.3280  -54.2940  -35.9670 C.2    63  GLU63       0.2260
     37  O          1.4350  -55.3710  -35.3820 O.2    63  GLU63      -0.2867
     38  CB         2.4420  -52.2900  -34.9890 C.3    63  GLU63       0.0388
     39  CG         2.1200  -52.8260  -33.6270 C.3    63  GLU63       0.1160
     40  CD         2.8040  -52.0350  -32.5460 C.2    63  GLU63       0.3649
     41  OE1        3.3590  -50.9610  -32.8700 O.co2  63  GLU63      -0.2457
     42  OE2        2.7920  -52.4930  -31.3780 O.co2  63  GLU63      -0.2457
     43  N          1.3100  -58.3710  -35.3290 N.3    67  MET67      -0.1245
     44  CA         0.5740  -58.9060  -34.1780 C.3    67  MET67       0.1570
     45  C         -0.5660  -59.8100  -34.6060 C.2    67  MET67       0.2261
     46  O         -0.9180  -60.7510  -33.8970 O.2    67  MET67      -0.2867
     47  CB        -0.0070  -57.7850  -33.3190 C.3    67  MET67       0.0387
     48  CG         0.9650  -57.1200  -32.3740 C.3    67  MET67       0.0595
     49  SD         0.0830  -56.0830  -31.1910 S.3    67  MET67      -0.1393
     50  CE        -0.1040  -57.2300  -29.8570 C.3    67  MET67       0.0692
     51  N          2.0750  -61.7460  -27.6680 N.3    76  CYS76      -0.1235
     52  CA         0.8340  -60.9720  -27.5190 C.3    76  CYS76       0.1677
     53  C         -0.1220  -61.0120  -28.7090 C.2    76  CYS76       0.2270
     54  O          0.2780  -60.8300  -29.8610 O.2    76  CYS76      -0.2867
     55  CB         1.1540  -59.5030  -27.2230 C.3    76  CYS76       0.0956
     56  SG         1.1260  -59.0790  -25.4740 S.3    76  CYS76      -0.0801
     57  N         -5.2240  -49.9140  -31.9400 N.3    89  LEU89      -0.1245
     58  CA        -4.9170  -51.3310  -31.7930 C.3    89  LEU89       0.1561
     59  C         -5.5970  -51.9010  -30.5510 C.2    89  LEU89       0.2260
     60  O         -5.6520  -51.2430  -29.5120 O.2    89  LEU89      -0.2867
     61  CB        -3.4100  -51.5240  -31.6840 C.3    89  LEU89       0.0270
     62  CG        -2.6800  -51.4850  -33.0180 C.3    89  LEU89       0.0019
     63  CD1       -1.1940  -51.3640  -32.7900 C.3    89  LEU89       0.0001
     64  CD2       -2.9980  -52.7440  -33.7850 C.3    89  LEU89       0.0001
     65  N         -5.5840  -55.2150  -27.9430 N.3    91  THR91      -0.1203
     66  CA        -4.9990  -56.4620  -27.4890 C.3    91  THR91       0.1994
     67  C         -5.6070  -56.9020  -26.1890 C.2    91  THR91       0.2618
     68  O         -6.2470  -56.1190  -25.4970 O.2    91  THR91      -0.2717
     69  CB        -3.5120  -56.3320  -27.2450 C.3    91  THR91       0.1784
     70  OG1       -3.2840  -55.2280  -26.3600 O.3    91  THR91      -0.2211
     71  CG2       -2.7730  -56.1230  -28.5370 C.3    91  THR91       0.0376
     72  N         -5.3780  -58.1690  -25.8640 N.am   92  GLN92      -0.1965
     73  CA        -5.6270  -58.6960  -24.5350 C.3    92  GLN92       0.1733
     74  C         -4.8910  -57.8530  -23.5120 C.2    92  GLN92       0.2616
     75  O         -3.7090  -57.5450  -23.6770 O.2    92  GLN92      -0.2715
     76  CB        -5.1310  -60.1310  -24.4590 C.3    92  GLN92       0.0408
     77  CG        -5.2840  -60.7720  -23.0960 C.3    92  GLN92       0.0908
     78  CD        -4.5400  -62.1000  -22.9970 C.2    92  GLN92       0.2608
     79  OE1       -3.5270  -62.3190  -23.6830 O.2    92  GLN92      -0.2717
     80  NE2       -5.0380  -62.9940  -22.1440 N.am   92  GLN92      -0.0878
     81  N         -5.6060  -57.4780  -22.4570 N.am   93  LEU93      -0.1963
     82  CA        -5.0240  -56.7470  -21.3370 C.3    93  LEU93       0.1728
     83  C         -4.0650  -57.6420  -20.5480 C.2    93  LEU93       0.2616
     84  O         -4.4040  -58.7730  -20.1690 O.2    93  LEU93      -0.2715
     85  CB        -6.1380  -56.2450  -20.4170 C.3    93  LEU93       0.0311
     86  CG        -5.7700  -55.4720  -19.1440 C.3    93  LEU93       0.0022
     87  CD1       -5.1060  -54.1370  -19.4610 C.3    93  LEU93       0.0001
     88  CD2       -7.0370  -55.2440  -18.3670 C.3    93  LEU93       0.0001
     89  N         -2.8640  -57.1280  -20.3100 N.am   94  MET94      -0.1964
     90  CA        -1.8770  -57.8030  -19.4690 C.3    94  MET94       0.1722
     91  C         -1.7810  -57.0570  -18.1390 C.2    94  MET94       0.2458
     92  O         -0.9800  -56.1340  -17.9780 O.2    94  MET94      -0.2730
     93  CB        -0.5200  -57.8150  -20.1750 C.3    94  MET94       0.0427
     94  CG        -0.5740  -58.4520  -21.5440 C.3    94  MET94       0.0599
     95  SD        -1.1220  -60.1580  -21.4350 S.3    94  MET94      -0.1393
     96  CE         0.4710  -60.9700  -21.1090 C.3    94  MET94       0.0692
     97  N         -2.6140  -57.4560  -17.1690 N.am   95  PRO95      -0.2716
     98  CA        -2.9450  -56.6030  -16.0220 C.3    95  PRO95       0.1536
     99  C         -1.7270  -56.1360  -15.2270 C.2    95  PRO95       0.2599
    100  O         -1.7080  -55.0200  -14.7120 O.2    95  PRO95      -0.2715
    101  CB        -3.8880  -57.4740  -15.1920 C.3    95  PRO95       0.0310
    102  CG        -4.4810  -58.4310  -16.1910 C.3    95  PRO95       0.0237
    103  CD        -3.3680  -58.7220  -17.1530 C.3    95  PRO95       0.0939
    104  N         -0.7020  -56.9780  -15.1420 N.am   96  PHE96      -0.1960
    105  CA         0.4500  -56.6720  -14.3030 C.3    96  PHE96       0.1771
    106  C          1.5350  -55.8210  -14.9760 C.2    96  PHE96       0.2620
    107  O          2.5980  -55.5870  -14.3910 O.2    96  PHE96      -0.2715
    108  CB         1.0420  -57.9720  -13.7690 C.3    96  PHE96       0.0574
    109  CG         0.1210  -58.7140  -12.8420 C.ar   96  PHE96      -0.0200
    110  CD1       -0.7290  -59.6910  -13.3240 C.ar   96  PHE96      -0.0042
    111  CD2        0.1060  -58.4330  -11.4850 C.ar   96  PHE96      -0.0042
    112  CE1       -1.5770  -60.3760  -12.4750 C.ar   96  PHE96      -0.0003
    113  CE2       -0.7420  -59.1180  -10.6230 C.ar   96  PHE96      -0.0003
    114  CZ        -1.5830  -60.0890  -11.1180 C.ar   96  PHE96      -0.0000
    115  N          1.2560  -55.3540  -16.1940 N.am   97  GLY97      -0.1940
    116  CA         2.1350  -54.4080  -16.8540 C.3    97  GLY97       0.2014
    117  C          3.3620  -55.0610  -17.4570 C.2    97  GLY97       0.2639
    118  O          3.4370  -56.2930  -17.5530 O.2    97  GLY97      -0.2714
    119  N          4.3290  -54.2390  -17.8670 N.am   98  CYS98      -0.1967
    120  CA         5.5660  -54.7520  -18.4310 C.3    98  CYS98       0.1712
    121  C          6.4220  -55.3580  -17.3220 C.2    98  CYS98       0.2296
    122  O          6.2490  -55.0320  -16.1480 O.2    98  CYS98      -0.2864
    123  CB         6.3350  -53.6390  -19.1550 C.3    98  CYS98       0.0983
    124  SG         6.9990  -52.3520  -18.0980 S.3    98  CYS98      -0.0798
    125  N          5.2500  -58.4080  -21.3930 N.3   145  LEU145     -0.1245
    126  CA         4.1150  -58.0800  -20.5480 C.3   145  LEU145      0.1561
    127  C          3.7370  -59.2510  -19.6660 C.2   145  LEU145      0.2260
    128  O          3.9880  -60.4100  -20.0160 O.2   145  LEU145     -0.2867
    129  CB         2.9250  -57.6470  -21.4040 C.3   145  LEU145      0.0270
    130  CG         3.2950  -56.4720  -22.3210 C.3   145  LEU145      0.0019
    131  CD1        2.2500  -56.3350  -23.4140 C.3   145  LEU145      0.0001
    132  CD2        3.4200  -55.1810  -21.5050 C.3   145  LEU145      0.0001
    133  N          5.9000  -58.6500  -26.5290 N.3   155  THR155     -0.1203
    134  CA         5.0580  -57.6460  -27.1440 C.3   155  THR155      0.1994
    135  C          5.8950  -56.6650  -27.9620 C.2   155  THR155      0.2617
    136  O          7.1000  -56.8550  -28.1340 O.2   155  THR155     -0.2717
    137  CB         4.2860  -56.8770  -26.0750 C.3   155  THR155      0.1784
    138  OG1        3.1740  -56.2050  -26.6700 O.3   155  THR155     -0.2211
    139  CG2        5.1800  -55.8440  -25.4330 C.3   155  THR155      0.0376
    140  N          5.2350  -55.6260  -28.4760 N.am  156  ASP156     -0.1973
    141  CA         5.8780  -54.5090  -29.1810 C.3   156  ASP156      0.1709
    142  C          6.6070  -54.8940  -30.4650 C.2   156  ASP156      0.2293
    143  O          7.8370  -54.8850  -30.5280 O.2   156  ASP156     -0.2864
    144  CB         6.8490  -53.7940  -28.2510 C.3   156  ASP156      0.1436
    145  CG         6.8630  -52.2930  -28.4650 C.2   156  ASP156      0.3671
    146  OD1        7.5110  -51.8300  -29.4380 O.co2 156  ASP156     -0.2456
    147  OD2        6.2220  -51.5820  -27.6500 O.co2 156  ASP156     -0.2456
@<TRIPOS>BOND
     1    34    35    1
     2    35    36    1
     3    35    38    1
     4    36    37    2
     5    43    44    1
     6    38    39    1
     7    45    44    1
     8    45    46    2
     9    44    47    1
    10    64    62    1
    11    39    40    1
    12    47    48    1
    13    62    63    1
    14    62    61    1
    15    41    40   ar
    16    40    42   ar
    17    48    49    1
    18    57    58    1
    19    58    61    1
    20    58    59    1
    21    49    50    1
    22    59    60    2
    23    28    27    2
    24   143   142    2
    25   142   141    1
    26    33    32    1
    27    32    31    1
    28    54    53    2
    29    27    26    1
    30   146   145   ar
    31   141   140    1
    32   141   144    1
    33    53    52    1
    34    31    30    1
    35    30    29    1
    36    71    69    1
    37   140   135   am
    38   145   144    1
    39   145   147   ar
    40    29    26    1
    41    26    25    1
    42   136   135    2
    43   135   134    1
    44    65    66    1
    45    51    52    1
    46    52    55    1
    47    66    69    1
    48    66    67    1
    49    69    70    1
    50    55    56    1
    51   134   133    1
    52   134   137    1
    53   138   137    1
    54    23    22    2
    55    67    72   am
    56    67    68    2
    57   137   139    1
    58    72    73    1
    59    22    21    1
    60    19    17    1
    61    73    76    1
    62    73    74    1
    63    76    77    1
    64    13    14    1
    65    14    17    1
    66    14    15    1
    67    21    20    1
    68    21    24    1
    69    17    18    1
    70    79    78    2
    71    75    74    2
    72    74    81   am
    73   131   130    1
    74    15    16    2
    75    77    78    1
    76    78    80   am
    77    81    82    1
    78   130   132    1
    79   130   129    1
    80    12    11    2
    81    94    95    1
    82    94    93    1
    83    11    10    1
    84    95    96    1
    85   129   126    1
    86   125   126    1
    87    82    83    1
    88    82    85    1
    89    10     9    1
    90   126   127    1
    91    83    89   am
    92    83    84    2
    93    85    86    1
    94    89    90    1
    95    93    90    1
    96     9     3   am
    97   128   127    2
    98    90    91    1
    99    87    86    1
   100     8     6    1
   101     1     2    1
   102     5     2    1
   103     5     6    1
   104   123   120    1
   105   123   124    1
   106    86    88    1
   107     3     2    1
   108     3     4    2
   109     6     7    1
   110   120   119    1
   111   120   121    1
   112    91    92    2
   113    91    97   am
   114   119   117   am
   115   118   117    2
   116   117   116    1
   117   121   122    2
   118    97   103    1
   119    97    98    1
   120   103   102    1
   121   116   115    1
   122   115   106   am
   123   102   101    1
   124    98    99    1
   125    98   101    1
   126    99   104   am
   127    99   100    2
   128   104   105    1
   129   106   107    2
   130   106   105    1
   131   105   108    1
   132   108   109    1
   133   110   109   ar
   134   110   112   ar
   135   109   111   ar
   136   112   114   ar
   137   111   113   ar
   138   114   113   ar
