@<TRIPOS>MOLECULE
tmp/4i24A00.pdb
 195 184 0 0 0
SMALL
GASTEIGER

@<TRIPOS>ATOM
      1  N        -19.8110   43.2130   -2.1790 N.3    19  LEU19      -0.1231
      2  CA       -19.2760   42.2160   -3.1020 C.3    19  LEU19       0.1693
      3  C        -19.0690   40.8810   -2.3980 C.2    19  LEU19       0.2592
      4  O        -19.0450   39.8280   -3.0360 O.2    19  LEU19      -0.2718
      5  CB       -17.9460   42.6960   -3.6880 C.3    19  LEU19       0.0284
      6  CG       -18.0300   43.8350   -4.7070 C.3    19  LEU19       0.0019
      7  CD1      -16.6340   44.3900   -4.9740 C.3    19  LEU19       0.0001
      8  CD2      -18.6670   43.3260   -5.9910 C.3    19  LEU19       0.0001
      9  N        -18.9120   40.9330   -1.0810 N.am   20  GLY20      -0.1957
     10  CA       -18.6860   39.7200   -0.3210 C.3    20  GLY20       0.1869
     11  C        -18.5290   39.9960    1.1570 C.2    20  GLY20       0.2309
     12  O        -18.0710   41.0670    1.5570 O.2    20  GLY20      -0.2863
     13  N        -16.5870   43.4390    2.1400 N.3    27  VAL27      -0.1245
     14  CA       -15.9830   44.0740    0.9710 C.3    27  VAL27       0.1561
     15  C        -17.0400   44.6990    0.0690 C.2    27  VAL27       0.2260
     16  O        -17.9970   44.0370   -0.3340 O.2    27  VAL27      -0.2867
     17  CB       -15.1660   43.0600    0.1320 C.3    27  VAL27       0.0252
     18  CG1      -14.6840   43.7220   -1.1550 C.3    27  VAL27       0.0019
     19  CG2      -13.9790   42.5540    0.9370 C.3    27  VAL27       0.0019
     20  N        -12.4550   49.4750   -4.4930 N.3    44  ALA44      -0.1231
     21  CA       -12.9090   48.4750   -3.5370 C.3    44  ALA44       0.1694
     22  C        -12.6610   48.9720   -2.1250 C.2    44  ALA44       0.2592
     23  O        -11.5870   49.4970   -1.8240 O.2    44  ALA44      -0.2718
     24  CB       -12.1750   47.1630   -3.7600 C.3    44  ALA44       0.0304
     25  N        -13.6570   48.8080   -1.2600 N.am   45  ILE45      -0.1966
     26  CA       -13.5300   49.2090    0.1370 C.3    45  ILE45       0.1727
     27  C        -13.8180   48.0150    1.0370 C.2    45  ILE45       0.2616
     28  O        -14.8130   47.3220    0.8520 O.2    45  ILE45      -0.2715
     29  CB       -14.5310   50.3360    0.5100 C.3    45  ILE45       0.0290
     30  CG1      -14.3350   51.5430   -0.4050 C.3    45  ILE45       0.0022
     31  CG2      -14.3260   50.7620    1.9520 C.3    45  ILE45       0.0023
     32  CD1      -14.9460   51.3660   -1.7650 C.3    45  ILE45       0.0001
     33  N        -12.9470   47.7750    2.0090 N.am   46  LYS46      -0.1977
     34  CA       -13.2070   46.7390    2.9950 C.3    46  LYS46       0.1596
     35  C        -13.3430   47.3510    4.3770 C.2    46  LYS46       0.2287
     36  O        -12.3940   47.9300    4.9070 O.2    46  LYS46      -0.2864
     37  CB       -12.0810   45.7000    2.9970 C.3    46  LYS46       0.0298
     38  CG       -12.2810   44.5770    4.0050 C.3    46  LYS46       0.0038
     39  CD       -11.3830   43.3970    3.6900 C.3    46  LYS46       0.0206
     40  CE       -11.7570   42.1770    4.5120 C.3    46  LYS46       0.1093
     41  NZ       -11.1160   40.9470    3.9690 N.3    46  LYS46      -0.1314
     42  N          1.3270   47.1020    4.4650 N.3    60  MET60      -0.1245
     43  CA         0.4520   46.6060    3.4010 C.3    60  MET60       0.1570
     44  C          0.4980   47.5330    2.1880 C.2    60  MET60       0.2261
     45  O          0.3610   47.0900    1.0440 O.2    60  MET60      -0.2867
     46  CB        -0.9920   46.4980    3.9130 C.3    60  MET60       0.0387
     47  CG        -1.1820   45.4810    5.0390 C.3    60  MET60       0.0595
     48  SD        -2.5940   45.8410    6.1370 S.3    60  MET60      -0.1393
     49  CE        -3.9780   45.6450    5.0380 C.3    60  MET60       0.0692
     50  N         -2.3240   47.8030   -0.6610 N.3    71  LEU71      -0.1245
     51  CA        -3.2530   48.7050    0.0210 C.3    71  LEU71       0.1561
     52  C         -2.9810   50.1270   -0.4580 C.2    71  LEU71       0.2260
     53  O         -1.8370   50.5760   -0.4410 O.2    71  LEU71      -0.2867
     54  CB        -3.0490   48.6400    1.5390 C.3    71  LEU71       0.0270
     55  CG        -3.9330   49.5760    2.3720 C.3    71  LEU71       0.0019
     56  CD1       -5.3800   49.2110    2.1560 C.3    71  LEU71       0.0001
     57  CD2       -3.5760   49.4720    3.8480 C.3    71  LEU71       0.0001
     58  N        -10.5460   49.9810    4.4380 N.3    82  LEU82      -0.1245
     59  CA        -9.3750   49.8730    3.5660 C.3    82  LEU82       0.1561
     60  C         -9.7970   50.0720    2.1120 C.2    82  LEU82       0.2260
     61  O        -10.8310   49.5610    1.6920 O.2    82  LEU82      -0.2867
     62  CB        -8.7330   48.4890    3.7260 C.3    82  LEU82       0.0270
     63  CG        -8.4540   48.0460    5.1660 C.3    82  LEU82       0.0019
     64  CD1       -7.8920   46.6240    5.1750 C.3    82  LEU82       0.0001
     65  CD2       -7.4790   49.0080    5.8190 C.3    82  LEU82       0.0001
     66  N         -8.6450   49.6950   -1.9660 N.3    84  MET84      -0.1230
     67  CA        -7.7440   49.0590   -2.9260 C.3    84  MET84       0.1702
     68  C         -8.3710   49.1250   -4.3130 C.2    84  MET84       0.2592
     69  O         -9.5460   49.4660   -4.4580 O.2    84  MET84      -0.2718
     70  CB        -7.5070   47.5950   -2.5360 C.3    84  MET84       0.0401
     71  CG        -6.8180   47.4150   -1.1860 C.3    84  MET84       0.0596
     72  SD        -6.6570   45.6750   -0.6910 S.3    84  MET84      -0.1393
     73  CE        -5.0300   45.2910   -1.3190 C.3    84  MET84       0.0692
     74  N         -7.5870   48.7900   -5.3330 N.am   85  GLN85      -0.1966
     75  CA        -8.0820   48.7770   -6.7060 C.3    85  GLN85       0.1733
     76  C         -9.1720   47.7240   -6.8880 C.2    85  GLN85       0.2616
     77  O         -9.0270   46.5740   -6.4600 O.2    85  GLN85      -0.2715
     78  CB        -6.9340   48.4970   -7.6850 C.3    85  GLN85       0.0408
     79  CG        -7.3470   48.5350   -9.1530 C.3    85  GLN85       0.0908
     80  CD        -6.1760   48.3280  -10.1000 C.2    85  GLN85       0.2608
     81  OE1       -5.3500   47.4340   -9.9040 O.2    85  GLN85      -0.2717
     82  NE2       -6.1000   49.1580  -11.1310 N.am   85  GLN85      -0.0878
     83  N        -10.2640   48.1200   -7.5290 N.am   86  LEU86      -0.1963
     84  CA       -11.3740   47.2070   -7.7660 C.3    86  LEU86       0.1728
     85  C        -11.0020   46.2480   -8.8900 C.2    86  LEU86       0.2616
     86  O        -10.4860   46.6620   -9.9290 O.2    86  LEU86      -0.2715
     87  CB       -12.6290   47.9940   -8.1530 C.3    86  LEU86       0.0311
     88  CG       -13.8760   47.1670   -8.4830 C.3    86  LEU86       0.0022
     89  CD1      -14.4320   46.5400   -7.2010 C.3    86  LEU86       0.0001
     90  CD2      -14.9190   48.0600   -9.1380 C.3    86  LEU86       0.0001
     91  N        -11.2400   44.9610   -8.6850 N.am   87  MET87      -0.1964
     92  CA       -11.0660   44.0220   -9.7730 C.3    87  MET87       0.1722
     93  C        -12.3340   43.2620  -10.1190 C.2    87  MET87       0.2458
     94  O        -12.7380   42.3280   -9.4230 O.2    87  MET87      -0.2730
     95  CB        -9.9110   43.0770   -9.4660 C.3    87  MET87       0.0427
     96  CG        -8.5860   43.7240   -9.8440 C.3    87  MET87       0.0599
     97  SD        -7.1570   42.8680   -9.2890 S.3    87  MET87      -0.1393
     98  CE        -7.4640   42.7960   -7.5420 C.3    87  MET87       0.0692
     99  N        -12.9780   43.6690  -11.2240 N.am   88  PRO88      -0.2716
    100  CA       -14.3140   43.2370  -11.6420 C.3    88  PRO88       0.1536
    101  C        -14.4680   41.7290  -11.7710 C.2    88  PRO88       0.2599
    102  O        -15.5400   41.1950  -11.4990 O.2    88  PRO88      -0.2715
    103  CB       -14.5190   43.9500  -12.9770 C.3    88  PRO88       0.0310
    104  CG       -13.6570   45.1590  -12.8790 C.3    88  PRO88       0.0237
    105  CD       -12.4390   44.7050  -12.1200 C.3    88  PRO88       0.0939
    106  N        -13.4090   41.0380  -12.1830 N.am   89  PHE89      -0.1960
    107  CA       -13.5020   39.5910  -12.3450 C.3    89  PHE89       0.1771
    108  C        -13.6960   38.8500  -11.0210 C.2    89  PHE89       0.2620
    109  O        -14.1960   37.7290  -11.0050 O.2    89  PHE89      -0.2715
    110  CB       -12.2670   39.0540  -13.0730 C.3    89  PHE89       0.0574
    111  CG       -12.3790   39.1010  -14.5720 C.ar   89  PHE89      -0.0200
    112  CD1      -11.6580   40.0300  -15.3110 C.ar   89  PHE89      -0.0042
    113  CD2      -13.1980   38.2050  -15.2450 C.ar   89  PHE89      -0.0042
    114  CE1      -11.7490   40.0670  -16.6910 C.ar   89  PHE89      -0.0003
    115  CE2      -13.2960   38.2330  -16.6270 C.ar   89  PHE89      -0.0003
    116  CZ       -12.5700   39.1660  -17.3540 C.ar   89  PHE89      -0.0000
    117  N        -13.3080   39.4710   -9.9140 N.am   90  GLY90      -0.1940
    118  CA       -13.6150   38.9010   -8.6110 C.3    90  GLY90       0.2014
    119  C        -12.5910   37.9040   -8.1000 C.2    90  GLY90       0.2639
    120  O        -11.4540   37.8770   -8.5900 O.2    90  GLY90      -0.2714
    121  N        -12.9830   37.0960   -7.1100 N.am   91  CYS91      -0.1967
    122  CA       -12.0640   36.1180   -6.5310 C.3    91  CYS91       0.1712
    123  C        -11.9580   34.8700   -7.3910 C.2    91  CYS91       0.2296
    124  O        -12.9230   34.4480   -8.0320 O.2    91  CYS91      -0.2864
    125  CB       -12.4720   35.7420   -5.0890 C.3    91  CYS91       0.0983
    126  SG       -14.1740   35.1530   -4.8380 S.3    91  CYS91      -0.0798
    127  N        -11.7070   31.8450   -6.5780 N.3    93  LEU93      -0.1231
    128  CA       -12.5370   30.7260   -6.1380 C.3    93  LEU93       0.1693
    129  C        -13.8660   30.7320   -6.8950 C.2    93  LEU93       0.2592
    130  O        -14.2620   29.7170   -7.4690 O.2    93  LEU93      -0.2718
    131  CB       -12.7930   30.7960   -4.6300 C.3    93  LEU93       0.0284
    132  CG       -13.6730   29.6810   -4.0540 C.3    93  LEU93       0.0019
    133  CD1      -13.0450   28.3170   -4.3710 C.3    93  LEU93       0.0001
    134  CD2      -13.8310   29.8730   -2.5470 C.3    93  LEU93       0.0001
    135  N        -14.5420   31.8800   -6.9110 N.am   94  ASP94      -0.1974
    136  CA       -15.7900   32.0150   -7.6710 C.3    94  ASP94       0.1709
    137  C        -15.5310   31.7410   -9.1420 C.2    94  ASP94       0.2293
    138  O        -16.3280   31.0910   -9.8200 O.2    94  ASP94      -0.2864
    139  CB       -16.3680   33.4300   -7.5380 C.3    94  ASP94       0.1436
    140  CG       -16.7470   33.7790   -6.1120 C.2    94  ASP94       0.3671
    141  OD1      -17.0770   34.9600   -5.8620 O.co2  94  ASP94      -0.2456
    142  OD2      -16.7120   32.8830   -5.2440 O.co2  94  ASP94      -0.2456
    143  N        -15.1960   28.0110   -9.9840 N.3    97  ARG97      -0.1245
    144  CA       -16.5100   27.3860   -9.8210 C.3    97  ARG97       0.1563
    145  C        -17.4510   27.7420  -10.9710 C.2    97  ARG97       0.2260
    146  O        -18.1850   26.8890  -11.4780 O.2    97  ARG97      -0.2867
    147  CB       -17.1440   27.8100   -8.4880 C.3    97  ARG97       0.0307
    148  CG       -16.5290   27.1290   -7.2700 C.3    97  ARG97       0.0489
    149  CD       -16.9840   27.7600   -5.9630 C.3    97  ARG97       0.2205
    150  NE       -16.4730   27.0170   -4.8160 N.pl3  97  ARG97      -0.0865
    151  CZ       -16.5980   27.3930   -3.5460 C.cat  97  ARG97       0.5346
    152  NH1      -17.2290   28.5200   -3.2290 N.pl3  97  ARG97       0.1354
    153  NH2      -16.0750   26.6410   -2.5890 N.pl3  97  ARG97       0.1354
    154  N        -10.1270   31.9120   -2.1480 N.3   135  ARG135     -0.1245
    155  CA       -11.0220   33.0270   -1.8450 C.3   135  ARG135      0.1563
    156  C        -10.2530   34.3420   -1.6940 C.2   135  ARG135      0.2260
    157  O        -10.8360   35.4290   -1.7720 O.2   135  ARG135     -0.2867
    158  CB       -11.7940   32.7440   -0.5520 C.3   135  ARG135      0.0307
    159  CG       -10.9350   32.8010    0.6930 C.3   135  ARG135      0.0489
    160  CD       -11.7080   32.4240    1.9500 C.3   135  ARG135      0.2205
    161  NE       -10.7910   32.1720    3.0560 N.pl3 135  ARG135     -0.0865
    162  CZ       -10.3660   30.9650    3.4150 C.cat 135  ARG135      0.5346
    163  NH1       -9.5210   30.8390    4.4270 N.pl3 135  ARG135      0.1354
    164  NH2      -10.7970   29.8840    2.7770 N.pl3 135  ARG135      0.1354
    165  N         -7.3890   37.1330   -6.3720 N.3   138  LEU138     -0.1245
    166  CA        -8.2790   37.8550   -7.2740 C.3   138  LEU138      0.1561
    167  C         -7.8290   37.7840   -8.7290 C.2   138  LEU138      0.2260
    168  O         -6.6370   37.6330   -9.0410 O.2   138  LEU138     -0.2867
    169  CB        -8.3960   39.3210   -6.8460 C.3   138  LEU138      0.0270
    170  CG        -8.9060   39.5820   -5.4270 C.3   138  LEU138      0.0019
    171  CD1       -8.8890   41.0740   -5.1620 C.3   138  LEU138      0.0001
    172  CD2      -10.3220   39.0180   -5.2480 C.3   138  LEU138      0.0001
    173  N         -4.6570   38.7120   -2.4740 N.3   148  THR148     -0.1203
    174  CA        -5.1640   39.8500   -1.7170 C.3   148  THR148      0.1994
    175  C         -5.2710   39.5160   -0.2230 C.2   148  THR148      0.2617
    176  O         -4.8800   38.4270    0.2090 O.2   148  THR148     -0.2717
    177  CB        -6.5430   40.3260   -2.2820 C.3   148  THR148      0.1784
    178  OG1       -6.8580   41.6230   -1.7610 O.3   148  THR148     -0.2211
    179  CG2       -7.6480   39.3550   -1.9140 C.3   148  THR148      0.0376
    180  N         -5.7640   40.4730    0.5570 N.am  149  ASP149     -0.1973
    181  CA        -5.9720   40.3020    1.9920 C.3   149  ASP149      0.1709
    182  C         -4.6920   40.1250    2.7920 C.2   149  ASP149      0.2293
    183  O         -4.7280   39.6310    3.9170 O.2   149  ASP149     -0.2864
    184  CB        -6.9030   39.1160    2.2660 C.3   149  ASP149      0.1436
    185  CG        -8.3690   39.5180    2.2880 C.2   149  ASP149      0.3671
    186  OD1       -8.6900   40.5750    2.8650 O.co2 149  ASP149     -0.2456
    187  OD2       -9.2040   38.7770    1.7260 O.co2 149  ASP149     -0.2456
    188  N         -4.1810   41.2940    7.0310 N.3   152  LEU152     -0.1245
    189  CA        -5.3800   41.3000    7.8660 C.3   152  LEU152      0.1561
    190  C         -5.3480   40.2610    8.9840 C.2   152  LEU152      0.2260
    191  O         -5.7420   40.5450   10.1160 O.2   152  LEU152     -0.2867
    192  CB        -6.6270   41.0850    7.0050 C.3   152  LEU152      0.0270
    193  CG        -6.9880   42.2720    6.1130 C.3   152  LEU152      0.0019
    194  CD1       -8.4020   42.1050    5.5780 C.3   152  LEU152      0.0001
    195  CD2       -6.8770   43.5570    6.9210 C.3   152  LEU152      0.0001
@<TRIPOS>BOND
     1   116   114   ar
     2   116   115   ar
     3   114   112   ar
     4   115   113   ar
     5   112   111   ar
     6   113   111   ar
     7   111   110    1
     8   110   107    1
     9   103   104    1
    10   103   100    1
    11   104   105    1
    12   107   106    1
    13   107   108    1
    14   106   101   am
    15   105    99    1
    16   101   100    1
    17   101   102    2
    18   100    99    1
    19   146   145    2
    20    99    93   am
    21    82    80   am
    22   108   109    2
    23   108   117   am
    24   145   144    1
    25    93    92    1
    26    93    94    2
    27    80    81    2
    28    80    79    1
    29   143   144    1
    30    86    85    2
    31   117   118    1
    32    96    95    1
    33    96    97    1
    34   144   147    1
    35   138   137    2
    36    92    95    1
    37    92    91    1
    38    97    98    1
    39    79    78    1
    40   137   136    1
    41    90    88    1
    42   168   167    2
    43    85    91   am
    44    85    84    1
    45   167   166    1
    46   118   119    1
    47   120   119    2
    48   147   148    1
    49    88    87    1
    50    88    89    1
    51    87    84    1
    52   119   121   am
    53   124   123    2
    54    84    83    1
    55    78    75    1
    56   136   139    1
    57   136   135    1
    58   139   140    1
    59    83    76   am
    60   130   129    2
    61   123   122    1
    62   166   169    1
    63   166   165    1
    64   148   149    1
    65   121   122    1
    66   135   129   am
    67   129   128    1
    68    76    75    1
    69    76    77    2
    70   169   170    1
    71    75    74    1
    72   127   128    1
    73   122   125    1
    74   128   131    1
    75   140   141   ar
    76   140   142   ar
    77     8     6    1
    78   149   150    1
    79   170   172    1
    80   170   171    1
    81    74    68   am
    82   125   126    1
    83     7     6    1
    84   150   151    2
    85     6     5    1
    86   131   132    1
    87    20    21    1
    88    69    68    2
    89   133   132    1
    90    68    67    1
    91   132   134    1
    92    24    21    1
    93     5     2    1
    94   151   152    1
    95   151   153    1
    96    21    22    1
    97     2     3    1
    98     2     1    1
    99     4     3    2
   100    67    70    1
   101    67    66    1
   102    70    71    1
   103   173   174    1
   104     3     9   am
   105   177   179    1
   106   177   178    1
   107   177   174    1
   108   154   155    1
   109    22    23    2
   110    22    25   am
   111   155   156    1
   112   155   158    1
   113   157   156    2
   114    32    30    1
   115   174   175    1
   116    73    72    1
   117    25    26    1
   118    71    72    1
   119    18    17    1
   120     9    10    1
   121    50    51    1
   122   158   159    1
   123    52    53    2
   124    52    51    1
   125    30    29    1
   126    16    15    2
   127    10    11    1
   128   175   176    2
   129   175   180   am
   130    51    54    1
   131    15    14    1
   132    17    19    1
   133    17    14    1
   134    26    29    1
   135    26    27    1
   136    29    31    1
   137   180   181    1
   138   159   160    1
   139    28    27    2
   140    14    13    1
   141    27    33   am
   142    45    44    2
   143    11    12    2
   144    54    55    1
   145    61    60    2
   146   187   185   ar
   147   160   161    1
   148   181   184    1
   149   181   182    1
   150    33    34    1
   151    60    59    1
   152    56    55    1
   153    44    43    1
   154   184   185    1
   155   185   186   ar
   156    55    57    1
   157   164   162    1
   158   182   183    2
   159    34    37    1
   160    34    35    1
   161    37    38    1
   162   161   162    2
   163    43    46    1
   164    43    42    1
   165   162   163    1
   166    59    62    1
   167    59    58    1
   168    39    38    1
   169    39    40    1
   170    62    63    1
   171    46    47    1
   172    41    40    1
   173    35    36    2
   174    49    48    1
   175    47    48    1
   176    63    64    1
   177    63    65    1
   178   194   193    1
   179   193   195    1
   180   193   192    1
   181   192   189    1
   182   188   189    1
   183   189   190    1
   184   190   191    2
