@<TRIPOS>MOLECULE
tmp/4i25D01.pdb
 120 114 0 0 0
SMALL
GASTEIGER

@<TRIPOS>ATOM
      1  N        -45.6880  -12.7450   11.1780 N.3   103  ARG103     -0.1245
      2  CA       -44.2920  -12.3030   11.1060 C.3   103  ARG103      0.1563
      3  C        -44.2140  -10.8430   10.6350 C.2   103  ARG103      0.2260
      4  O        -43.3190  -10.1210   11.0300 O.2   103  ARG103     -0.2867
      5  CB       -43.4390  -13.1670   10.2140 C.3   103  ARG103      0.0307
      6  CG       -42.4690  -14.1100   10.9020 C.3   103  ARG103      0.0489
      7  CD       -41.2950  -13.3940   11.6310 C.3   103  ARG103      0.2205
      8  NE       -40.5470  -12.3900   10.8320 N.pl3 103  ARG103     -0.0865
      9  CZ       -39.5580  -12.6810    9.9810 C.cat 103  ARG103      0.5346
     10  NH1      -39.2090  -13.9530    9.8030 N.pl3 103  ARG103      0.1354
     11  NH2      -38.9340  -11.7340    9.2760 N.pl3 103  ARG103      0.1354
     12  N        -42.4050  -14.4170   -0.1970 N.3   153  LEU153     -0.1245
     13  CA       -42.9840  -14.2000    1.0930 C.3   153  LEU153      0.1561
     14  C        -43.2510  -12.7320    1.1330 C.2   153  LEU153      0.2260
     15  O        -42.5220  -11.9850    1.8010 O.2   153  LEU153     -0.2867
     16  CB       -41.9720  -14.5100    2.2180 C.3   153  LEU153      0.0270
     17  CG       -41.4630  -15.9410    2.4010 C.3   153  LEU153      0.0019
     18  CD1      -40.2610  -15.9900    3.3270 C.3   153  LEU153      0.0001
     19  CD2      -42.5810  -16.7890    2.9300 C.3   153  LEU153      0.0001
     20  N        -44.0710  -10.4990    4.5220 N.3   156  LEU156     -0.1231
     21  CA       -42.9920  -10.7580    5.4620 C.3   156  LEU156      0.1693
     22  C        -41.7210  -10.0630    5.0330 C.2   156  LEU156      0.2591
     23  O        -41.1200   -9.3750    5.8440 O.2   156  LEU156     -0.2718
     24  CB       -42.7670  -12.2350    5.5990 C.3   156  LEU156      0.0284
     25  CG       -41.7180  -12.7480    6.5720 C.3   156  LEU156      0.0019
     26  CD1      -42.0090  -14.2040    6.8440 C.3   156  LEU156      0.0001
     27  CD2      -40.2960  -12.6140    6.0700 C.3   156  LEU156      0.0001
     28  N        -41.2960  -10.2680    3.7780 N.am  157  LEU157     -0.1980
     29  CA       -40.0890   -9.6550    3.2510 C.3   157  LEU157      0.1596
     30  C        -40.2020   -8.1900    2.9960 C.2   157  LEU157      0.2287
     31  O        -39.2530   -7.4640    3.1970 O.2   157  LEU157     -0.2864
     32  CB       -39.5870  -10.3380    2.0050 C.3   157  LEU157      0.0297
     33  CG       -39.0330  -11.7160    2.3690 C.3   157  LEU157      0.0022
     34  CD1      -38.6430  -12.4630    1.1060 C.3   157  LEU157      0.0001
     35  CD2      -37.8560  -11.6280    3.3530 C.3   157  LEU157      0.0001
     36  N        -40.0100   -6.6670    6.5090 N.3   160  TRP160     -0.1241
     37  CA       -38.6650   -6.9090    7.0170 C.3   160  TRP160      0.1605
     38  C        -37.7570   -5.7120    6.6670 C.2   160  TRP160      0.2264
     39  O        -36.8320   -5.3810    7.4040 O.2   160  TRP160     -0.2867
     40  CB       -38.0890   -8.1970    6.4130 C.3   160  TRP160      0.0550
     41  CG       -36.6960   -8.5250    6.7190 C.ar  160  TRP160      0.0003
     42  CD1      -35.6670   -8.6210    5.8290 C.ar  160  TRP160      0.0946
     43  CD2      -36.1300   -8.7870    8.0060 C.ar  160  TRP160      0.0152
     44  NE1      -34.5240   -8.9680    6.4910 N.ar  160  TRP160     -0.2442
     45  CE2      -34.7670   -9.0420    7.8190 C.ar  160  TRP160      0.0810
     46  CE3      -36.6460   -8.8230    9.2870 C.ar  160  TRP160      0.0012
     47  CZ2      -33.9020   -9.3630    8.8770 C.ar  160  TRP160      0.0191
     48  CZ3      -35.7930   -9.1440   10.3490 C.ar  160  TRP160      0.0001
     49  CH2      -34.4420   -9.3980   10.1260 C.ar  160  TRP160      0.0015
     50  N        -34.1120   -7.8110   -1.9590 N.3   228  THR228     -0.1218
     51  CA       -34.1180   -9.2570   -1.7690 C.3   228  THR228      0.1862
     52  C        -34.6570   -9.8070   -3.1160 C.2   228  THR228      0.2287
     53  O        -35.6860   -9.3870   -3.5680 O.2   228  THR228     -0.2866
     54  CB       -35.0180   -9.6790   -0.5950 C.3   228  THR228      0.1770
     55  OG1      -34.4700   -9.1720    0.6280 O.3   228  THR228     -0.2211
     56  CG2      -35.0430  -11.2320   -0.4660 C.3   228  THR228      0.0375
     57  N        -30.0310   -9.4340   -0.1510 N.3   251  GLU251     -0.1196
     58  CA       -30.2100  -10.8430    0.3160 C.3   251  GLU251      0.1783
     59  C        -30.5860  -11.5450   -0.9690 C.2   251  GLU251      0.2306
     60  O        -31.6230  -11.2490   -1.5530 O.2   251  GLU251     -0.2863
     61  CB       -31.3190  -10.9470    1.4060 C.2   251  GLU251      0.0071
     62  CG       -31.2210   -9.9160    2.5680 C.2   251  GLU251      0.0834
     63  CD       -32.4560   -9.8260    3.5080 C.2   251  GLU251      0.3877
     64  OE1      -33.6390  -10.1770    3.0840 O.co2 251  GLU251     -0.2406
     65  OE2      -32.2420   -9.4030    4.6950 O.co2 251  GLU251     -0.2406
     66  N        -38.5780  -20.6650   -1.3140 N.3   284  VAL284     -0.1231
     67  CA       -38.0090  -19.8640   -0.2340 C.3   284  VAL284      0.1692
     68  C        -36.5530  -19.8710   -0.5360 C.2   284  VAL284      0.2592
     69  O        -35.9850  -20.8970   -0.9010 O.2   284  VAL284     -0.2718
     70  CB       -38.3040  -20.4340    1.1580 C.3   284  VAL284      0.0266
     71  CG1      -37.9260  -19.4190    2.2350 C.3   284  VAL284      0.0020
     72  CG2      -39.7650  -20.7710    1.3330 C.3   284  VAL284      0.0020
     73  N        -35.9160  -18.7120   -0.4580 N.am  285  CYS285     -0.1956
     74  CA       -34.4690  -18.6820   -0.7040 C.3   285  CYS285      0.1843
     75  C        -33.7360  -19.6300    0.2380 C.2   285  CYS285      0.2625
     76  O        -32.6320  -20.0840   -0.0920 O.2   285  CYS285     -0.2714
     77  CB       -33.9130  -17.2660   -0.5290 C.3   285  CYS285      0.0997
     78  SG       -34.2840  -16.6730    1.1270 S.3   285  CYS285     -0.0797
     79  N        -34.3390  -19.9470    1.3850 N.am  286  LEU286     -0.1977
     80  CA       -33.6750  -20.8160    2.3750 C.3   286  LEU286      0.1596
     81  C        -33.8620  -22.3260    2.1720 C.2   286  LEU286      0.2287
     82  O        -33.2930  -23.1420    2.9530 O.2   286  LEU286     -0.2864
     83  CB       -34.1850  -20.4660    3.7550 C.3   286  LEU286      0.0297
     84  CG       -34.0440  -19.0020    4.2220 C.3   286  LEU286      0.0022
     85  CD1      -34.8340  -18.8730    5.5160 C.3   286  LEU286      0.0001
     86  CD2      -32.5880  -18.6720    4.4380 C.3   286  LEU286      0.0001
     87  N        -35.0920  -23.0990    9.3510 N.3   445  TYR445     -0.1241
     88  CA       -35.8830  -21.8630    9.2930 C.3   445  TYR445      0.1605
     89  C        -36.5640  -21.5950   10.6290 C.2   445  TYR445      0.2264
     90  O        -37.6980  -21.2250   10.7200 O.2   445  TYR445     -0.2867
     91  CB       -36.8770  -21.8830    8.1500 C.3   445  TYR445      0.0534
     92  CG       -37.4700  -20.5020    7.8000 C.ar  445  TYR445     -0.0201
     93  CD1      -36.7400  -19.3230    8.0320 C.ar  445  TYR445     -0.0009
     94  CD2      -38.7400  -20.3920    7.2080 C.ar  445  TYR445     -0.0009
     95  CE1      -37.2640  -18.0940    7.7410 C.ar  445  TYR445      0.0417
     96  CE2      -39.2910  -19.1590    6.9000 C.ar  445  TYR445      0.0417
     97  CZ       -38.5520  -18.0100    7.1830 C.ar  445  TYR445      0.1957
     98  OH       -39.0060  -16.7370    6.8980 O.3   445  TYR445     -0.2866
     99  N        -36.4570  -18.8360   13.3790 N.3   447  ARG447     -0.1245
    100  CA       -36.0560  -17.4440   13.3090 C.3   447  ARG447      0.1563
    101  C        -36.1480  -16.7300   14.6480 C.2   447  ARG447      0.2260
    102  O        -37.1520  -16.8060   15.3410 O.2   447  ARG447     -0.2867
    103  CB       -36.8490  -16.6180   12.2520 C.3   447  ARG447      0.0307
    104  CG       -36.4560  -16.9770   10.8270 C.3   447  ARG447      0.0489
    105  CD       -35.1460  -16.4110   10.3920 C.3   447  ARG447      0.2205
    106  NE       -35.2560  -14.9920   10.0590 N.pl3 447  ARG447     -0.0865
    107  CZ       -34.6240  -14.0110   10.6930 C.cat 447  ARG447      0.5346
    108  NH1      -33.8400  -14.2480   11.7540 N.pl3 447  ARG447      0.1354
    109  NH2      -34.7780  -12.7860   10.2730 N.pl3 447  ARG447      0.1354
    110  N        -28.7420  -11.8080    9.8250 N.3   453  PHE453     -0.1241
    111  CA       -29.2910  -12.5730    8.7760 C.3   453  PHE453      0.1605
    112  C        -28.6990  -12.0690    7.4470 C.2   453  PHE453      0.2264
    113  O        -28.5690  -10.8350    7.1900 O.2   453  PHE453     -0.2867
    114  CB       -30.7830  -12.4090    8.8030 C.3   453  PHE453      0.0534
    115  CG       -31.4790  -13.2450    7.8070 C.ar  453  PHE453     -0.0203
    116  CD1      -31.4950  -12.8650    6.4710 C.ar  453  PHE453     -0.0042
    117  CD2      -32.1650  -14.3840    8.2060 C.ar  453  PHE453     -0.0042
    118  CE1      -32.1410  -13.6560    5.5200 C.ar  453  PHE453     -0.0003
    119  CE2      -32.8330  -15.1700    7.2830 C.ar  453  PHE453     -0.0003
    120  CZ       -32.7820  -14.8330    5.9280 C.ar  453  PHE453     -0.0000
@<TRIPOS>BOND
     1    53    52    2
     2    52    51    1
     3    50    51    1
     4    51    54    1
     5    60    59    2
     6    66    67    1
     7    59    58    1
     8    69    68    2
     9    74    77    1
    10    74    73    1
    11    74    75    1
    12    54    56    1
    13    54    55    1
    14    68    73   am
    15    68    67    1
    16    77    78    1
    17    67    70    1
    18    12    13    1
    19    57    58    1
    20    76    75    2
    21    75    79   am
    22    58    61    1
    23    13    14    1
    24    13    16    1
    25    34    33    1
    26    14    15    2
    27    70    72    1
    28    70    71    1
    29    79    80    1
    30    61    62    2
    31    32    33    1
    32    32    29    1
    33    81    80    1
    34    81    82    2
    35    16    17    1
    36    33    35    1
    37    80    83    1
    38    17    19    1
    39    17    18    1
    40    62    63    1
    41    30    31    2
    42    30    29    1
    43    64    63   ar
    44    29    28    1
    45    63    65   ar
    46    83    84    1
    47    28    22   am
    48    84    86    1
    49    84    85    1
    50    20    21    1
    51    22    21    1
    52    22    23    2
    53    21    24    1
    54   118   120   ar
    55   118   116   ar
    56    24    25    1
    57    42    44   ar
    58    42    41   ar
    59   120   119   ar
    60    27    25    1
    61    40    41    1
    62    40    37    1
    63   116   115   ar
    64    44    45   ar
    65    36    37    1
    66    25    26    1
    67    38    37    1
    68    38    39    2
    69    41    43   ar
    70    98    97    1
    71    96    97   ar
    72    96    94   ar
    73    97    95   ar
    74   113   112    2
    75    94    92   ar
    76   119   117   ar
    77   112   111    1
    78    95    93   ar
    79    92    93   ar
    80    92    91    1
    81   115   117   ar
    82   115   114    1
    83    45    43   ar
    84    45    47   ar
    85    43    46   ar
    86    91    88    1
    87   111   114    1
    88   111   110    1
    89    47    49   ar
    90    11     9    1
    91    46    48   ar
    92    88    87    1
    93    88    89    1
    94    10     9    1
    95     9     8    2
    96   106   105    1
    97   106   107    2
    98    49    48   ar
    99     5     6    1
   100     5     2    1
   101   109   107    1
   102   105   104    1
   103    89    90    2
   104     3     4    2
   105     3     2    1
   106   107   108    1
   107   104   103    1
   108     8     7    1
   109     6     7    1
   110     2     1    1
   111   103   100    1
   112   100    99    1
   113   100   101    1
   114   101   102    2
