@<TRIPOS>MOLECULE
tmp/4i27A00.pdb
 147 140 0 0 0
SMALL
GASTEIGER

@<TRIPOS>ATOM
      1  N         -1.7410   -3.2040    7.9510 N.3   187  GLY187     -0.1210
      2  CA        -0.7830   -2.6470    8.8990 C.3   187  GLY187      0.1956
      3  C          0.5910   -2.4080    8.3170 C.2   187  GLY187      0.2612
      4  O          0.7650   -2.2820    7.1060 O.2   187  GLY187     -0.2717
      5  N          1.5660   -2.3780    9.1990 N.am  188  GLY188     -0.1956
      6  CA         2.9730   -2.1550    8.8850 C.3   188  GLY188      0.1869
      7  C          3.5580   -3.0850    7.8500 C.2   188  GLY188      0.2309
      8  O          4.3130   -2.6270    6.9940 O.2   188  GLY188     -0.2863
      9  N          3.0450   -2.0200    4.3850 N.3   191  ARG191     -0.1245
     10  CA         3.8260   -0.8290    4.0760 C.3   191  ARG191      0.1563
     11  C          5.3040   -1.1530    3.8630 C.2   191  ARG191      0.2260
     12  O          6.1130   -0.2280    3.7060 O.2   191  ARG191     -0.2867
     13  CB         3.6560    0.2260    5.1890 C.3   191  ARG191      0.0307
     14  CG         2.2140    0.7350    5.4030 C.3   191  ARG191      0.0489
     15  CD         2.1640    2.0090    6.2410 C.3   191  ARG191      0.2205
     16  NE         2.9570    1.9220    7.4710 N.pl3 191  ARG191     -0.0865
     17  CZ         2.5140    1.4650    8.6370 C.cat 191  ARG191      0.5346
     18  NH1        3.3220    1.4270    9.6910 N.pl3 191  ARG191      0.1354
     19  NH2        1.2630    1.0450    8.7620 N.pl3 191  ARG191      0.1354
     20  N          7.2800   -2.9680    6.1130 N.3   193  LYS193     -0.1245
     21  CA         8.0250   -3.0600    7.3800 C.3   193  LYS193      0.1561
     22  C          8.5830   -4.4540    7.6270 C.2   193  LYS193      0.2260
     23  O          7.9580   -5.4440    7.2390 O.2   193  LYS193     -0.2867
     24  CB         7.1570   -2.6410    8.5680 C.3   193  LYS193      0.0271
     25  CG         7.0550   -1.1440    8.7410 C.3   193  LYS193      0.0035
     26  CD         6.3440   -0.7830   10.0410 C.3   193  LYS193      0.0206
     27  CE         7.2750   -1.0110   11.2320 C.3   193  LYS193      0.1093
     28  NZ         6.6070   -0.9100   12.5500 N.3   193  LYS193     -0.1314
     29  N          9.3290   -5.4610   10.7940 N.3   195  THR195     -0.1203
     30  CA         8.8190   -5.8490   12.1240 C.3   195  THR195      0.1994
     31  C          7.4410   -5.2250   12.3980 C.2   195  THR195      0.2618
     32  O          6.9640   -4.3900   11.6240 O.2   195  THR195     -0.2717
     33  CB         9.8020   -5.4900   13.2570 C.3   195  THR195      0.1784
     34  OG1       10.0750   -4.0800   13.2380 O.3   195  THR195     -0.2211
     35  CG2       11.0920   -6.3300   13.2230 C.3   195  THR195      0.0376
     36  N          6.8270   -5.6440   13.5080 N.am  196  GLY196     -0.1942
     37  CA         5.5300   -5.1700   13.9840 C.3   196  GLY196      0.2014
     38  C          5.2000   -5.7240   15.3600 C.2   196  GLY196      0.2639
     39  O          5.8140   -6.7060   15.7910 O.2   196  GLY196     -0.2714
     40  N          4.2480   -5.0870   16.0680 N.am  197  HIS197     -0.1959
     41  CA         3.8180   -5.5320   17.3960 C.3   197  HIS197      0.1787
     42  C          2.7530   -6.6270   17.2460 C.2   197  HIS197      0.2620
     43  O          2.4260   -7.3350   18.2090 O.2   197  HIS197     -0.2715
     44  CB         3.3200   -4.3570   18.2700 C.3   197  HIS197      0.0785
     45  CG         1.8820   -3.9710   18.0790 C.ar  197  HIS197      0.0821
     46  ND1        1.4870   -3.1340   17.0470 N.ar  197  HIS197     -0.2267
     47  CD2        0.7960   -4.2740   18.8340 C.ar  197  HIS197      0.1154
     48  CE1        0.1740   -3.0070   17.1730 C.ar  197  HIS197      0.1986
     49  NE2       -0.2860   -3.6670   18.2360 N.ar  197  HIS197     -0.2212
     50  N          2.2060   -6.7370   16.0230 N.am  198  ASP198     -0.1971
     51  CA         1.2000   -7.7270   15.6650 C.3   198  ASP198      0.1709
     52  C          1.1250   -7.9040   14.1600 C.2   198  ASP198      0.2293
     53  O          1.9480   -7.3580   13.4300 O.2   198  ASP198     -0.2864
     54  CB        -0.1810   -7.3370   16.2460 C.3   198  ASP198      0.1436
     55  CG        -0.8590   -6.1120   15.6420 C.2   198  ASP198      0.3671
     56  OD1       -0.2340   -5.4340   14.8050 O.co2 198  ASP198     -0.2456
     57  OD2       -2.0040   -5.8170   16.0350 O.co2 198  ASP198     -0.2456
     58  N         -1.9840   -7.7560   11.0720 N.3   200  ASP200     -0.1239
     59  CA        -3.3670   -7.3560   10.7580 C.3   200  ASP200      0.1674
     60  C         -3.8270   -7.8880    9.4150 C.2   200  ASP200      0.2266
     61  O         -3.0380   -7.9490    8.4830 O.2   200  ASP200     -0.2867
     62  CB        -3.5120   -5.8320   10.7600 C.3   200  ASP200      0.1410
     63  CG        -2.9090   -5.1620   11.9690 C.2   200  ASP200      0.3668
     64  OD1       -3.3700   -5.4470   13.1080 O.co2 200  ASP200     -0.2456
     65  OD2       -1.9800   -4.3570   11.7860 O.co2 200  ASP200     -0.2456
     66  N         -4.8330   -9.4960   14.4340 N.3   285  ASP285     -0.1239
     67  CA        -6.0850   -8.7430   14.3100 C.3   285  ASP285      0.1674
     68  C         -6.7630   -9.0450   12.9940 C.2   285  ASP285      0.2266
     69  O         -6.1600   -8.8860   11.9260 O.2   285  ASP285     -0.2867
     70  CB        -5.8390   -7.2260   14.4420 C.3   285  ASP285      0.1410
     71  CG        -5.3090   -6.7770   15.8000 C.2   285  ASP285      0.3668
     72  OD1       -5.5210   -7.5040   16.8040 O.co2 285  ASP285     -0.2456
     73  OD2       -4.7040   -5.7140   15.8610 O.co2 285  ASP285     -0.2456
     74  N         -7.7900    2.5040    5.8230 N.3   300  GLY300     -0.1210
     75  CA        -7.7780    2.7160    7.2640 C.3   300  GLY300      0.1956
     76  C         -6.8360    1.7940    8.0040 C.2   300  GLY300      0.2612
     77  O         -6.0350    2.2340    8.8410 O.2   300  GLY300     -0.2717
     78  N         -6.9020    0.5130    7.6850 N.am  301  TRP301     -0.1962
     79  CA        -6.0750   -0.4850    8.3360 C.3   301  TRP301      0.1771
     80  C         -4.6370   -0.6070    7.7740 C.2   301  TRP301      0.2620
     81  O         -3.8280   -1.2860    8.4190 O.2   301  TRP301     -0.2715
     82  CB        -6.7880   -1.8330    8.3260 C.3   301  TRP301      0.0590
     83  CG        -7.8390   -1.9040    9.3940 C.ar  301  TRP301      0.0006
     84  CD1       -9.1220   -1.4430    9.3140 C.ar  301  TRP301      0.0946
     85  CD2       -7.6500   -2.3330   10.7460 C.ar  301  TRP301      0.0152
     86  NE1       -9.7670   -1.6230   10.5150 N.ar  301  TRP301     -0.2442
     87  CE2       -8.8840   -2.1660   11.4160 C.ar  301  TRP301      0.0810
     88  CE3       -6.5800   -2.9090   11.4440 C.ar  301  TRP301      0.0012
     89  CZ2       -9.0680   -2.5500   12.7550 C.ar  301  TRP301      0.0191
     90  CZ3       -6.7620   -3.2640   12.7720 C.ar  301  TRP301      0.0001
     91  CH2       -8.0040   -3.1110   13.4000 C.ar  301  TRP301      0.0015
     92  N         -4.2880    0.0850    6.6440 N.am  302  THR302     -0.1937
     93  CA        -2.9040    0.0350    6.1040 C.3   302  THR302      0.2028
     94  C         -2.0280    1.0060    6.8660 C.2   302  THR302      0.2643
     95  O         -0.8500    0.7370    7.0520 O.2   302  THR302     -0.2714
     96  CB        -2.8490    0.2960    4.5800 C.3   302  THR302      0.1808
     97  OG1       -3.5370   -0.7650    3.9520 O.3   302  THR302     -0.2208
     98  CG2       -1.4250    0.3270    4.0160 C.3   302  THR302      0.0379
     99  N         -2.5950    2.1190    7.2860 N.am  303  GLY303     -0.1939
    100  CA        -1.8540    3.1520    7.9910 C.3   303  GLY303      0.2014
    101  C         -0.8800    3.9010    7.1030 C.2   303  GLY303      0.2640
    102  O         -1.0400    3.9030    5.8800 O.2   303  GLY303     -0.2714
    103  N          0.1730    4.5250    7.6790 N.am  304  SER304     -0.1935
    104  CA         0.4870    4.5730    9.1200 C.3   304  SER304      0.2055
    105  C         -0.5110    5.4290    9.8720 C.2   304  SER304      0.2642
    106  O         -1.3440    6.0790    9.2430 O.2   304  SER304     -0.2714
    107  CB         1.8960    5.1030    9.3390 C.3   304  SER304      0.2130
    108  OG         1.9840    6.4740    8.9790 O.3   304  SER304     -0.2179
    109  N         -0.4400    5.4300   11.2110 N.am  305  ARG305     -0.1977
    110  CA        -1.3710    6.1940   12.0420 C.3   305  ARG305      0.1597
    111  C         -1.3490    7.6940   11.6620 C.2   305  ARG305      0.2287
    112  O         -2.4210    8.2920   11.5370 O.2   305  ARG305     -0.2864
    113  CB        -1.0750    5.9700   13.5350 C.3   305  ARG305      0.0334
    114  CG        -2.1590    6.6240   14.3730 C.3   305  ARG305      0.0492
    115  CD        -1.9020    6.3520   15.8380 C.3   305  ARG305      0.2205
    116  NE        -0.5510    6.7480   16.1750 N.pl3 305  ARG305     -0.0865
    117  CZ         0.1760    5.9670   16.9690 C.cat 305  ARG305      0.5346
    118  NH1       -0.3470    4.8390   17.4480 N.pl3 305  ARG305      0.1354
    119  NH2        1.4330    6.2970   17.2630 N.pl3 305  ARG305      0.1354
    120  N         -3.0490    8.2660    8.2160 N.3   308  GLU308     -0.1245
    121  CA        -4.4920    8.1980    8.4550 C.3   308  GLU308      0.1567
    122  C         -5.0240    9.5200    9.0320 C.2   308  GLU308      0.2260
    123  O         -6.0350   10.0530    8.5440 O.2   308  GLU308     -0.2867
    124  CB        -4.8570    7.0400    9.4020 C.3   308  GLU308      0.0388
    125  CG        -4.5950    5.6400    8.8870 C.3   308  GLU308      0.1160
    126  CD        -5.2420    5.2770    7.5700 C.2   308  GLU308      0.3649
    127  OE1       -4.6110    4.4700    6.8610 O.co2 308  GLU308     -0.2457
    128  OE2       -6.3570    5.7550    7.2420 O.co2 308  GLU308     -0.2457
    129  N         -7.5910   12.3530    6.9660 N.3   312  ARG312     -0.1245
    130  CA        -8.8730   12.8240    7.5250 C.3   312  ARG312      0.1563
    131  C         -8.8920   14.3470    7.7220 C.2   312  ARG312      0.2260
    132  O         -9.9010   14.9940    7.4210 O.2   312  ARG312     -0.2867
    133  CB        -9.1950   12.0970    8.8350 C.3   312  ARG312      0.0307
    134  CG        -9.3470   10.5830    8.6030 C.3   312  ARG312      0.0489
    135  CD        -9.8470    9.7610    9.7840 C.3   312  ARG312      0.2205
    136  NE        -8.8180    9.5480   10.8200 N.pl3 312  ARG312     -0.0865
    137  CZ        -8.2320    8.3780   11.1050 C.cat 312  ARG312      0.5346
    138  NH1       -7.3120    8.3040   12.0650 N.pl3 312  ARG312      0.1354
    139  NH2       -8.5760    7.2730   10.4460 N.pl3 312  ARG312      0.1354
    140  N        -12.9980    4.7790    8.1830 N.3   325  ASN325     -0.1240
    141  CA       -12.7390    3.4220    7.6910 C.3   325  ASN325      0.1653
    142  C        -13.8920    2.8060    6.9280 C.2   325  ASN325      0.2266
    143  O        -13.7250    1.7350    6.3620 O.2   325  ASN325     -0.2867
    144  CB       -12.3980    2.5190    8.8600 C.3   325  ASN325      0.1155
    145  CG       -11.0390    2.7780    9.4800 C.2   325  ASN325      0.2627
    146  OD1      -10.2800    3.6500    9.0410 O.2   325  ASN325     -0.2716
    147  ND2      -10.6800    2.0050   10.5070 N.am  325  ASN325     -0.0877
@<TRIPOS>BOND
     1    12    11    2
     2    11    10    1
     3    97    96    1
     4    98    96    1
     5    10     9    1
     6    10    13    1
     7    96    93    1
     8    13    14    1
     9    14    15    1
    10    74    75    1
    11   102   101    2
    12    93    92    1
    13    93    94    1
    14    20    21    1
    15    15    16    1
    16   143   142    2
    17    92    80   am
    18   127   126   ar
    19    94    95    2
    20    94    99   am
    21   142   141    1
    22   129   130    1
    23     8     7    2
    24   101   103   am
    25   101   100    1
    26     4     3    2
    27    23    22    2
    28   128   126   ar
    29    75    76    1
    30    99   100    1
    31    21    22    1
    32    21    24    1
    33   132   131    2
    34    16    17    2
    35   130   131    1
    36   130   133    1
    37   126   125    1
    38   103   104    1
    39    78    76   am
    40    78    79    1
    41   141   140    1
    42   141   144    1
    43    80    79    1
    44    80    81    2
    45     7     6    1
    46     1     2    1
    47    76    77    2
    48   120   121    1
    49     3     2    1
    50     3     5   am
    51    82    79    1
    52    82    83    1
    53   121   122    1
    54   121   124    1
    55    61    60    2
    56   123   122    2
    57    24    25    1
    58   134   133    1
    59   134   135    1
    60    17    19    1
    61    17    18    1
    62    25    26    1
    63   144   145    1
    64     6     5    1
    65   125   124    1
    66   108   107    1
    67   146   145    2
    68   104   107    1
    69   104   105    1
    70   106   105    2
    71    84    83   ar
    72    84    86   ar
    73    83    85   ar
    74    60    59    1
    75   145   147   am
    76   135   136    1
    77   105   109   am
    78    26    27    1
    79   139   137    1
    80    86    87   ar
    81    85    87   ar
    82    85    88   ar
    83    59    62    1
    84    59    58    1
    85    62    63    1
    86    29    30    1
    87   136   137    2
    88   137   138    1
    89   109   110    1
    90    27    28    1
    91    87    89   ar
    92    88    90   ar
    93   112   111    2
    94    32    31    2
    95   111   110    1
    96    65    63   ar
    97    69    68    2
    98    63    64   ar
    99   110   113    1
   100    30    31    1
   101    30    33    1
   102    31    36   am
   103    89    91   ar
   104    90    91   ar
   105    68    67    1
   106    35    33    1
   107    34    33    1
   108    53    52    2
   109    36    37    1
   110   113   114    1
   111    37    38    1
   112    52    51    1
   113    67    66    1
   114    67    70    1
   115   114   115    1
   116    70    71    1
   117    56    55   ar
   118    38    39    2
   119    38    40   am
   120    55    57   ar
   121    55    54    1
   122    51    50    1
   123    51    54    1
   124    71    73   ar
   125    71    72   ar
   126   115   116    1
   127    50    42   am
   128    40    41    1
   129   116   117    2
   130   117   119    1
   131   117   118    1
   132    46    48   ar
   133    46    45   ar
   134    48    49   ar
   135    42    41    1
   136    42    43    2
   137    41    44    1
   138    45    44    1
   139    45    47   ar
   140    49    47   ar
