@<TRIPOS>MOLECULE
tmp/4i2bA00.pdb
 111 107 0 0 0
SMALL
GASTEIGER

@<TRIPOS>ATOM
      1  N         19.4870   24.9070   24.8860 N.3   105  THR105     -0.1218
      2  CA        18.6120   23.7210   24.7930 C.3   105  THR105      0.1862
      3  C         19.2030   22.5010   25.5720 C.2   105  THR105      0.2287
      4  O         18.5200   21.4930   25.7040 O.2   105  THR105     -0.2866
      5  CB        18.3020   23.3530   23.3430 C.3   105  THR105      0.1770
      6  OG1       19.5480   23.0050   22.7110 O.3   105  THR105     -0.2211
      7  CG2       17.5270   24.4790   22.5930 C.3   105  THR105      0.0375
      8  N         19.4950   22.5780   28.6170 N.3   107  VAL107     -0.1231
      9  CA        18.6850   22.6840   29.8280 C.3   107  VAL107      0.1692
     10  C         17.3300   21.9960   29.5520 C.2   107  VAL107      0.2592
     11  O         16.6670   22.3180   28.5620 O.2   107  VAL107     -0.2718
     12  CB        18.4910   24.1670   30.2600 C.3   107  VAL107      0.0266
     13  CG1       17.6340   24.2780   31.5300 C.3   107  VAL107      0.0020
     14  CG2       19.8230   24.8970   30.4330 C.3   107  VAL107      0.0020
     15  N         16.9140   21.0730   30.4360 N.am  108  PHE108     -0.1962
     16  CA        15.6240   20.4080   30.3400 C.3   108  PHE108      0.1771
     17  C         14.5250   21.4690   30.4690 C.2   108  PHE108      0.2620
     18  O         14.5540   22.2630   31.4020 O.2   108  PHE108     -0.2715
     19  CB        15.4980   19.3240   31.4300 C.3   108  PHE108      0.0574
     20  CG        14.1470   18.6520   31.5850 C.ar  108  PHE108     -0.0200
     21  CD1       13.6610   17.7930   30.6050 C.ar  108  PHE108     -0.0042
     22  CD2       13.4010   18.8100   32.7490 C.ar  108  PHE108     -0.0042
     23  CE1       12.4270   17.1390   30.7720 C.ar  108  PHE108     -0.0003
     24  CE2       12.1880   18.1220   32.9320 C.ar  108  PHE108     -0.0003
     25  CZ        11.7070   17.3030   31.9420 C.ar  108  PHE108     -0.0000
     26  N         13.6200   21.5110   29.4900 N.am  109  GLY109     -0.1940
     27  CA        12.5180   22.4650   29.4400 C.3   109  GLY109      0.2014
     28  C         12.7530   23.6270   28.5070 C.2   109  GLY109      0.2639
     29  O         11.8660   24.4710   28.3460 O.2   109  GLY109     -0.2714
     30  N         13.9470   23.6780   27.8860 N.am  110  VAL110     -0.1963
     31  CA        14.2900   24.7690   26.9700 C.3   110  VAL110      0.1727
     32  C         14.3400   24.2250   25.5450 C.2   110  VAL110      0.2617
     33  O         15.1910   23.3850   25.2320 O.2   110  VAL110     -0.2715
     34  CB        15.6080   25.5010   27.3510 C.3   110  VAL110      0.0290
     35  CG1       15.9190   26.6280   26.3630 C.3   110  VAL110      0.0023
     36  CG2       15.5540   26.0310   28.7860 C.3   110  VAL110      0.0023
     37  N         13.4310   24.7390   24.7110 N.am  111  GLY111     -0.1940
     38  CA        13.3460   24.4140   23.2940 C.3   111  GLY111      0.2014
     39  C         13.8250   25.5730   22.4390 C.2   111  GLY111      0.2639
     40  O         14.3240   26.5760   22.9640 O.2   111  GLY111     -0.2714
     41  N         13.6650   25.4320   21.1160 N.am  112  LEU112     -0.1963
     42  CA        14.0660   26.3850   20.0840 C.3   112  LEU112      0.1728
     43  C         13.5580   27.8170   20.3250 C.2   112  LEU112      0.2616
     44  O         14.3560   28.7460   20.2060 O.2   112  LEU112     -0.2715
     45  CB        13.5890   25.9080   18.7110 C.3   112  LEU112      0.0311
     46  CG        14.5620   25.0230   17.9390 C.3   112  LEU112      0.0022
     47  CD1       13.8290   24.1050   17.0070 C.3   112  LEU112      0.0001
     48  CD2       15.4810   25.8520   17.1250 C.3   112  LEU112      0.0001
     49  N         12.2650   27.9990   20.6520 N.am  113  LYS113     -0.1963
     50  CA        11.6510   29.3130   20.8750 C.3   113  LYS113      0.1728
     51  C         12.2450   30.0480   22.0680 C.2   113  LYS113      0.2616
     52  O         12.5850   31.2120   21.9200 O.2   113  LYS113     -0.2715
     53  CB        10.1350   29.2090   21.0570 C.3   113  LYS113      0.0311
     54  CG         9.3520   29.2630   19.7540 C.3   113  LYS113      0.0038
     55  CD         7.8720   29.0400   20.0240 C.3   113  LYS113      0.0206
     56  CE         7.1080   28.6420   18.7790 C.3   113  LYS113      0.1093
     57  NZ         5.7780   28.0510   19.1010 N.3   113  LYS113     -0.1314
     58  N         12.3770   29.3880   23.2390 N.am  114  THR114     -0.1951
     59  CA        12.9630   30.0010   24.4370 C.3   114  THR114      0.1897
     60  C         14.4620   30.3000   24.2050 C.2   114  THR114      0.2313
     61  O         14.9070   31.3900   24.5660 O.2   114  THR114     -0.2863
     62  CB        12.7250   29.1230   25.6810 C.3   114  THR114      0.1794
     63  OG1       11.3160   28.9210   25.8320 O.3   114  THR114     -0.2208
     64  CG2       13.2290   29.7630   26.9390 C.3   114  THR114      0.0378
     65  N          9.2640   23.1000   34.3330 N.3   140  MET140     -0.1230
     66  CA        10.1710   22.2140   33.5960 C.3   140  MET140      0.1702
     67  C         11.6070   22.7920   33.5730 C.2   140  MET140      0.2592
     68  O         12.5470   22.0810   33.9130 O.2   140  MET140     -0.2718
     69  CB         9.6380   21.9780   32.1720 C.3   140  MET140      0.0401
     70  CG        10.0760   20.6740   31.5890 C.3   140  MET140      0.0596
     71  SD         9.5810   20.4310   29.8790 S.3   140  MET140     -0.1393
     72  CE         8.9900   18.7680   29.9770 C.3   140  MET140      0.0692
     73  N         11.7510   24.0960   33.2660 N.am  141  GLN141     -0.1979
     74  CA        13.0410   24.8080   33.2180 C.3   141  GLN141      0.1601
     75  C         13.6830   24.9260   34.5960 C.2   141  GLN141      0.2287
     76  O         14.8980   24.7580   34.7000 O.2   141  GLN141     -0.2864
     77  CB        12.8700   26.1960   32.6100 C.3   141  GLN141      0.0394
     78  CG        12.5610   26.1430   31.1320 C.3   141  GLN141      0.0908
     79  CD        11.8860   27.3940   30.6300 C.2   141  GLN141      0.2608
     80  OE1       11.6690   28.3620   31.3610 O.2   141  GLN141     -0.2717
     81  NE2       11.5710   27.4110   29.3420 N.am  141  GLN141     -0.0878
     82  N          6.9510   12.2600   31.4510 N.3   257  PHE257     -0.1241
     83  CA         8.3170   12.7640   31.4150 C.3   257  PHE257      0.1605
     84  C          8.6920   13.0450   32.8470 C.2   257  PHE257      0.2264
     85  O          8.0440   13.8430   33.5230 O.2   257  PHE257     -0.2867
     86  CB         8.4180   14.0020   30.5140 C.3   257  PHE257      0.0534
     87  CG         7.8270   13.7930   29.1410 C.ar  257  PHE257     -0.0203
     88  CD1        6.6620   14.4540   28.7590 C.ar  257  PHE257     -0.0042
     89  CD2        8.4240   12.9270   28.2330 C.ar  257  PHE257     -0.0042
     90  CE1        6.1060   14.2500   27.4900 C.ar  257  PHE257     -0.0003
     91  CE2        7.8610   12.7110   26.9750 C.ar  257  PHE257     -0.0003
     92  CZ         6.7160   13.3920   26.6020 C.ar  257  PHE257     -0.0000
     93  N         16.6460   11.5070   34.0510 N.3   281  ARG281     -0.1245
     94  CA        15.4910   11.7050   33.1980 C.3   281  ARG281      0.1563
     95  C         14.9380   10.3290   32.8220 C.2   281  ARG281      0.2260
     96  O         15.6980    9.4490   32.3810 O.2   281  ARG281     -0.2867
     97  CB        15.8770   12.5210   31.9470 C.3   281  ARG281      0.0307
     98  CG        15.8150   14.0360   32.1440 C.3   281  ARG281      0.0489
     99  CD        14.3810   14.5090   32.0170 C.3   281  ARG281      0.2205
    100  NE        13.8810   14.3080   30.6520 N.pl3 281  ARG281     -0.0865
    101  CZ        12.9030   13.4730   30.3070 C.cat 281  ARG281      0.5346
    102  NH1       12.2720   12.7560   31.2300 N.pl3 281  ARG281      0.1354
    103  NH2       12.5600   13.3380   29.0380 N.pl3 281  ARG281      0.1354
    104  N         11.4430    8.4280   30.8540 N.3   283  ASP283     -0.1239
    105  CA        10.1730    8.5100   30.1240 C.3   283  ASP283      0.1674
    106  C          9.4690    7.1870   30.1840 C.2   283  ASP283      0.2266
    107  O         10.1070    6.1580   29.9600 O.2   283  ASP283     -0.2867
    108  CB        10.3690    8.9090   28.6750 C.3   283  ASP283      0.1410
    109  CG        11.0490   10.2330   28.5050 C.2   283  ASP283      0.3668
    110  OD1       10.8190   11.1450   29.3610 O.co2 283  ASP283     -0.2456
    111  OD2       11.7960   10.3800   27.5130 O.co2 283  ASP283     -0.2456
@<TRIPOS>BOND
     1    47    46    1
     2    48    46    1
     3    46    45    1
     4    45    42    1
     5    56    57    1
     6    56    55    1
     7    54    55    1
     8    54    53    1
     9    42    43    1
    10    42    41    1
    11    44    43    2
    12    43    49   am
    13    49    50    1
    14    50    53    1
    15    50    51    1
    16    41    39   am
    17    52    51    2
    18    51    58   am
    19    39    40    2
    20    39    38    1
    21     7     5    1
    22     6     5    1
    23    58    59    1
    24    38    37    1
    25     5     2    1
    26    60    59    1
    27    60    61    2
    28    59    62    1
    29    37    32   am
    30     2     1    1
    31     2     3    1
    32    33    32    2
    33    32    31    1
    34     3     4    2
    35    62    63    1
    36    62    64    1
    37    35    34    1
    38    92    91   ar
    39    92    90   ar
    40    31    34    1
    41    31    30    1
    42    91    89   ar
    43    34    36    1
    44    90    88   ar
    45   111   109   ar
    46    30    28   am
    47    89    87   ar
    48    29    28    2
    49   109   108    1
    50   109   110   ar
    51    28    27    1
    52    11    10    2
    53     8     9    1
    54   108   105    1
    55    88    87   ar
    56   103   101    1
    57    87    86    1
    58    81    79   am
    59    27    26    1
    60    26    17   am
    61    10     9    1
    62    10    15   am
    63     9    12    1
    64    71    72    1
    65    71    70    1
    66   107   106    2
    67   105   106    1
    68   105   104    1
    69    12    14    1
    70    12    13    1
    71   101   100    2
    72   101   102    1
    73    16    15    1
    74    16    17    1
    75    16    19    1
    76    17    18    2
    77    86    83    1
    78    21    23   ar
    79    21    20   ar
    80    79    78    1
    81    79    80    2
    82   100    99    1
    83    23    25   ar
    84    78    77    1
    85    83    82    1
    86    83    84    1
    87    19    20    1
    88    20    22   ar
    89    70    69    1
    90    25    24   ar
    91    97    98    1
    92    97    94    1
    93    99    98    1
    94    69    66    1
    95    96    95    2
    96    77    74    1
    97    22    24   ar
    98    95    94    1
    99    84    85    2
   100    94    93    1
   101    74    73    1
   102    74    75    1
   103    73    67   am
   104    67    66    1
   105    67    68    2
   106    66    65    1
   107    75    76    2
