@<TRIPOS>MOLECULE
tmp/4i2eA00.pdb
 111 107 0 0 0
SMALL
GASTEIGER

@<TRIPOS>ATOM
      1  N         19.4290   24.8840   24.8990 N.3   105  THR105     -0.1218
      2  CA        18.5530   23.7060   24.7810 C.3   105  THR105      0.1862
      3  C         19.1090   22.4750   25.5410 C.2   105  THR105      0.2287
      4  O         18.3760   21.4970   25.6840 O.2   105  THR105     -0.2866
      5  CB        18.2580   23.3570   23.3390 C.3   105  THR105      0.1770
      6  OG1       19.4890   23.0180   22.6810 O.3   105  THR105     -0.2211
      7  CG2       17.4910   24.4760   22.6170 C.3   105  THR105      0.0375
      8  N         19.4190   22.4770   28.5900 N.3   107  VAL107     -0.1231
      9  CA        18.6110   22.5670   29.8110 C.3   107  VAL107      0.1692
     10  C         17.2550   21.8780   29.5600 C.2   107  VAL107      0.2592
     11  O         16.5860   22.2000   28.5800 O.2   107  VAL107     -0.2718
     12  CB        18.4100   24.0470   30.2760 C.3   107  VAL107      0.0266
     13  CG1       17.5760   24.1220   31.5620 C.3   107  VAL107      0.0020
     14  CG2       19.7470   24.7710   30.4560 C.3   107  VAL107      0.0020
     15  N         16.8610   20.9470   30.4390 N.am  108  PHE108     -0.1962
     16  CA        15.5510   20.2900   30.3550 C.3   108  PHE108      0.1771
     17  C         14.4550   21.3670   30.5210 C.2   108  PHE108      0.2620
     18  O         14.4960   22.1630   31.4660 O.2   108  PHE108     -0.2715
     19  CB        15.4360   19.1610   31.4150 C.3   108  PHE108      0.0574
     20  CG        14.0770   18.5030   31.5590 C.ar  108  PHE108     -0.0200
     21  CD1       13.5900   17.6420   30.5730 C.ar  108  PHE108     -0.0042
     22  CD2       13.3170   18.6790   32.7170 C.ar  108  PHE108     -0.0042
     23  CE1       12.3410   17.0070   30.7280 C.ar  108  PHE108     -0.0003
     24  CE2       12.0890   18.0150   32.8820 C.ar  108  PHE108     -0.0003
     25  CZ        11.6090   17.1920   31.8880 C.ar  108  PHE108     -0.0000
     26  N         13.5650   21.4500   29.5370 N.am  109  GLY109     -0.1940
     27  CA        12.4810   22.4290   29.5280 C.3   109  GLY109      0.2014
     28  C         12.7000   23.6000   28.5950 C.2   109  GLY109      0.2639
     29  O         11.8040   24.4340   28.4370 O.2   109  GLY109     -0.2714
     30  N         13.8910   23.6700   27.9700 N.am  110  VAL110     -0.1963
     31  CA        14.2310   24.7480   27.0350 C.3   110  VAL110      0.1727
     32  C         14.2980   24.1740   25.6040 C.2   110  VAL110      0.2617
     33  O         15.1380   23.3330   25.3120 O.2   110  VAL110     -0.2715
     34  CB        15.5460   25.4780   27.4100 C.3   110  VAL110      0.0290
     35  CG1       15.8460   26.6130   26.4160 C.3   110  VAL110      0.0023
     36  CG2       15.4940   26.0040   28.8490 C.3   110  VAL110      0.0023
     37  N         13.4240   24.6770   24.7370 N.am  111  GLY111     -0.1940
     38  CA        13.3990   24.3070   23.3300 C.3   111  GLY111      0.2014
     39  C         13.8790   25.4560   22.4620 C.2   111  GLY111      0.2639
     40  O         14.3760   26.4640   22.9730 O.2   111  GLY111     -0.2714
     41  N         13.6770   25.3250   21.1460 N.am  112  LEU112     -0.1963
     42  CA        14.0740   26.2860   20.1180 C.3   112  LEU112      0.1728
     43  C         13.5700   27.7100   20.3570 C.2   112  LEU112      0.2616
     44  O         14.3640   28.6430   20.2210 O.2   112  LEU112     -0.2715
     45  CB        13.5790   25.8140   18.7470 C.3   112  LEU112      0.0311
     46  CG        14.5260   24.9430   17.9620 C.3   112  LEU112      0.0022
     47  CD1       13.7540   24.0160   17.0510 C.3   112  LEU112      0.0001
     48  CD2       15.4570   25.8000   17.1360 C.3   112  LEU112      0.0001
     49  N         12.2770   27.8840   20.6960 N.am  113  LYS113     -0.1963
     50  CA        11.6550   29.1980   20.8940 C.3   113  LYS113      0.1728
     51  C         12.2440   29.9540   22.0840 C.2   113  LYS113      0.2616
     52  O         12.5780   31.1270   21.9210 O.2   113  LYS113     -0.2715
     53  CB        10.1260   29.0850   21.0460 C.3   113  LYS113      0.0311
     54  CG         9.4390   29.0050   19.6810 C.3   113  LYS113      0.0038
     55  CD         9.6660   30.3580   19.0430 C.3   113  LYS113      0.0206
     56  CE         9.7180   30.3230   17.5500 C.3   113  LYS113      0.1093
     57  NZ        10.0690   31.7070   17.0630 N.3   113  LYS113     -0.1314
     58  N         12.3820   29.2970   23.2640 N.am  114  THR114     -0.1951
     59  CA        12.9680   29.9220   24.4630 C.3   114  THR114      0.1897
     60  C         14.4780   30.2200   24.2380 C.2   114  THR114      0.2313
     61  O         14.9410   31.2920   24.6310 O.2   114  THR114     -0.2863
     62  CB        12.7230   29.0620   25.7120 C.3   114  THR114      0.1794
     63  OG1       11.3090   28.8880   25.8520 O.3   114  THR114     -0.2208
     64  CG2       13.2530   29.7170   26.9840 C.3   114  THR114      0.0378
     65  N          9.2130   23.0010   34.4210 N.3   140  MET140     -0.1230
     66  CA        10.1230   22.1230   33.6800 C.3   140  MET140      0.1702
     67  C         11.5560   22.7010   33.6580 C.2   140  MET140      0.2592
     68  O         12.4960   21.9760   33.9760 O.2   140  MET140     -0.2718
     69  CB         9.6060   21.9190   32.2520 C.3   140  MET140      0.0401
     70  CG        10.0170   20.6010   31.6400 C.3   140  MET140      0.0596
     71  SD         9.4820   20.4020   29.9140 S.3   140  MET140     -0.1393
     72  CE         7.6950   20.4920   30.0840 C.3   140  MET140      0.0692
     73  N         11.7000   24.0130   33.3650 N.am  141  GLN141     -0.1979
     74  CA        12.9960   24.7220   33.3210 C.3   141  GLN141      0.1601
     75  C         13.6510   24.8060   34.7050 C.2   141  GLN141      0.2287
     76  O         14.8660   24.6320   34.8070 O.2   141  GLN141     -0.2864
     77  CB        12.8210   26.1330   32.7430 C.3   141  GLN141      0.0394
     78  CG        12.5500   26.1110   31.2470 C.3   141  GLN141      0.0908
     79  CD        11.8720   27.3730   30.7590 C.2   141  GLN141      0.2608
     80  OE1       11.6480   28.3280   31.4900 O.2   141  GLN141     -0.2717
     81  NE2       11.5320   27.3910   29.4900 N.am  141  GLN141     -0.0878
     82  N          6.8550   12.0330   31.4960 N.3   256  PHE256     -0.1241
     83  CA         8.2270   12.5360   31.4300 C.3   256  PHE256      0.1605
     84  C          8.6340   12.8350   32.8460 C.2   256  PHE256      0.2264
     85  O          8.0050   13.6620   33.5140 O.2   256  PHE256     -0.2867
     86  CB         8.3220   13.7760   30.5100 C.3   256  PHE256      0.0534
     87  CG         7.6710   13.5590   29.1600 C.ar  256  PHE256     -0.0203
     88  CD1        6.5190   14.2560   28.8010 C.ar  256  PHE256     -0.0042
     89  CD2        8.1770   12.6210   28.2680 C.ar  256  PHE256     -0.0042
     90  CE1        5.9140   14.0480   27.5500 C.ar  256  PHE256     -0.0003
     91  CE2        7.5610   12.4020   27.0330 C.ar  256  PHE256     -0.0003
     92  CZ         6.4470   13.1280   26.6740 C.ar  256  PHE256     -0.0000
     93  N         16.6270   11.3300   34.0310 N.3   278  ARG278     -0.1245
     94  CA        15.4550   11.5270   33.1700 C.3   278  ARG278      0.1563
     95  C         14.8890   10.1590   32.7900 C.2   278  ARG278      0.2260
     96  O         15.6360    9.3050   32.3390 O.2   278  ARG278     -0.2867
     97  CB        15.8330   12.3390   31.9160 C.3   278  ARG278      0.0307
     98  CG        15.7540   13.8500   32.1240 C.3   278  ARG278      0.0489
     99  CD        14.3180   14.3420   32.0010 C.3   278  ARG278      0.2205
    100  NE        13.7940   14.1470   30.6460 N.pl3 278  ARG278     -0.0865
    101  CZ        12.8170   13.3060   30.3110 C.cat 278  ARG278      0.5346
    102  NH1       12.2280   12.5530   31.2370 N.pl3 278  ARG278      0.1354
    103  NH2       12.4560   13.1740   29.0460 N.pl3 278  ARG278      0.1354
    104  N         11.3920    8.2310   30.8750 N.3   280  ASP280     -0.1239
    105  CA        10.1160    8.3210   30.1490 C.3   280  ASP280      0.1674
    106  C          9.4060    6.9870   30.2010 C.2   280  ASP280      0.2266
    107  O         10.0400    5.9500   29.9670 O.2   280  ASP280     -0.2867
    108  CB        10.3050    8.7410   28.6950 C.3   280  ASP280      0.1410
    109  CG        10.9630   10.0910   28.5350 C.2   280  ASP280      0.3668
    110  OD1       10.7340   10.9600   29.3760 O.co2 280  ASP280     -0.2456
    111  OD2       11.6780   10.2790   27.5410 O.co2 280  ASP280     -0.2456
@<TRIPOS>BOND
     1    47    46    1
     2    57    56    1
     3    48    46    1
     4    56    55    1
     5    46    45    1
     6    45    42    1
     7    55    54    1
     8    54    53    1
     9    42    43    1
    10    42    41    1
    11    44    43    2
    12    43    49   am
    13    49    50    1
    14    50    53    1
    15    50    51    1
    16    41    39   am
    17    52    51    2
    18    51    58   am
    19    39    40    2
    20    39    38    1
    21     7     5    1
    22     6     5    1
    23    58    59    1
    24    38    37    1
    25     5     2    1
    26    60    59    1
    27    60    61    2
    28    59    62    1
    29    37    32   am
    30     2     1    1
    31     2     3    1
    32    33    32    2
    33     3     4    2
    34    32    31    1
    35    62    63    1
    36    62    64    1
    37    35    34    1
    38    92    91   ar
    39    92    90   ar
    40    91    89   ar
    41    31    34    1
    42    31    30    1
    43    34    36    1
    44   111   109   ar
    45    90    88   ar
    46    30    28   am
    47    89    87   ar
    48    29    28    2
    49   109   108    1
    50   109   110   ar
    51    11    10    2
    52     8     9    1
    53    28    27    1
    54   108   105    1
    55    88    87   ar
    56   103   101    1
    57    87    86    1
    58    81    79   am
    59    27    26    1
    60    26    17   am
    61    10     9    1
    62    10    15   am
    63     9    12    1
    64    71    72    1
    65    71    70    1
    66   107   106    2
    67   105   106    1
    68   105   104    1
    69    12    14    1
    70    12    13    1
    71   101   100    2
    72   101   102    1
    73    16    15    1
    74    16    17    1
    75    16    19    1
    76    86    83    1
    77    17    18    2
    78    21    23   ar
    79    21    20   ar
    80   100    99    1
    81    23    25   ar
    82    79    78    1
    83    79    80    2
    84    78    77    1
    85    19    20    1
    86    83    82    1
    87    83    84    1
    88    20    22   ar
    89    70    69    1
    90    25    24   ar
    91    97    98    1
    92    97    94    1
    93    99    98    1
    94    69    66    1
    95    96    95    2
    96    22    24   ar
    97    77    74    1
    98    95    94    1
    99    84    85    2
   100    94    93    1
   101    74    73    1
   102    74    75    1
   103    73    67   am
   104    67    66    1
   105    67    68    2
   106    66    65    1
   107    75    76    2
