@<TRIPOS>MOLECULE
tmp/4i2hA01.pdb
 168 160 0 0 0
SMALL
GASTEIGER

@<TRIPOS>ATOM
      1  N         15.2920   -2.7970  -22.9940 N.3   184  GLY184     -0.1210
      2  CA        16.2720   -3.8180  -22.6360 C.3   184  GLY184      0.1956
      3  C         17.6720   -3.3160  -22.3820 C.2   184  GLY184      0.2612
      4  O         17.8670   -2.1280  -22.1000 O.2   184  GLY184     -0.2717
      5  N         18.6420   -4.2140  -22.5420 N.am  185  GLY185     -0.1942
      6  CA        20.0630   -3.9370  -22.3480 C.3   185  GLY185      0.2014
      7  C         20.6360   -2.7160  -23.0470 C.2   185  GLY185      0.2638
      8  O         21.4540   -1.9860  -22.4700 O.2   185  GLY185     -0.2714
      9  N         20.2450   -2.5090  -24.3020 N.am  186  PHE186     -0.1973
     10  CA        20.7320   -1.3850  -25.1070 C.3   186  PHE186      0.1639
     11  C         20.3290   -0.0260  -24.4760 C.2   186  PHE186      0.2290
     12  O         21.1430    0.8870  -24.4790 O.2   186  PHE186     -0.2864
     13  CB        20.2350   -1.5100  -26.5620 C.3   186  PHE186      0.0560
     14  CG        20.9190   -2.6090  -27.3430 C.ar  186  PHE186     -0.0200
     15  CD1       20.2020   -3.7180  -27.7950 C.ar  186  PHE186     -0.0042
     16  CD2       22.2760   -2.5380  -27.6300 C.ar  186  PHE186     -0.0042
     17  CE1       20.8310   -4.7210  -28.5500 C.ar  186  PHE186     -0.0003
     18  CE2       22.9090   -3.5550  -28.3590 C.ar  186  PHE186     -0.0003
     19  CZ        22.1860   -4.6410  -28.8080 C.ar  186  PHE186     -0.0000
     20  N         20.0610    0.3840  -21.2950 N.3   188  ARG188     -0.1245
     21  CA        20.8970    0.4670  -20.0930 C.3   188  ARG188      0.1563
     22  C         22.3960    0.7430  -20.4180 C.2   188  ARG188      0.2260
     23  O         23.2290    0.7480  -19.5180 O.2   188  ARG188     -0.2867
     24  CB        20.7600   -0.8290  -19.2630 C.3   188  ARG188      0.0307
     25  CG        19.3500   -1.1390  -18.7430 C.3   188  ARG188      0.0489
     26  CD        19.3950   -2.1880  -17.6430 C.3   188  ARG188      0.2205
     27  NE        20.1830   -3.3760  -17.9930 N.pl3 188  ARG188     -0.0865
     28  CZ        19.7090   -4.4470  -18.6290 C.cat 188  ARG188      0.5346
     29  NH1       20.5040   -5.4660  -18.9000 N.pl3 188  ARG188      0.1354
     30  NH2       18.4360   -4.4980  -19.0110 N.pl3 188  ARG188      0.1354
     31  N         24.3860   -1.0560  -22.8330 N.3   190  LYS190     -0.1245
     32  CA        25.1590   -2.1970  -23.3120 C.3   190  LYS190      0.1561
     33  C         25.5500   -2.0710  -24.7780 C.2   190  LYS190      0.2260
     34  O         24.8080   -1.5170  -25.6020 O.2   190  LYS190     -0.2867
     35  CB        24.3840   -3.5030  -23.0890 C.3   190  LYS190      0.0271
     36  CG        24.2770   -3.8880  -21.5910 C.3   190  LYS190      0.0035
     37  CD        23.4960   -5.1600  -21.3640 C.3   190  LYS190      0.0206
     38  CE        24.2070   -6.4260  -21.8150 C.3   190  LYS190      0.1093
     39  NZ        25.4280   -6.6790  -21.0030 N.3   190  LYS190     -0.1314
     40  N         26.3090   -4.8150  -26.5940 N.3   192  THR192     -0.1203
     41  CA        25.7450   -5.9790  -27.2780 C.3   192  THR192      0.1994
     42  C         24.4800   -6.4880  -26.5690 C.2   192  THR192      0.2618
     43  O         24.1530   -6.0410  -25.4560 O.2   192  THR192     -0.2717
     44  CB        26.7900   -7.1250  -27.4060 C.3   192  THR192      0.1784
     45  OG1       27.1940   -7.5220  -26.0980 O.3   192  THR192     -0.2211
     46  CG2       28.0030   -6.7570  -28.2490 C.3   192  THR192      0.0376
     47  N         23.8070   -7.4380  -27.2360 N.am  193  GLY193     -0.1942
     48  CA        22.6070   -8.1110  -26.7540 C.3   193  GLY193      0.2014
     49  C         22.2610   -9.3150  -27.5950 C.2   193  GLY193      0.2639
     50  O         22.7960   -9.4520  -28.6940 O.2   193  GLY193     -0.2714
     51  N         21.3860  -10.2070  -27.1010 N.am  194  HIS194     -0.1959
     52  CA        20.9390  -11.4160  -27.8320 C.3   194  HIS194      0.1787
     53  C         19.7550  -11.1000  -28.7340 C.2   194  HIS194      0.2620
     54  O         19.4560  -11.8560  -29.6580 O.2   194  HIS194     -0.2715
     55  CB        20.5520  -12.5470  -26.8660 C.3   194  HIS194      0.0785
     56  CG        21.6470  -12.9800  -25.9360 C.ar  194  HIS194      0.0821
     57  ND1       22.8270  -13.5740  -26.4020 N.ar  194  HIS194     -0.2267
     58  CD2       21.6950  -12.9200  -24.5840 C.ar  194  HIS194      0.1154
     59  CE1       23.5380  -13.8550  -25.3160 C.ar  194  HIS194      0.1986
     60  NE2       22.9050  -13.4680  -24.2000 N.ar  194  HIS194     -0.2212
     61  N         19.0710   -9.9860  -28.4410 N.am  195  ASP195     -0.1971
     62  CA        17.9060   -9.4880  -29.1560 C.3   195  ASP195      0.1709
     63  C         17.8120   -7.9710  -29.0480 C.2   195  ASP195      0.2293
     64  O         18.6300   -7.3590  -28.3430 O.2   195  ASP195     -0.2864
     65  CB        16.6270  -10.1650  -28.6410 C.3   195  ASP195      0.1436
     66  CG        16.0450   -9.8500  -27.2510 C.2   195  ASP195      0.3671
     67  OD1       16.5660   -8.9410  -26.5520 O.co2 195  ASP195     -0.2456
     68  OD2       14.9170  -10.2870  -26.9810 O.co2 195  ASP195     -0.2456
     69  N         14.7580   -5.0650  -28.2780 N.3   197  ASP197     -0.1239
     70  CA        13.3930   -4.9110  -27.7690 C.3   197  ASP197      0.1674
     71  C         12.8960   -3.5020  -27.9380 C.2   197  ASP197      0.2266
     72  O         13.6740   -2.5480  -27.8000 O.2   197  ASP197     -0.2867
     73  CB        13.3180   -5.3140  -26.2900 C.3   197  ASP197      0.1410
     74  CG        13.8680   -6.6890  -25.9710 C.2   197  ASP197      0.3668
     75  OD1       13.7140   -7.6090  -26.8090 O.co2 197  ASP197     -0.2456
     76  OD2       14.4680   -6.8400  -24.9220 O.co2 197  ASP197     -0.2456
     77  N          4.4570   -9.9840  -19.1340 N.3   235  ASP235     -0.1239
     78  CA         3.2980   -9.1130  -18.9330 C.3   235  ASP235      0.1674
     79  C          2.0930   -9.5500  -19.8130 C.2   235  ASP235      0.2266
     80  O          2.1850  -10.5160  -20.5950 O.2   235  ASP235     -0.2867
     81  CB         3.6720   -7.6560  -19.2110 C.3   235  ASP235      0.1410
     82  CG         4.2210   -7.4760  -20.5850 C.2   235  ASP235      0.3668
     83  OD1        5.3710   -7.8270  -20.7920 O.co2 235  ASP235     -0.2456
     84  OD2        3.4390   -7.2160  -21.4900 O.co2 235  ASP235     -0.2456
     85  N          2.1590   -8.5590  -27.6860 N.3   239  LYS239     -0.1245
     86  CA         3.5700   -8.5720  -28.0420 C.3   239  LYS239      0.1561
     87  C          3.8390   -9.5820  -29.1170 C.2   239  LYS239      0.2260
     88  O          3.0090  -10.4510  -29.3880 O.2   239  LYS239     -0.2867
     89  CB         4.4600   -8.8510  -26.8100 C.3   239  LYS239      0.0271
     90  CG         4.1950  -10.1820  -26.1180 C.3   239  LYS239      0.0035
     91  CD         5.0530  -10.3810  -24.8800 C.3   239  LYS239      0.0206
     92  CE         4.7380   -9.4270  -23.7640 C.3   239  LYS239      0.1093
     93  NZ         3.4200   -9.7220  -23.1500 N.3   239  LYS239     -0.1314
     94  N          7.2850  -11.9460  -30.8150 N.3   241  PHE241     -0.1241
     95  CA         8.6460  -12.4730  -30.8190 C.3   241  PHE241      0.1605
     96  C          8.9600  -12.7790  -32.2600 C.2   241  PHE241      0.2264
     97  O          8.2700  -13.5780  -32.8980 O.2   241  PHE241     -0.2867
     98  CB         8.7560  -13.7050  -29.9150 C.3   241  PHE241      0.0534
     99  CG         8.2430  -13.4860  -28.5130 C.ar  241  PHE241     -0.0203
    100  CD1        7.0560  -14.0710  -28.0890 C.ar  241  PHE241     -0.0042
    101  CD2        8.9100  -12.6470  -27.6340 C.ar  241  PHE241     -0.0042
    102  CE1        6.5700  -13.8500  -26.7880 C.ar  241  PHE241     -0.0003
    103  CE2        8.4170  -12.4150  -26.3440 C.ar  241  PHE241     -0.0003
    104  CZ         7.2610  -13.0300  -25.9230 C.ar  241  PHE241     -0.0000
    105  N         11.8450   -8.1890  -30.3180 N.3   264  ASP264     -0.1239
    106  CA        10.5900   -8.2580  -29.5760 C.3   264  ASP264      0.1674
    107  C          9.9130   -6.9180  -29.5850 C.2   264  ASP264      0.2266
    108  O         10.5540   -5.9040  -29.2810 O.2   264  ASP264     -0.2867
    109  CB        10.7830   -8.7240  -28.1470 C.3   264  ASP264      0.1410
    110  CG        11.5230  -10.0370  -28.0210 C.2   264  ASP264      0.3668
    111  OD1       11.3040  -10.9280  -28.8690 O.co2 264  ASP264     -0.2456
    112  OD2       12.3280  -10.1700  -27.0840 O.co2 264  ASP264     -0.2456
    113  N          9.3940   -1.7240  -16.7580 N.3   279  GLY279     -0.1210
    114  CA         9.5000   -3.1840  -16.7470 C.3   279  GLY279      0.1956
    115  C         10.3630   -3.7420  -17.8710 C.2   279  GLY279      0.2611
    116  O         11.1120   -4.6870  -17.6670 O.2   279  GLY279     -0.2717
    117  N         10.2990   -3.1640  -19.0600 N.am  280  TRP280     -0.1976
    118  CA        11.0600   -3.6870  -20.2020 C.3   280  TRP280      0.1640
    119  C         12.4930   -3.1670  -20.2700 C.2   280  TRP280      0.2290
    120  O         13.2690   -3.7000  -21.0580 O.2   280  TRP280     -0.2864
    121  CB        10.3210   -3.4040  -21.5210 C.3   280  TRP280      0.0576
    122  CG         9.2120   -4.3930  -21.7190 C.ar  280  TRP280      0.0006
    123  CD1        7.9570   -4.3440  -21.1820 C.ar  280  TRP280      0.0946
    124  CD2        9.3210   -5.6610  -22.3600 C.ar  280  TRP280      0.0152
    125  NE1        7.2720   -5.5020  -21.4680 N.ar  280  TRP280     -0.2442
    126  CE2        8.0870   -6.3300  -22.1870 C.ar  280  TRP280      0.0810
    127  CE3       10.3370   -6.2940  -23.1010 C.ar  280  TRP280      0.0012
    128  CZ2        7.8360   -7.5850  -22.7460 C.ar  280  TRP280      0.0191
    129  CZ3       10.0910   -7.5520  -23.6340 C.ar  280  TRP280      0.0001
    130  CH2        8.8480   -8.1700  -23.4830 C.ar  280  TRP280      0.0015
    131  N         14.6000   -3.1460  -17.6040 N.3   282  GLY282     -0.1210
    132  CA        15.3290   -4.0810  -16.7540 C.3   282  GLY282      0.1956
    133  C         16.3570   -3.3990  -15.8730 C.2   282  GLY282      0.2613
    134  O         16.2180   -2.2110  -15.5720 O.2   282  GLY282     -0.2717
    135  N         17.3970   -4.1150  -15.4080 N.am  283  SER283     -0.1938
    136  CA        17.7160   -5.5170  -15.6200 C.3   283  SER283      0.2055
    137  C         16.7140   -6.3920  -14.9090 C.2   283  SER283      0.2642
    138  O         15.8800   -5.8710  -14.1590 O.2   283  SER283     -0.2714
    139  CB        19.1190   -5.7890  -15.0820 C.3   283  SER283      0.2130
    140  OG        19.1490   -5.7040  -13.6660 O.3   283  SER283     -0.2179
    141  N         16.7940   -7.7340  -15.0940 N.am  284  ARG284     -0.1977
    142  CA        15.8900   -8.6620  -14.4140 C.3   284  ARG284      0.1597
    143  C         15.9690   -8.4920  -12.8990 C.2   284  ARG284      0.2287
    144  O         14.9310   -8.3960  -12.2460 O.2   284  ARG284     -0.2864
    145  CB        16.1990  -10.1170  -14.7980 C.3   284  ARG284      0.0334
    146  CG        16.0730  -10.3450  -16.2880 C.3   284  ARG284      0.0492
    147  CD        16.3190  -11.8200  -16.5290 C.3   284  ARG284      0.2205
    148  NE        15.3010  -12.6360  -15.8110 N.pl3 284  ARG284     -0.0865
    149  CZ        15.6740  -13.9140  -15.6020 C.cat 284  ARG284      0.5346
    150  NH1       16.8840  -14.2690  -16.0360 N.pl3 284  ARG284      0.1354
    151  NH2       14.8490  -14.7400  -14.9940 N.pl3 284  ARG284      0.1354
    152  N         14.3240   -5.2110  -11.6710 N.3   287  GLU287     -0.1245
    153  CA        12.8650   -5.3490  -11.6670 C.3   287  GLU287      0.1567
    154  C         12.3720   -6.1600  -10.4670 C.2   287  GLU287      0.2260
    155  O         11.4140   -5.7650   -9.8220 O.2   287  GLU287     -0.2867
    156  CB        12.3620   -6.0620  -12.9280 C.3   287  GLU287      0.0388
    157  CG        12.5540   -5.4470  -14.2970 C.3   287  GLU287      0.1160
    158  CD        11.5900   -6.2310  -15.1910 C.2   287  GLU287      0.3649
    159  OE1       12.0350   -6.8430  -16.1910 O.co2 287  GLU287     -0.2457
    160  OE2       10.3940   -6.3210  -14.8240 O.co2 287  GLU287     -0.2457
    161  N          4.2770   -4.3590  -14.8430 N.3   304  ASN304     -0.1240
    162  CA         4.4810   -3.6570  -16.1030 C.3   304  ASN304      0.1653
    163  C          3.2870   -2.8210  -16.5510 C.2   304  ASN304      0.2266
    164  O          3.4230   -2.0610  -17.5080 O.2   304  ASN304     -0.2867
    165  CB         4.8040   -4.6710  -17.1850 C.3   304  ASN304      0.1155
    166  CG         6.1860   -5.2660  -17.0920 C.2   304  ASN304      0.2627
    167  OD1        6.9220   -5.1110  -16.1130 O.2   304  ASN304     -0.2716
    168  ND2        6.5880   -5.9410  -18.1390 N.am  304  ASN304     -0.0877
@<TRIPOS>BOND
     1    97    96    2
     2    96    95    1
     3    95    94    1
     4    95    98    1
     5   105   106    1
     6    98    99    1
     7    54    53    2
     8   107   106    1
     9   107   108    2
    10   106   109    1
    11    88    87    2
    12    62    63    1
    13    62    65    1
    14    62    61    1
    15    87    86    1
    16    63    64    2
    17   111   110   ar
    18    19    17   ar
    19    19    18   ar
    20    53    61   am
    21    53    52    1
    22    50    49    2
    23    65    66    1
    24    17    15   ar
    25    99   100   ar
    26    99   101   ar
    27    18    16   ar
    28    69    70    1
    29    46    44    1
    30   109   110    1
    31   100   102   ar
    32    86    85    1
    33    86    89    1
    34   110   112   ar
    35    71    72    2
    36    71    70    1
    37    52    51    1
    38    52    55    1
    39    15    14   ar
    40    70    73    1
    41   101   103   ar
    42    16    14   ar
    43    49    51   am
    44    49    48    1
    45    44    41    1
    46    44    45    1
    47    14    13    1
    48    41    40    1
    49    41    42    1
    50    66    68   ar
    51    66    67   ar
    52    47    48    1
    53    47    42   am
    54    55    56    1
    55    89    90    1
    56    75    74   ar
    57   102   104   ar
    58    42    43    2
    59    13    10    1
    60    57    56   ar
    61    57    59   ar
    62   103   104   ar
    63    73    74    1
    64    90    91    1
    65    74    76   ar
    66    56    58   ar
    67    34    33    2
    68    59    60   ar
    69    10    11    1
    70    10     9    1
    71    91    92    1
    72    33    32    1
    73    58    60   ar
    74    12    11    2
    75     9     7   am
    76    92    93    1
    77   129   130   ar
    78   129   127   ar
    79   130   128   ar
    80    32    35    1
    81    32    31    1
    82   127   124   ar
    83    35    36    1
    84     7     8    2
    85     7     6    1
    86     1     2    1
    87   128   126   ar
    88     2     3    1
    89     5     3   am
    90     5     6    1
    91     3     4    2
    92   124   126   ar
    93   124   122   ar
    94   126   125   ar
    95    38    37    1
    96    38    39    1
    97   122   121    1
    98   122   123   ar
    99    36    37    1
   100   121   118    1
   101    84    82   ar
   102   125   123   ar
   103    20    21    1
   104   120   119    2
   105    83    82   ar
   106    80    79    2
   107    82    81    1
   108    22    21    1
   109    22    23    2
   110   119   118    1
   111   118   117    1
   112    21    24    1
   113    79    78    1
   114    24    25    1
   115    81    78    1
   116    77    78    1
   117   117   115   am
   118    30    28    1
   119    29    28    1
   120    25    26    1
   121    28    27    2
   122   168   166   am
   123    27    26    1
   124   115   116    2
   125   115   114    1
   126   131   132    1
   127   164   163    2
   128   165   166    1
   129   165   162    1
   130   166   167    2
   131   113   114    1
   132   132   133    1
   133   163   162    1
   134   147   146    1
   135   147   148    1
   136   146   145    1
   137   159   158   ar
   138   162   161    1
   139   150   149    1
   140   133   134    2
   141   133   135   am
   142   148   149    2
   143   136   135    1
   144   136   139    1
   145   136   137    1
   146   149   151    1
   147   158   160   ar
   148   158   157    1
   149   141   137   am
   150   141   142    1
   151   139   140    1
   152   137   138    2
   153   145   142    1
   154   142   143    1
   155   157   156    1
   156   156   153    1
   157   143   144    2
   158   152   153    1
   159   153   154    1
   160   154   155    2
