@<TRIPOS>MOLECULE
tmp/4i2hA00.pdb
 94 91 0 0 0
SMALL
GASTEIGER

@<TRIPOS>ATOM
      1  N         19.1810  -25.0320  -24.6670 N.3   105  THR105     -0.1218
      2  CA        18.3280  -23.8460  -24.5120 C.3   105  THR105      0.1862
      3  C         18.8790  -22.6050  -25.2860 C.2   105  THR105      0.2287
      4  O         18.1650  -21.6120  -25.3890 O.2   105  THR105     -0.2866
      5  CB        18.1000  -23.5290  -23.0440 C.3   105  THR105      0.1770
      6  OG1       19.3700  -23.2650  -22.4480 O.3   105  THR105     -0.2211
      7  CG2       17.3450  -24.6320  -22.3000 C.3   105  THR105      0.0375
      8  N         19.1220  -22.6200  -28.3630 N.3   107  VAL107     -0.1231
      9  CA        18.2960  -22.7170  -29.5670 C.3   107  VAL107      0.1692
     10  C         16.9720  -22.0050  -29.2720 C.2   107  VAL107      0.2592
     11  O         16.3080  -22.3080  -28.2660 O.2   107  VAL107     -0.2718
     12  CB        18.0480  -24.2010  -30.0100 C.3   107  VAL107      0.0266
     13  CG1       17.1810  -24.2860  -31.2730 C.3   107  VAL107      0.0020
     14  CG2       19.3510  -24.9510  -30.2030 C.3   107  VAL107      0.0020
     15  N         16.5780  -21.0760  -30.1630 N.am  108  PHE108     -0.1962
     16  CA        15.3160  -20.3560  -30.0470 C.3   108  PHE108      0.1771
     17  C         14.1830  -21.3920  -30.1680 C.2   108  PHE108      0.2620
     18  O         14.1710  -22.1840  -31.1150 O.2   108  PHE108     -0.2715
     19  CB        15.2590  -19.2620  -31.1280 C.3   108  PHE108      0.0574
     20  CG        13.9530  -18.5160  -31.2610 C.ar  108  PHE108     -0.0200
     21  CD1       13.5380  -17.6280  -30.2760 C.ar  108  PHE108     -0.0042
     22  CD2       13.1650  -18.6550  -32.4020 C.ar  108  PHE108     -0.0042
     23  CE1       12.3410  -16.9240  -30.4120 C.ar  108  PHE108     -0.0003
     24  CE2       11.9770  -17.9340  -32.5460 C.ar  108  PHE108     -0.0003
     25  CZ        11.5640  -17.0920  -31.5410 C.ar  108  PHE108     -0.0000
     26  N         13.3130  -21.4320  -29.1640 N.am  109  GLY109     -0.1940
     27  CA        12.1900  -22.3630  -29.1000 C.3   109  GLY109      0.2014
     28  C         12.3720  -23.5200  -28.1390 C.2   109  GLY109      0.2639
     29  O         11.4480  -24.3260  -27.9720 O.2   109  GLY109     -0.2714
     30  N         13.5770  -23.6460  -27.5360 N.am  110  VAL110     -0.1963
     31  CA        13.9150  -24.7490  -26.6330 C.3   110  VAL110      0.1727
     32  C         14.0270  -24.2210  -25.2090 C.2   110  VAL110      0.2617
     33  O         14.8880  -23.3750  -24.9150 O.2   110  VAL110     -0.2715
     34  CB        15.2200  -25.5210  -27.0680 C.3   110  VAL110      0.0290
     35  CG1       15.5710  -26.6550  -26.0930 C.3   110  VAL110      0.0023
     36  CG2       15.1040  -26.0480  -28.4940 C.3   110  VAL110      0.0023
     37  N         13.1940  -24.7820  -24.3390 N.am  111  GLY111     -0.1940
     38  CA        13.1640  -24.4610  -22.9220 C.3   111  GLY111      0.2014
     39  C         13.6420  -25.6120  -22.0700 C.2   111  GLY111      0.2639
     40  O         14.1270  -26.6080  -22.6110 O.2   111  GLY111     -0.2714
     41  N         13.4870  -25.4890  -20.7260 N.am  112  LEU112     -0.1963
     42  CA        13.9670  -26.4740  -19.7520 C.3   112  LEU112      0.1728
     43  C         13.3900  -27.8710  -19.9540 C.2   112  LEU112      0.2616
     44  O         14.1460  -28.8320  -19.8620 O.2   112  LEU112     -0.2715
     45  CB        13.7600  -26.0540  -18.2910 C.3   112  LEU112      0.0311
     46  CG        14.6700  -24.9450  -17.6960 C.3   112  LEU112      0.0022
     47  CD1       14.5110  -24.8620  -16.1890 C.3   112  LEU112      0.0001
     48  CD2       16.1590  -25.1790  -17.9880 C.3   112  LEU112      0.0001
     49  N         12.0980  -28.0000  -20.2340 N.am  113  LYS113     -0.1963
     50  CA        11.4390  -29.2980  -20.4250 C.3   113  LYS113      0.1728
     51  C         11.9810  -30.0640  -21.6490 C.2   113  LYS113      0.2616
     52  O         12.2770  -31.2600  -21.5260 O.2   113  LYS113     -0.2715
     53  CB         9.9190  -29.1140  -20.5440 C.3   113  LYS113      0.0311
     54  CG         9.0110  -28.4540  -19.5070 C.3   113  LYS113      0.0038
     55  CD         8.9140  -29.3680  -18.2820 C.3   113  LYS113      0.0206
     56  CE         9.1950  -28.5910  -16.9610 C.3   113  LYS113      0.1093
     57  NZ        10.4590  -28.9620  -16.3160 N.3   113  LYS113     -0.1314
     58  N         12.1180  -29.3880  -22.8190 N.am  114  THR114     -0.1951
     59  CA        12.6380  -30.0150  -24.0430 C.3   114  THR114      0.1897
     60  C         14.1170  -30.3760  -23.8530 C.2   114  THR114      0.2313
     61  O         14.5060  -31.4820  -24.2280 O.2   114  THR114     -0.2863
     62  CB        12.4050  -29.1230  -25.2700 C.3   114  THR114      0.1794
     63  OG1       11.0090  -28.8490  -25.3810 O.3   114  THR114     -0.2208
     64  CG2       12.8700  -29.7660  -26.5410 C.3   114  THR114      0.0378
     65  N          8.8400  -22.8790  -33.9350 N.3   140  MET140     -0.1245
     66  CA         9.8030  -22.0120  -33.2590 C.3   140  MET140      0.1570
     67  C         11.1950  -22.6380  -33.2740 C.2   140  MET140      0.2261
     68  O         12.1520  -21.9530  -33.6520 O.2   140  MET140     -0.2867
     69  CB         9.3510  -21.7560  -31.8180 C.3   140  MET140      0.0387
     70  CG         9.8270  -20.4220  -31.2480 C.3   140  MET140      0.0595
     71  SD         9.3810  -20.0770  -29.5300 S.3   140  MET140     -0.1393
     72  CE         7.6270  -20.2630  -29.6240 C.3   140  MET140      0.0692
     73  N          7.2850  -11.9460  -30.8150 N.3   241  PHE241     -0.1241
     74  CA         8.6460  -12.4730  -30.8190 C.3   241  PHE241      0.1605
     75  C          8.9600  -12.7790  -32.2600 C.2   241  PHE241      0.2264
     76  O          8.2700  -13.5780  -32.8980 O.2   241  PHE241     -0.2867
     77  CB         8.7560  -13.7050  -29.9150 C.3   241  PHE241      0.0534
     78  CG         8.2430  -13.4860  -28.5130 C.ar  241  PHE241     -0.0203
     79  CD1        7.0560  -14.0710  -28.0890 C.ar  241  PHE241     -0.0042
     80  CD2        8.9100  -12.6470  -27.6340 C.ar  241  PHE241     -0.0042
     81  CE1        6.5700  -13.8500  -26.7880 C.ar  241  PHE241     -0.0003
     82  CE2        8.4170  -12.4150  -26.3440 C.ar  241  PHE241     -0.0003
     83  CZ         7.2610  -13.0300  -25.9230 C.ar  241  PHE241     -0.0000
     84  N         16.8820  -11.3680  -33.6890 N.3   262  ARG262     -0.1245
     85  CA        15.7550  -11.5670  -32.8030 C.3   262  ARG262      0.1563
     86  C         15.2580  -10.1890  -32.3730 C.2   262  ARG262      0.2260
     87  O         16.0510   -9.3510  -31.9310 O.2   262  ARG262     -0.2867
     88  CB        16.1470  -12.4460  -31.6110 C.3   262  ARG262      0.0307
     89  CG        15.9560  -13.9470  -31.8710 C.3   262  ARG262      0.0489
     90  CD        14.5230  -14.3930  -31.6700 C.3   262  ARG262      0.2205
     91  NE        14.1310  -14.1980  -30.2750 N.pl3 262  ARG262     -0.0865
     92  CZ        13.2370  -13.3050  -29.8680 C.cat 262  ARG262      0.5346
     93  NH1       12.5970  -12.5460  -30.7490 N.pl3 262  ARG262      0.1354
     94  NH2       12.9810  -13.1560  -28.5770 N.pl3 262  ARG262      0.1354
@<TRIPOS>BOND
     1    65    66    1
     2    84    85    1
     3    68    67    2
     4    67    66    1
     5    66    69    1
     6    76    75    2
     7    85    86    1
     8    85    88    1
     9    24    22   ar
    10    24    25   ar
    11    22    20   ar
    12    86    87    2
    13    75    74    1
    14    89    90    1
    15    89    88    1
    16    69    70    1
    17    90    91    1
    18    25    23   ar
    19    13    12    1
    20    20    19    1
    21    20    21   ar
    22    70    71    1
    23    19    16    1
    24    18    17    2
    25    74    73    1
    26    74    77    1
    27    93    92    1
    28    23    21   ar
    29    91    92    2
    30    14    12    1
    31    17    16    1
    32    17    26   am
    33    15    16    1
    34    15    10   am
    35    12     9    1
    36    77    78    1
    37    92    94    1
    38    72    71    1
    39     9    10    1
    40     9     8    1
    41    10    11    2
    42    26    27    1
    43    27    28    1
    44    78    79   ar
    45    78    80   ar
    46    36    34    1
    47    28    29    2
    48    28    30   am
    49    79    81   ar
    50    80    82   ar
    51    30    31    1
    52    34    31    1
    53    34    35    1
    54    81    83   ar
    55    31    32    1
    56    64    62    1
    57    82    83   ar
    58     4     3    2
    59    63    62    1
    60     3     2    1
    61    62    59    1
    62    32    33    2
    63    32    37   am
    64     1     2    1
    65     2     5    1
    66    37    38    1
    67    61    60    2
    68    59    60    1
    69    59    58    1
    70     5     6    1
    71     5     7    1
    72    38    39    1
    73    58    51   am
    74    40    39    2
    75    39    41   am
    76    51    52    2
    77    51    50    1
    78    41    42    1
    79    53    50    1
    80    53    54    1
    81    50    49    1
    82    49    43   am
    83    43    44    2
    84    43    42    1
    85    42    45    1
    86    54    55    1
    87    45    46    1
    88    55    56    1
    89    48    46    1
    90    46    47    1
    91    56    57    1
