@<TRIPOS>MOLECULE
tmp/4i2iA00.pdb
 171 163 0 0 0
SMALL
GASTEIGER

@<TRIPOS>ATOM
      1  N         37.8110   44.7340   72.2200 N.3   185  GLY185     -0.1210
      2  CA        38.7690   45.7460   71.8090 C.3   185  GLY185      0.1956
      3  C         40.1780   45.2440   71.5790 C.2   185  GLY185      0.2612
      4  O         40.3780   44.0640   71.2850 O.2   185  GLY185     -0.2717
      5  N         41.1490   46.1440   71.7540 N.am  186  GLY186     -0.1942
      6  CA        42.5710   45.8840   71.5690 C.3   186  GLY186      0.2014
      7  C         43.1360   44.6890   72.3340 C.2   186  GLY186      0.2638
      8  O         43.9350   43.9380   71.7750 O.2   186  GLY186     -0.2714
      9  N         42.7630   44.5100   73.6170 N.am  187  PHE187     -0.1973
     10  CA        43.2320   43.3690   74.4100 C.3   187  PHE187      0.1639
     11  C         42.8710   42.0350   73.7830 C.2   187  PHE187      0.2290
     12  O         43.7330   41.1390   73.7390 O.2   187  PHE187     -0.2864
     13  CB        42.8370   43.4630   75.8960 C.3   187  PHE187      0.0560
     14  CG        43.5130   44.6150   76.6330 C.ar  187  PHE187     -0.0200
     15  CD1       42.7970   45.7580   76.9870 C.ar  187  PHE187     -0.0042
     16  CD2       44.8650   44.5620   76.9450 C.ar  187  PHE187     -0.0042
     17  CE1       43.4250   46.8230   77.6650 C.ar  187  PHE187     -0.0003
     18  CE2       45.4910   45.6150   77.6360 C.ar  187  PHE187     -0.0003
     19  CZ        44.7710   46.7480   77.9790 C.ar  187  PHE187     -0.0000
     20  N         42.6290   41.5040   70.6010 N.3   189  ARG189     -0.1245
     21  CA        43.4660   41.4140   69.4000 C.3   189  ARG189      0.1563
     22  C         44.9740   41.1590   69.7180 C.2   189  ARG189      0.2260
     23  O         45.8110   41.1730   68.8040 O.2   189  ARG189     -0.2867
     24  CB        43.3200   42.6720   68.5470 C.3   189  ARG189      0.0307
     25  CG        41.9070   42.9430   68.0560 C.3   189  ARG189      0.0489
     26  CD        41.9040   43.9500   66.9100 C.3   189  ARG189      0.2205
     27  NE        42.6920   45.1550   67.2030 N.pl3 189  ARG189     -0.0865
     28  CZ        42.2220   46.2390   67.8140 C.cat 189  ARG189      0.5346
     29  NH1       43.0140   47.2760   68.0360 N.pl3 189  ARG189      0.1354
     30  NH2       40.9590   46.2900   68.2150 N.pl3 189  ARG189      0.1354
     31  N         46.8990   43.0630   71.9790 N.3   191  LYS191     -0.1245
     32  CA        47.6230   44.2410   72.4690 C.3   191  LYS191      0.1561
     33  C         48.0460   44.1390   73.9450 C.2   191  LYS191      0.2260
     34  O         47.3190   43.5790   74.7700 O.2   191  LYS191     -0.2867
     35  CB        46.8220   45.5300   72.2360 C.3   191  LYS191      0.0271
     36  CG        46.7660   45.9490   70.7660 C.3   191  LYS191      0.0035
     37  CD        45.8850   47.1930   70.5520 C.3   191  LYS191      0.0206
     38  CE        46.4400   48.5020   71.1020 C.3   191  LYS191      0.1093
     39  NZ        47.8290   48.7570   70.6360 N.3   191  LYS191     -0.1314
     40  N         48.8010   46.8770   75.7550 N.3   193  THR193     -0.1203
     41  CA        48.2670   48.1020   76.3580 C.3   193  THR193      0.1994
     42  C         46.9850   48.5660   75.6660 C.2   193  THR193      0.2618
     43  O         46.5930   48.0530   74.6120 O.2   193  THR193     -0.2717
     44  CB        49.3150   49.2420   76.4100 C.3   193  THR193      0.1784
     45  OG1       49.7420   49.5480   75.0820 O.3   193  THR193     -0.2211
     46  CG2       50.5250   48.9230   77.2820 C.3   193  THR193      0.0376
     47  N         46.3310   49.5240   76.2970 N.am  194  GLY194     -0.1942
     48  CA        45.1000   50.1350   75.8200 C.3   194  GLY194      0.2014
     49  C         44.8030   51.3960   76.5970 C.2   194  GLY194      0.2639
     50  O         45.3450   51.5970   77.6850 O.2   194  GLY194     -0.2714
     51  N         43.9510   52.2530   76.0440 N.am  195  HIS195     -0.1959
     52  CA        43.5350   53.4690   76.7340 C.3   195  HIS195      0.1787
     53  C         42.3920   53.1320   77.6820 C.2   195  HIS195      0.2620
     54  O         42.0810   53.8860   78.6040 O.2   195  HIS195     -0.2715
     55  CB        43.0950   54.5350   75.7310 C.3   195  HIS195      0.0785
     56  CG        44.2110   55.4090   75.2490 C.ar  195  HIS195      0.0821
     57  ND1       45.1410   54.9870   74.3230 N.ar  195  HIS195     -0.2267
     58  CD2       44.5470   56.6820   75.5650 C.ar  195  HIS195      0.1154
     59  CE1       46.0010   55.9620   74.0900 C.ar  195  HIS195      0.1986
     60  NE2       45.6630   57.0020   74.8310 N.ar  195  HIS195     -0.2212
     61  N         41.7760   51.9820   77.4350 N.am  196  ASP196     -0.1971
     62  CA        40.6830   51.4700   78.2540 C.3   196  ASP196      0.1709
     63  C         40.5430   49.9750   78.1260 C.2   196  ASP196      0.2293
     64  O         41.3410   49.3520   77.4380 O.2   196  ASP196     -0.2864
     65  CB        39.3710   52.1510   77.8720 C.3   196  ASP196      0.1436
     66  CG        38.7620   51.7550   76.5460 C.2   196  ASP196      0.3671
     67  OD1       39.3890   50.9790   75.8090 O.co2 196  ASP196     -0.2456
     68  OD2       37.6560   52.2130   76.2520 O.co2 196  ASP196     -0.2456
     69  N         37.4040   47.0680   77.3320 N.3   198  ASP198     -0.1239
     70  CA        36.0390   46.8510   76.8160 C.3   198  ASP198      0.1674
     71  C         35.5470   45.4610   77.1200 C.2   198  ASP198      0.2266
     72  O         36.3130   44.5050   77.0420 O.2   198  ASP198     -0.2867
     73  CB        35.9940   47.0540   75.2950 C.3   198  ASP198      0.1410
     74  CG        36.6290   48.3370   74.8490 C.2   198  ASP198      0.3668
     75  OD1       36.1840   49.3870   75.2880 O.co2 198  ASP198     -0.2456
     76  OD2       37.6200   48.2810   74.1140 O.co2 198  ASP198     -0.2456
     77  N         24.7980   50.5470   76.5500 N.3   237  LYS237     -0.1245
     78  CA        26.2010   50.6490   76.9080 C.3   237  LYS237      0.1561
     79  C         26.5260   51.7210   77.9570 C.2   237  LYS237      0.2260
     80  O         25.7340   52.6370   78.1880 O.2   237  LYS237     -0.2867
     81  CB        27.0850   50.7950   75.6520 C.3   237  LYS237      0.0271
     82  CG        26.9350   52.0840   74.8800 C.3   237  LYS237      0.0035
     83  CD        27.9290   52.1180   73.7470 C.3   237  LYS237      0.0206
     84  CE        27.2790   52.3420   72.4070 C.3   237  LYS237      0.1093
     85  NZ        27.9840   53.3910   71.6160 N.3   237  LYS237     -0.1314
     86  N         30.0000   54.0820   79.6930 N.3   239  PHE239     -0.1241
     87  CA        31.3800   54.5360   79.7010 C.3   239  PHE239      0.1605
     88  C         31.6740   54.8850   81.1520 C.2   239  PHE239      0.2264
     89  O         30.9950   55.7210   81.7430 O.2   239  PHE239     -0.2867
     90  CB        31.5750   55.7260   78.7340 C.3   239  PHE239      0.0534
     91  CG        31.0000   55.4810   77.3480 C.ar  239  PHE239     -0.0203
     92  CD1       29.8290   56.1190   76.9340 C.ar  239  PHE239     -0.0042
     93  CD2       31.6100   54.5900   76.4650 C.ar  239  PHE239     -0.0042
     94  CE1       29.2970   55.8880   75.6490 C.ar  239  PHE239     -0.0003
     95  CE2       31.0610   54.3360   75.1950 C.ar  239  PHE239     -0.0003
     96  CZ        29.9190   54.9960   74.7900 C.ar  239  PHE239     -0.0000
     97  N         39.5120   53.4800   82.7190 N.3   260  ARG260     -0.1245
     98  CA        38.3850   53.6830   81.8290 C.3   260  ARG260      0.1563
     99  C         37.8890   52.2780   81.4130 C.2   260  ARG260      0.2260
    100  O         38.6860   51.4070   81.0240 O.2   260  ARG260     -0.2867
    101  CB        38.8340   54.4710   80.5930 C.3   260  ARG260      0.0307
    102  CG        38.7300   55.9860   80.6890 C.3   260  ARG260      0.0489
    103  CD        37.3190   56.4460   80.3890 C.3   260  ARG260      0.2205
    104  NE        36.9300   56.1340   79.0040 N.pl3 260  ARG260     -0.0865
    105  CZ        35.9550   55.2930   78.6490 C.cat 260  ARG260      0.5346
    106  NH1       35.2180   54.6880   79.5740 N.pl3 260  ARG260      0.1354
    107  NH2       35.7100   55.0540   77.3650 N.pl3 260  ARG260      0.1354
    108  N         34.5450   50.2440   79.3200 N.3   262  ASP262     -0.1239
    109  CA        33.3410   50.2820   78.4800 C.3   262  ASP262      0.1674
    110  C         32.6010   48.9660   78.5730 C.2   262  ASP262      0.2266
    111  O         33.2010   47.9030   78.4100 O.2   262  ASP262     -0.2867
    112  CB        33.6550   50.5970   77.0120 C.3   262  ASP262      0.1410
    113  CG        34.2360   51.9680   76.7600 C.2   262  ASP262      0.3668
    114  OD1       34.0080   52.8750   77.5920 O.co2 262  ASP262     -0.2456
    115  OD2       34.9100   52.1420   75.7220 O.co2 262  ASP262     -0.2456
    116  N         32.0590   43.3030   65.9410 N.3   277  GLY277     -0.1210
    117  CA        32.0740   44.7620   65.9090 C.3   277  GLY277      0.1956
    118  C         32.9660   45.3780   66.9630 C.2   277  GLY277      0.2611
    119  O         33.8090   46.1980   66.6270 O.2   277  GLY277     -0.2717
    120  N         32.8440   44.9400   68.2280 N.am  278  TRP278     -0.1976
    121  CA        33.6480   45.4130   69.3570 C.3   278  TRP278      0.1640
    122  C         35.0890   44.9150   69.4480 C.2   278  TRP278      0.2290
    123  O         35.8840   45.4670   70.2070 O.2   278  TRP278     -0.2864
    124  CB        32.8860   45.2460   70.6750 C.3   278  TRP278      0.0576
    125  CG        31.8510   46.3110   70.8330 C.ar  278  TRP278      0.0006
    126  CD1       30.5970   46.3330   70.2790 C.ar  278  TRP278      0.0946
    127  CD2       32.0440   47.5930   71.4460 C.ar  278  TRP278      0.0152
    128  NE1       29.9720   47.5200   70.5770 N.ar  278  TRP278     -0.2442
    129  CE2       30.8420   48.3190   71.2820 C.ar  278  TRP278      0.0810
    130  CE3       33.0980   48.1760   72.1880 C.ar  278  TRP278      0.0012
    131  CZ2       30.6680   49.6070   71.8170 C.ar  278  TRP278      0.0191
    132  CZ3       32.9010   49.4230   72.7760 C.ar  278  TRP278      0.0001
    133  CH2       31.7090   50.1370   72.5730 C.ar  278  TRP278      0.0015
    134  N         37.1050   44.8800   66.7400 N.3   280  GLY280     -0.1210
    135  CA        37.8380   45.7250   65.8020 C.3   280  GLY280      0.1956
    136  C         38.8890   44.9620   64.9820 C.2   280  GLY280      0.2613
    137  O         38.7530   43.7510   64.7920 O.2   280  GLY280     -0.2717
    138  N         39.9650   45.6290   64.4920 N.am  281  SER281     -0.1938
    139  CA        40.2150   47.0680   64.6400 C.3   281  SER281      0.2055
    140  C         39.2250   47.8920   63.8030 C.2   281  SER281      0.2642
    141  O         38.4640   47.3140   63.0090 O.2   281  SER281     -0.2714
    142  CB        41.6360   47.3840   64.2040 C.3   281  SER281      0.2130
    143  OG        41.7430   47.1310   62.8120 O.3   281  SER281     -0.2179
    144  N         39.2480   49.2300   63.9480 N.am  282  ARG282     -0.1977
    145  CA        38.3610   50.1110   63.1790 C.3   282  ARG282      0.1597
    146  C         38.4620   49.9050   61.6650 C.2   282  ARG282      0.2287
    147  O         37.4310   49.8100   61.0050 O.2   282  ARG282     -0.2864
    148  CB        38.5430   51.5720   63.5680 C.3   282  ARG282      0.0334
    149  CG        37.5230   51.9830   64.5940 C.3   282  ARG282      0.0492
    150  CD        37.7860   53.3850   65.1270 C.3   282  ARG282      0.2205
    151  NE        36.8670   53.7400   66.2120 N.pl3 282  ARG282     -0.0865
    152  CZ        37.1180   53.5550   67.5060 C.cat 282  ARG282      0.5346
    153  NH1       38.2620   53.0050   67.8980 N.pl3 282  ARG282      0.1354
    154  NH2       36.2230   53.9140   68.4190 N.pl3 282  ARG282      0.1354
    155  N         36.9330   46.4380   60.6080 N.3   285  GLU285     -0.1245
    156  CA        35.4750   46.5620   60.6210 C.3   285  GLU285      0.1567
    157  C         35.0000   47.3220   59.3830 C.2   285  GLU285      0.2260
    158  O         34.0640   46.8680   58.7400 O.2   285  GLU285     -0.2867
    159  CB        35.0390   47.1920   61.9720 C.3   285  GLU285      0.0388
    160  CG        33.6220   47.7140   62.1620 C.3   285  GLU285      0.1160
    161  CD        33.4140   48.4370   63.4900 C.2   285  GLU285      0.3649
    162  OE1       34.2450   49.3070   63.8460 O.co2 285  GLU285     -0.2457
    163  OE2       32.3920   48.1630   64.1610 O.co2 285  GLU285     -0.2457
    164  N         26.9280   45.7760   63.8290 N.3   302  ASN302     -0.1240
    165  CA        27.1430   45.1590   65.1510 C.3   302  ASN302      0.1653
    166  C         25.9900   44.3260   65.6320 C.2   302  ASN302      0.2266
    167  O         26.1250   43.6490   66.6450 O.2   302  ASN302     -0.2867
    168  CB        27.4010   46.2660   66.1780 C.3   302  ASN302      0.1155
    169  CG        28.7450   46.8880   66.0850 C.2   302  ASN302      0.2627
    170  OD1       29.5430   46.5540   65.2350 O.2   302  ASN302     -0.2716
    171  ND2       29.0040   47.8240   66.9500 N.am  302  ASN302     -0.0877
@<TRIPOS>BOND
     1   158   157    2
     2   157   156    1
     3   155   156    1
     4   156   159    1
     5   147   146    2
     6   146   145    1
     7   159   160    1
     8   160   161    1
     9   143   142    1
    10   141   140    2
    11   145   148    1
    12   145   144    1
    13   161   162   ar
    14   161   163   ar
    15   148   149    1
    16   140   144   am
    17   140   139    1
    18   164   165    1
    19   142   139    1
    20   138   139    1
    21   138   136   am
    22   149   150    1
    23   137   136    2
    24   136   135    1
    25   150   151    1
    26   165   166    1
    27   165   168    1
    28   170   169    2
    29   166   167    2
    30   135   134    1
    31   117   116    1
    32   117   118    1
    33   169   168    1
    34   169   171   am
    35   151   152    2
    36   119   118    2
    37    26    27    1
    38    26    25    1
    39   118   120   am
    40    27    28    2
    41   152   153    1
    42   152   154    1
    43    28    29    1
    44    28    30    1
    45    25    24    1
    46   120   121    1
    47    24    21    1
    48    23    22    2
    49   121   122    1
    50   121   124    1
    51    21    22    1
    52    21    20    1
    53   122   123    2
    54   126   128   ar
    55   126   125   ar
    56    37    36    1
    57    37    38    1
    58   128   129   ar
    59    39    38    1
    60   124   125    1
    61    36    35    1
    62   125   127   ar
    63   129   127   ar
    64   129   131   ar
    65     4     3    2
    66   127   130   ar
    67     6     5    1
    68     6     7    1
    69     3     5   am
    70     3     2    1
    71    85    84    1
    72     8     7    2
    73     2     1    1
    74   131   133   ar
    75    31    32    1
    76   130   132   ar
    77    35    32    1
    78     7     9   am
    79    84    83    1
    80    32    33    1
    81   133   132   ar
    82     9    10    1
    83    12    11    2
    84    83    82    1
    85    11    10    1
    86    33    34    2
    87    59    57   ar
    88    59    60   ar
    89    76    74   ar
    90    57    56   ar
    91    10    13    1
    92    43    42    2
    93    96    95   ar
    94    96    94   ar
    95    60    58   ar
    96    74    75   ar
    97    74    73    1
    98    82    81    1
    99    45    44    1
   100    95    93   ar
   101    56    58   ar
   102    56    55    1
   103    73    70    1
   104    94    92   ar
   105    81    78    1
   106    42    47   am
   107    42    41    1
   108   115   113   ar
   109    55    52    1
   110    40    41    1
   111    67    66   ar
   112    48    47    1
   113    48    49    1
   114    13    14    1
   115    51    49   am
   116    51    52    1
   117    68    66   ar
   118    41    44    1
   119    44    46    1
   120    93    91   ar
   121    66    65    1
   122    77    78    1
   123    49    50    2
   124    14    16   ar
   125    14    15   ar
   126    52    53    1
   127   113   112    1
   128   113   114   ar
   129    70    71    1
   130    70    69    1
   131    78    79    1
   132    92    91   ar
   133    16    18   ar
   134    15    17   ar
   135   112   109    1
   136    72    71    2
   137    91    90    1
   138   107   105    1
   139    61    53   am
   140    61    62    1
   141    64    63    2
   142    18    19   ar
   143    17    19   ar
   144    53    54    2
   145    65    62    1
   146    79    80    2
   147    63    62    1
   148   111   110    2
   149   109   110    1
   150   109   108    1
   151   105   104    2
   152   105   106    1
   153    90    87    1
   154   104   103    1
   155    86    87    1
   156    87    88    1
   157   103   102    1
   158   101   102    1
   159   101    98    1
   160   100    99    2
   161    88    89    2
   162    99    98    1
   163    98    97    1
