@<TRIPOS>MOLECULE
tmp/4i2pA00.pdb
 172 171 0 0 0
SMALL
GASTEIGER

@<TRIPOS>ATOM
      1  N         45.5470  -19.3370   36.8940 N.3    97  PRO97      -0.2116
      2  CA        46.0160  -19.7600   35.5680 C.3    97  PRO97       0.1372
      3  C         44.9040  -20.4840   34.8150 C.2    97  PRO97       0.2244
      4  O         44.1320  -21.2000   35.4560 O.2    97  PRO97      -0.2868
      5  CB        47.1390  -20.7510   35.8950 C.3    97  PRO97       0.0268
      6  CG        47.6150  -20.3460   37.2650 C.3    97  PRO97       0.0207
      7  CD        46.3780  -19.8840   37.9830 C.3    97  PRO97       0.0892
      8  N         48.7940  -23.7440   30.3020 N.3   102  LEU102     -0.1231
      9  CA        49.8190  -24.5990   30.8910 C.3   102  LEU102      0.1693
     10  C         50.5110  -25.4870   29.8540 C.2   102  LEU102      0.2591
     11  O         49.9590  -25.7710   28.7840 O.2   102  LEU102     -0.2718
     12  CB        49.2060  -25.4650   31.9940 C.3   102  LEU102      0.0284
     13  CG        48.5140  -24.6800   33.1090 C.3   102  LEU102      0.0019
     14  CD1       47.8980  -25.6100   34.1490 C.3   102  LEU102      0.0001
     15  CD2       49.4980  -23.7160   33.7640 C.3   102  LEU102      0.0001
     16  N         51.7320  -25.9070   30.1680 N.am  103  LYS103     -0.1980
     17  CA        52.4400  -26.8910   29.3580 C.3   103  LYS103      0.1596
     18  C         52.2530  -28.2590   30.0090 C.2   103  LYS103      0.2287
     19  O         52.0680  -28.3520   31.2270 O.2   103  LYS103     -0.2864
     20  CB        53.9320  -26.5410   29.2460 C.3   103  LYS103      0.0298
     21  CG        54.3050  -25.6170   28.0810 C.3   103  LYS103      0.0038
     22  CD        53.5300  -24.2950   28.0940 C.3   103  LYS103      0.0206
     23  CE        54.0480  -23.3300   29.1580 C.3   103  LYS103      0.1093
     24  NZ        53.0020  -22.3750   29.6640 N.3   103  LYS103     -0.1314
     25  N         53.0500  -31.7420   31.6980 N.3   105  LYS105     -0.1245
     26  CA        54.0930  -32.1410   32.6330 C.3   105  LYS105      0.1561
     27  C         54.1210  -33.6570   32.8100 C.2   105  LYS105      0.2260
     28  O         53.1220  -34.2620   33.2160 O.2   105  LYS105     -0.2867
     29  CB        53.9110  -31.4370   33.9860 C.3   105  LYS105      0.0271
     30  CG        54.0790  -29.9190   33.9430 C.3   105  LYS105      0.0035
     31  CD        55.4230  -29.5250   33.3480 C.3   105  LYS105      0.0206
     32  CE        55.4560  -28.0370   33.0200 C.3   105  LYS105      0.1093
     33  NZ        56.5610  -27.7220   32.0730 N.3   105  LYS105     -0.1314
     34  N         54.3030  -34.6800   38.1580 N.3   108  VAL108     -0.1245
     35  CA        53.9150  -33.6050   39.0670 C.3   108  VAL108      0.1561
     36  C         53.8050  -34.1230   40.5000 C.2   108  VAL108      0.2260
     37  O         52.9770  -34.9850   40.8000 O.2   108  VAL108     -0.2867
     38  CB        52.5950  -32.9280   38.6410 C.3   108  VAL108      0.0252
     39  CG1       52.0540  -32.0530   39.7650 C.3   108  VAL108      0.0019
     40  CG2       52.8010  -32.0990   37.3860 C.3   108  VAL108      0.0019
     41  N         58.4120  -26.4430   37.3480 N.3   181  VAL181     -0.1231
     42  CA        57.4600  -25.4050   37.7190 C.3   181  VAL181      0.1692
     43  C         57.0120  -25.6460   39.1500 C.2   181  VAL181      0.2592
     44  O         56.9090  -26.7910   39.5960 O.2   181  VAL181     -0.2718
     45  CB        56.2410  -25.3530   36.7660 C.3   181  VAL181      0.0266
     46  CG1       56.6740  -24.8900   35.3890 C.3   181  VAL181      0.0020
     47  CG2       55.5540  -26.7220   36.6900 C.3   181  VAL181      0.0020
     48  N         56.7790  -24.5610   39.8770 N.am  182  ILE182     -0.1966
     49  CA        56.3340  -24.6520   41.2550 C.3   182  ILE182      0.1727
     50  C         55.1200  -23.7490   41.4170 C.2   182  ILE182      0.2616
     51  O         55.1460  -22.5800   41.0180 O.2   182  ILE182     -0.2715
     52  CB        57.4460  -24.2090   42.2310 C.3   182  ILE182      0.0290
     53  CG1       58.7300  -25.0030   41.9730 C.3   182  ILE182      0.0022
     54  CG2       56.9920  -24.3780   43.6730 C.3   182  ILE182      0.0023
     55  CD1       60.0010  -24.2720   42.3630 C.3   182  ILE182      0.0001
     56  N         54.0560  -24.2940   41.9930 N.am  183  TYR183     -0.1974
     57  CA        52.8230  -23.5470   42.1750 C.3   183  TYR183      0.1639
     58  C         52.2230  -23.8940   43.5240 C.2   183  TYR183      0.2290
     59  O         51.9990  -25.0690   43.8290 O.2   183  TYR183     -0.2864
     60  CB        51.8270  -23.8690   41.0530 C.3   183  TYR183      0.0560
     61  CG        50.4130  -23.4130   41.3390 C.ar  183  TYR183     -0.0198
     62  CD1       50.0310  -22.0980   41.1190 C.ar  183  TYR183     -0.0009
     63  CD2       49.4610  -24.2960   41.8300 C.ar  183  TYR183     -0.0009
     64  CE1       48.7390  -21.6700   41.3820 C.ar  183  TYR183      0.0417
     65  CE2       48.1650  -23.8770   42.0980 C.ar  183  TYR183      0.0417
     66  CZ        47.8110  -22.5620   41.8700 C.ar  183  TYR183      0.1957
     67  OH        46.5280  -22.1390   42.1340 O.3   183  TYR183     -0.2866
     68  N         49.1540  -23.8930   46.1850 N.3   185  TYR185     -0.1241
     69  CA        47.7250  -23.7560   46.4180 C.3   185  TYR185      0.1605
     70  C         47.4080  -24.1920   47.8390 C.2   185  TYR185      0.2264
     71  O         47.4110  -25.3890   48.1420 O.2   185  TYR185     -0.2867
     72  CB        46.9170  -24.5790   45.4140 C.3   185  TYR185      0.0534
     73  CG        45.4300  -24.4100   45.5910 C.ar  185  TYR185     -0.0201
     74  CD1       44.7970  -23.2430   45.1910 C.ar  185  TYR185     -0.0009
     75  CD2       44.6610  -25.4090   46.1680 C.ar  185  TYR185     -0.0009
     76  CE1       43.4380  -23.0740   45.3570 C.ar  185  TYR185      0.0417
     77  CE2       43.2990  -25.2520   46.3380 C.ar  185  TYR185      0.0417
     78  CZ        42.6930  -24.0820   45.9310 C.ar  185  TYR185      0.1957
     79  OH        41.3380  -23.9200   46.0990 O.3   185  TYR185     -0.2866
     80  N         52.8480  -27.7680   44.5070 N.3   190  TYR190     -0.1241
     81  CA        52.8880  -28.6410   43.3420 C.3   190  TYR190      0.1605
     82  C         54.1630  -28.3970   42.5490 C.2   190  TYR190      0.2264
     83  O         54.4350  -27.2770   42.1100 O.2   190  TYR190     -0.2867
     84  CB        51.6470  -28.4430   42.4690 C.3   190  TYR190      0.0534
     85  CG        50.3580  -28.7060   43.2100 C.ar  190  TYR190     -0.0201
     86  CD1       49.7610  -27.7130   43.9720 C.ar  190  TYR190     -0.0009
     87  CD2       49.7390  -29.9450   43.1560 C.ar  190  TYR190     -0.0009
     88  CE1       48.5850  -27.9440   44.6570 C.ar  190  TYR190      0.0417
     89  CE2       48.5550  -30.1830   43.8400 C.ar  190  TYR190      0.0417
     90  CZ        47.9860  -29.1770   44.5880 C.ar  190  TYR190      0.1957
     91  OH        46.8140  -29.3980   45.2760 O.3   190  TYR190     -0.2866
     92  N         56.2450  -29.6630   39.2410 N.3   192  GLY192     -0.1225
     93  CA        56.1220  -30.4100   38.0040 C.3   192  GLY192      0.1811
     94  C         57.3100  -30.2250   37.0790 C.2   192  GLY192      0.2280
     95  O         57.9500  -29.1690   37.0800 O.2   192  GLY192     -0.2866
     96  N         47.4330  -37.6360   39.3820 N.3   227  PRO227     -0.2116
     97  CA        46.5880  -37.1460   38.2840 C.3   227  PRO227      0.1372
     98  C         45.3920  -38.0620   38.0240 C.2   227  PRO227      0.2244
     99  O         45.5550  -39.2820   38.0550 O.2   227  PRO227     -0.2868
    100  CB        47.5410  -37.1690   37.0880 C.3   227  PRO227      0.0268
    101  CG        48.8770  -36.8750   37.6900 C.3   227  PRO227      0.0207
    102  CD        48.8700  -37.4990   39.0710 C.3   227  PRO227      0.0892
    103  N         44.1790  -33.9760   38.7970 N.3   229  PHE229     -0.1227
    104  CA        43.9470  -33.0510   39.8970 C.3   229  PHE229      0.1736
    105  C         42.5870  -32.3790   39.7380 C.2   229  PHE229      0.2595
    106  O         42.2200  -31.9550   38.6410 O.2   229  PHE229     -0.2718
    107  CB        45.0440  -31.9830   39.9510 C.3   229  PHE229      0.0547
    108  CG        46.4260  -32.5380   40.1730 C.ar  229  PHE229     -0.0202
    109  CD1       47.3800  -32.4870   39.1670 C.ar  229  PHE229     -0.0042
    110  CD2       46.7740  -33.1070   41.3890 C.ar  229  PHE229     -0.0042
    111  CE1       48.6570  -32.9920   39.3710 C.ar  229  PHE229     -0.0003
    112  CE2       48.0480  -33.6180   41.5970 C.ar  229  PHE229     -0.0003
    113  CZ        48.9880  -33.5620   40.5870 C.ar  229  PHE229     -0.0000
    114  N         41.8360  -32.3040   40.8320 N.am  230  LEU230     -0.1966
    115  CA        40.5920  -31.5470   40.8570 C.3   230  LEU230      0.1728
    116  C         40.9160  -30.1830   41.4510 C.2   230  LEU230      0.2616
    117  O         41.1990  -30.0660   42.6490 O.2   230  LEU230     -0.2715
    118  CB        39.5340  -32.2770   41.6860 C.3   230  LEU230      0.0311
    119  CG        39.2630  -33.7070   41.2140 C.3   230  LEU230      0.0022
    120  CD1       38.1850  -34.3800   42.0510 C.3   230  LEU230      0.0001
    121  CD2       38.8790  -33.7140   39.7420 C.3   230  LEU230      0.0001
    122  N         40.8920  -29.1560   40.6060 N.am  231  TRP231     -0.1974
    123  CA        41.4400  -27.8570   40.9720 C.3   231  TRP231      0.1640
    124  C         40.6690  -26.7160   40.3190 C.2   231  TRP231      0.2290
    125  O         40.6280  -26.6040   39.0860 O.2   231  TRP231     -0.2864
    126  CB        42.9180  -27.8070   40.5770 C.3   231  TRP231      0.0576
    127  CG        43.5910  -26.4840   40.7690 C.ar  231  TRP231      0.0006
    128  CD1       44.1330  -25.9960   41.9250 C.ar  231  TRP231      0.0946
    129  CD2       43.8330  -25.4920   39.7630 C.ar  231  TRP231      0.0152
    130  NE1       44.6790  -24.7570   41.7020 N.ar  231  TRP231     -0.2442
    131  CE2       44.5120  -24.4240   40.3820 C.ar  231  TRP231      0.0810
    132  CE3       43.5310  -25.3990   38.4000 C.ar  231  TRP231      0.0012
    133  CZ2       44.8910  -23.2730   39.6840 C.ar  231  TRP231      0.0191
    134  CZ3       43.9100  -24.2600   37.7080 C.ar  231  TRP231      0.0001
    135  CH2       44.5820  -23.2110   38.3510 C.ar  231  TRP231      0.0015
    136  N         42.9100  -31.4960   35.9100 N.3   236  LEU236     -0.1231
    137  CA        44.2270  -31.4190   35.2840 C.3   236  LEU236      0.1693
    138  C         44.8230  -32.8200   35.0990 C.2   236  LEU236      0.2592
    139  O         45.2200  -33.4740   36.0690 O.2   236  LEU236     -0.2718
    140  CB        45.1760  -30.5350   36.1020 C.3   236  LEU236      0.0284
    141  CG        44.7890  -29.0700   36.3200 C.3   236  LEU236      0.0019
    142  CD1       45.9310  -28.2960   36.9830 C.3   236  LEU236      0.0001
    143  CD2       44.3850  -28.4130   35.0100 C.3   236  LEU236      0.0001
    144  N         44.8710  -33.2760   33.8490 N.am  237  HIS237     -0.1962
    145  CA        45.4610  -34.5670   33.5030 C.3   237  HIS237      0.1772
    146  C         46.8820  -34.3200   32.9870 C.2   237  HIS237      0.2462
    147  O         47.2340  -33.1770   32.6910 O.2   237  HIS237     -0.2730
    148  CB        44.5970  -35.2740   32.4480 C.3   237  HIS237      0.0785
    149  CG        43.1850  -35.5220   32.8880 C.ar  237  HIS237      0.0821
    150  ND1       42.7750  -36.7180   33.4350 N.ar  237  HIS237     -0.2267
    151  CD2       42.0880  -34.7280   32.8500 C.ar  237  HIS237      0.1154
    152  CE1       41.4850  -36.6500   33.7210 C.ar  237  HIS237      0.1986
    153  NE2       41.0470  -35.4540   33.3800 N.ar  237  HIS237     -0.2212
    154  N         47.7140  -35.3770   32.9020 N.am  238  PRO238     -0.2727
    155  CA        49.1040  -35.2120   32.4470 C.3   238  PRO238      0.1402
    156  C         49.2660  -34.5580   31.0710 C.2   238  PRO238      0.2269
    157  O         50.1830  -33.7490   30.8880 O.2   238  PRO238     -0.2865
    158  CB        49.6190  -36.6530   32.3880 C.3   238  PRO238      0.0296
    159  CG        48.8520  -37.3510   33.4590 C.3   238  PRO238      0.0237
    160  CD        47.4760  -36.7340   33.4350 C.3   238  PRO238      0.0939
    161  N         47.0570  -29.1350   26.1840 N.3   320  TYR320     -0.1241
    162  CA        47.9030  -28.1040   26.7830 C.3   320  TYR320      0.1605
    163  C         48.6070  -27.2900   25.6980 C.2   320  TYR320      0.2264
    164  O         48.4480  -27.5630   24.5050 O.2   320  TYR320     -0.2867
    165  CB        48.9100  -28.7060   27.7760 C.3   320  TYR320      0.0534
    166  CG        48.2700  -29.2250   29.0480 C.ar  320  TYR320     -0.0201
    167  CD1       48.4250  -30.5480   29.4370 C.ar  320  TYR320     -0.0009
    168  CD2       47.5010  -28.3950   29.8530 C.ar  320  TYR320     -0.0009
    169  CE1       47.8400  -31.0290   30.5980 C.ar  320  TYR320      0.0417
    170  CE2       46.9100  -28.8690   31.0190 C.ar  320  TYR320      0.0417
    171  CZ        47.0840  -30.1870   31.3840 C.ar  320  TYR320      0.1957
    172  OH        46.5000  -30.6630   32.5370 O.3   320  TYR320     -0.2866
@<TRIPOS>BOND
     1   164   163    2
     2   163   162    1
     3   161   162    1
     4   162   165    1
     5   165   166    1
     6    21    22    1
     7    21    20    1
     8    22    23    1
     9    11    10    2
    10   166   167   ar
    11   166   168   ar
    12    23    24    1
    13    20    17    1
    14    17    18    1
    15    17    16    1
    16   167   169   ar
    17   168   170   ar
    18    10    16   am
    19    10     9    1
    20    18    19    2
    21     8     9    1
    22   169   171   ar
    23   157   156    2
    24     9    12    1
    25   170   171   ar
    26   156   155    1
    27   171   172    1
    28    25    26    1
    29    12    13    1
    30    33    32    1
    31   158   155    1
    32   158   159    1
    33   155   154    1
    34   148   149    1
    35   148   145    1
    36    26    27    1
    37    26    29    1
    38   147   146    2
    39    27    28    2
    40   151   149   ar
    41   151   153   ar
    42   149   150   ar
    43   154   146   am
    44   154   160    1
    45   146   145    1
    46    32    31    1
    47    13    15    1
    48    13    14    1
    49    31    30    1
    50   153   152   ar
    51   160   159    1
    52   150   152   ar
    53   145   144    1
    54   144   138   am
    55    30    29    1
    56     3     4    2
    57     3     2    1
    58   143   141    1
    59   138   137    1
    60   138   139    2
    61   137   136    1
    62   137   140    1
    63    46    45    1
    64     2     5    1
    65     2     1    1
    66     5     6    1
    67   140   141    1
    68   141   142    1
    69    47    45    1
    70    45    42    1
    71     1     7    1
    72    94    95    2
    73    94    93    1
    74   100   101    1
    75   100    97    1
    76     6     7    1
    77    41    42    1
    78    40    38    1
    79   101   102    1
    80   134   135   ar
    81   134   132   ar
    82    42    43    1
    83    93    92    1
    84    98    99    2
    85    98    97    1
    86    34    35    1
    87    97    96    1
    88   135   133   ar
    89   132   129   ar
    90    38    35    1
    91    38    39    1
    92   106   105    2
    93   103   104    1
    94    35    36    1
    95   102    96    1
    96   125   124    2
    97    43    44    2
    98    43    48   am
    99   109   111   ar
   100   109   108   ar
   101   111   113   ar
   102   133   131   ar
   103   105   104    1
   104   105   114   am
   105   121   119    1
   106   129   131   ar
   107   129   127   ar
   108    48    49    1
   109   104   107    1
   110   107   108    1
   111   108   110   ar
   112   124   123    1
   113   131   130   ar
   114    36    37    2
   115   126   127    1
   116   126   123    1
   117   113   112   ar
   118   122   123    1
   119   122   116   am
   120   127   128   ar
   121   114   115    1
   122   115   116    1
   123   115   118    1
   124    51    50    2
   125    60    61    1
   126    60    57    1
   127    62    61   ar
   128    62    64   ar
   129   119   118    1
   130   119   120    1
   131    49    50    1
   132    49    52    1
   133    61    63   ar
   134    64    66   ar
   135   110   112   ar
   136    50    56   am
   137   116   117    2
   138   130   128   ar
   139    63    65   ar
   140    66    65   ar
   141    66    67    1
   142    53    52    1
   143    53    55    1
   144    56    57    1
   145    83    82    2
   146    57    58    1
   147    52    54    1
   148    84    85    1
   149    84    81    1
   150    82    81    1
   151    87    85   ar
   152    87    89   ar
   153    85    86   ar
   154    81    80    1
   155    58    59    2
   156    89    90   ar
   157    86    88   ar
   158    90    88   ar
   159    90    91    1
   160    74    76   ar
   161    74    73   ar
   162    76    78   ar
   163    72    73    1
   164    72    69    1
   165    73    75   ar
   166    78    79    1
   167    78    77   ar
   168    75    77   ar
   169    68    69    1
   170    69    70    1
   171    70    71    2
