@<TRIPOS>MOLECULE
tmp/4i2qA00.pdb
 169 168 0 0 0
SMALL
GASTEIGER

@<TRIPOS>ATOM
      1  N         45.6660  -19.4230   37.0620 N.3    97  PRO97      -0.2116
      2  CA        46.1360  -19.8720   35.7470 C.3    97  PRO97       0.1372
      3  C         45.0200  -20.5530   34.9850 C.2    97  PRO97       0.2244
      4  O         44.1010  -21.0860   35.6030 O.2    97  PRO97      -0.2868
      5  CB        47.2090  -20.9010   36.0960 C.3    97  PRO97       0.0268
      6  CG        47.6980  -20.4830   37.4470 C.3    97  PRO97       0.0207
      7  CD        46.4910  -19.9600   38.1590 C.3    97  PRO97       0.0892
      8  N         46.7830  -22.8630   29.0980 N.3   101  GLY101     -0.1210
      9  CA        48.0340  -22.1320   28.9730 C.3   101  GLY101      0.1956
     10  C         49.2380  -22.8820   29.4920 C.2   101  GLY101      0.2612
     11  O         50.3700  -22.4320   29.3280 O.2   101  GLY101     -0.2717
     12  N         48.9800  -24.0320   30.1150 N.am  102  LEU102     -0.1965
     13  CA        50.0300  -24.8830   30.6780 C.3   102  LEU102      0.1728
     14  C         50.7220  -25.7250   29.6130 C.2   102  LEU102      0.2616
     15  O         50.2120  -25.8950   28.4970 O.2   102  LEU102     -0.2715
     16  CB        49.4450  -25.8100   31.7380 C.3   102  LEU102      0.0311
     17  CG        48.5420  -25.1070   32.7440 C.3   102  LEU102      0.0022
     18  CD1       47.7690  -26.1380   33.5620 C.3   102  LEU102      0.0001
     19  CD2       49.3610  -24.1840   33.6430 C.3   102  LEU102      0.0001
     20  N         51.8900  -26.2490   29.9670 N.am  103  LYS103     -0.1977
     21  CA        52.6310  -27.1410   29.0860 C.3   103  LYS103      0.1596
     22  C         52.5220  -28.5380   29.7010 C.2   103  LYS103      0.2287
     23  O         52.3250  -28.6630   30.9070 O.2   103  LYS103     -0.2864
     24  CB        54.0730  -26.6270   28.9000 C.3   103  LYS103      0.0298
     25  CG        55.0860  -27.5600   28.1730 C.3   103  LYS103      0.0038
     26  CD        54.6200  -28.1100   26.7950 C.3   103  LYS103      0.0206
     27  CE        55.7800  -28.7340   26.0010 C.3   103  LYS103      0.1093
     28  NZ        55.3870  -29.0620   24.6010 N.3   103  LYS103     -0.1314
     29  N         53.1900  -31.8760   31.4660 N.3   105  ASN105     -0.1240
     30  CA        54.2000  -32.3690   32.3990 C.3   105  ASN105      0.1653
     31  C         54.1570  -33.8910   32.5890 C.2   105  ASN105      0.2266
     32  O         53.2030  -34.4110   33.1790 O.2   105  ASN105     -0.2867
     33  CB        54.0790  -31.6790   33.7670 C.3   105  ASN105      0.1155
     34  CG        54.7130  -30.2860   33.8000 C.2   105  ASN105      0.2627
     35  OD1       54.1200  -29.3550   34.3460 O.2   105  ASN105     -0.2716
     36  ND2       55.9200  -30.1420   33.2340 N.am  105  ASN105     -0.0877
     37  N         54.5040  -35.1410   37.7080 N.3   108  VAL108     -0.1245
     38  CA        54.0380  -34.0550   38.5440 C.3   108  VAL108      0.1561
     39  C         53.9050  -34.5470   39.9680 C.2   108  VAL108      0.2260
     40  O         53.0440  -35.3670   40.2690 O.2   108  VAL108     -0.2867
     41  CB        52.6780  -33.5250   38.0710 C.3   108  VAL108      0.0252
     42  CG1       51.9940  -32.7100   39.1660 C.3   108  VAL108      0.0019
     43  CG2       52.8510  -32.6930   36.8240 C.3   108  VAL108      0.0019
     44  N         58.3000  -26.7740   37.2900 N.3   181  VAL181     -0.1231
     45  CA        57.2230  -25.8240   37.5570 C.3   181  VAL181      0.1692
     46  C         56.5330  -26.0450   38.9240 C.2   181  VAL181      0.2592
     47  O         56.1930  -27.1680   39.3040 O.2   181  VAL181     -0.2718
     48  CB        56.1910  -25.7750   36.3890 C.3   181  VAL181      0.0266
     49  CG1       56.8920  -25.4410   35.0740 C.3   181  VAL181      0.0020
     50  CG2       55.4090  -27.0830   36.2820 C.3   181  VAL181      0.0020
     51  N         56.3240  -24.9600   39.6600 N.am  182  ILE182     -0.1966
     52  CA        55.8230  -25.0590   41.0230 C.3   182  ILE182      0.1727
     53  C         54.5320  -24.2710   41.1890 C.2   182  ILE182      0.2616
     54  O         54.3910  -23.1720   40.6400 O.2   182  ILE182     -0.2715
     55  CB        56.8670  -24.5190   42.0280 C.3   182  ILE182      0.0290
     56  CG1       58.2590  -25.0940   41.7370 C.3   182  ILE182      0.0022
     57  CG2       56.4540  -24.8140   43.4620 C.3   182  ILE182      0.0023
     58  CD1       59.1420  -24.2180   40.8520 C.3   182  ILE182      0.0001
     59  N         53.5930  -24.8200   41.9530 N.am  183  CYS183     -0.1968
     60  CA        52.3080  -24.1570   42.1580 C.3   183  CYS183      0.1712
     61  C         51.7890  -24.3180   43.5860 C.2   183  CYS183      0.2296
     62  O         51.9980  -25.3540   44.2200 O.2   183  CYS183     -0.2864
     63  CB        51.2780  -24.6740   41.1420 C.3   183  CYS183      0.0983
     64  SG        49.5390  -24.1970   41.4260 S.3   183  CYS183     -0.0798
     65  N         48.5950  -24.2860   46.2930 N.3   185  TYR185     -0.1241
     66  CA        47.1550  -24.5580   46.3370 C.3   185  TYR185      0.1605
     67  C         46.7510  -25.2710   47.6210 C.2   185  TYR185      0.2264
     68  O         47.1240  -26.4270   47.8360 O.2   185  TYR185     -0.2867
     69  CB        46.7390  -25.3930   45.1150 C.3   185  TYR185      0.0534
     70  CG        45.2880  -25.8200   45.1030 C.ar  185  TYR185     -0.0201
     71  CD1       44.2670  -24.8880   45.2530 C.ar  185  TYR185     -0.0009
     72  CD2       44.9380  -27.1540   44.9270 C.ar  185  TYR185     -0.0009
     73  CE1       42.9340  -25.2740   45.2370 C.ar  185  TYR185      0.0417
     74  CE2       43.6000  -27.5520   44.9100 C.ar  185  TYR185      0.0417
     75  CZ        42.6040  -26.6050   45.0720 C.ar  185  TYR185      0.1957
     76  OH        41.2710  -26.9620   45.0550 O.3   185  TYR185     -0.2866
     77  N         52.7580  -28.2060   44.3820 N.3   190  TYR190     -0.1227
     78  CA        52.7560  -29.1510   43.2880 C.3   190  TYR190      0.1736
     79  C         53.9140  -28.8040   42.3760 C.2   190  TYR190      0.2595
     80  O         54.0760  -27.6580   41.9670 O.2   190  TYR190     -0.2718
     81  CB        51.4360  -29.0980   42.5170 C.3   190  TYR190      0.0548
     82  CG        50.2020  -29.5350   43.2910 C.ar  190  TYR190     -0.0200
     83  CD1       49.6240  -30.7910   43.0790 C.ar  190  TYR190     -0.0009
     84  CD2       49.5980  -28.6820   44.2110 C.ar  190  TYR190     -0.0009
     85  CE1       48.4840  -31.1860   43.7740 C.ar  190  TYR190      0.0417
     86  CE2       48.4610  -29.0670   44.9110 C.ar  190  TYR190      0.0417
     87  CZ        47.9070  -30.3170   44.6910 C.ar  190  TYR190      0.1957
     88  OH        46.7770  -30.6870   45.3970 O.3   190  TYR190     -0.2866
     89  N         54.7320  -29.8030   42.0790 N.am  191  VAL191     -0.1966
     90  CA        55.9210  -29.5930   41.2840 C.3   191  VAL191      0.1727
     91  C         55.9300  -30.6060   40.1650 C.2   191  VAL191      0.2616
     92  O         55.8400  -31.8080   40.4100 O.2   191  VAL191     -0.2715
     93  CB        57.2020  -29.7910   42.1180 C.3   191  VAL191      0.0290
     94  CG1       58.4140  -29.2510   41.3720 C.3   191  VAL191      0.0023
     95  CG2       57.0680  -29.1210   43.4720 C.3   191  VAL191      0.0023
     96  N         56.0340  -30.1190   38.9370 N.am  192  GLY192     -0.1955
     97  CA        56.1380  -30.9960   37.7980 C.3   192  GLY192      0.1869
     98  C         57.3640  -30.6570   36.9880 C.2   192  GLY192      0.2309
     99  O         57.9310  -29.5780   37.1310 O.2   192  GLY192     -0.2863
    100  N         43.4930  -34.3440   38.6590 N.3   229  PHE229     -0.1227
    101  CA        43.6100  -33.4650   39.8130 C.3   229  PHE229      0.1736
    102  C         42.4740  -32.4550   39.8230 C.2   229  PHE229      0.2595
    103  O         42.3800  -31.6150   38.9240 O.2   229  PHE229     -0.2718
    104  CB        44.9260  -32.7020   39.7700 C.3   229  PHE229      0.0547
    105  CG        46.1370  -33.5700   39.7870 C.ar  229  PHE229     -0.0202
    106  CD1       46.7350  -33.9160   40.9880 C.ar  229  PHE229     -0.0042
    107  CD2       46.6950  -34.0220   38.6050 C.ar  229  PHE229     -0.0042
    108  CE1       47.8630  -34.7150   41.0140 C.ar  229  PHE229     -0.0003
    109  CE2       47.8240  -34.8210   38.6190 C.ar  229  PHE229     -0.0003
    110  CZ        48.4130  -35.1680   39.8250 C.ar  229  PHE229     -0.0000
    111  N         41.6160  -32.5300   40.8360 N.am  230  LEU230     -0.1966
    112  CA        40.5610  -31.5340   41.0000 C.3   230  LEU230      0.1728
    113  C         41.1760  -30.2330   41.5040 C.2   230  LEU230      0.2616
    114  O         41.7890  -30.2040   42.5790 O.2   230  LEU230     -0.2715
    115  CB        39.4830  -32.0140   41.9740 C.3   230  LEU230      0.0311
    116  CG        38.8760  -33.4030   41.7700 C.3   230  LEU230      0.0022
    117  CD1       37.5900  -33.5000   42.5870 C.3   230  LEU230      0.0001
    118  CD2       38.6330  -33.7370   40.2900 C.3   230  LEU230      0.0001
    119  N         40.9980  -29.1580   40.7390 N.am  231  TRP231     -0.1974
    120  CA        41.6950  -27.9120   41.0280 C.3   231  TRP231      0.1640
    121  C         41.0000  -26.7240   40.4110 C.2   231  TRP231      0.2290
    122  O         40.9490  -26.6080   39.1880 O.2   231  TRP231     -0.2864
    123  CB        43.1040  -27.9780   40.4610 C.3   231  TRP231      0.0576
    124  CG        43.8730  -26.7180   40.6490 C.ar  231  TRP231      0.0006
    125  CD1       44.4870  -26.2980   41.7940 C.ar  231  TRP231      0.0946
    126  CD2       44.1160  -25.7050   39.6650 C.ar  231  TRP231      0.0152
    127  NE1       45.0980  -25.0960   41.5800 N.ar  231  TRP231     -0.2442
    128  CE2       44.8850  -24.7090   40.2840 C.ar  231  TRP231      0.0810
    129  CE3       43.7480  -25.5380   38.3200 C.ar  231  TRP231      0.0012
    130  CZ2       45.2990  -23.5700   39.6160 C.ar  231  TRP231      0.0191
    131  CZ3       44.1630  -24.3930   37.6530 C.ar  231  TRP231      0.0001
    132  CH2       44.9310  -23.4280   38.3040 C.ar  231  TRP231      0.0015
    133  N         42.6970  -31.7320   35.8820 N.3   236  LEU236     -0.1231
    134  CA        44.0230  -31.7240   35.2860 C.3   236  LEU236      0.1693
    135  C         44.5880  -33.1440   35.1930 C.2   236  LEU236      0.2592
    136  O         44.5710  -33.8900   36.1680 O.2   236  LEU236     -0.2718
    137  CB        44.9690  -30.8000   36.0770 C.3   236  LEU236      0.0284
    138  CG        44.5800  -29.3300   36.3370 C.3   236  LEU236      0.0019
    139  CD1       45.4460  -28.7110   37.4370 C.3   236  LEU236      0.0001
    140  CD2       44.6500  -28.4760   35.0640 C.3   236  LEU236      0.0001
    141  N         45.0610  -33.5020   34.0000 N.am  237  HIS237     -0.1962
    142  CA        45.7500  -34.7680   33.7290 C.3   237  HIS237      0.1772
    143  C         47.1370  -34.4330   33.1620 C.2   237  HIS237      0.2462
    144  O         47.3540  -33.3220   32.6840 O.2   237  HIS237     -0.2730
    145  CB        44.9740  -35.6040   32.6930 C.3   237  HIS237      0.0785
    146  CG        43.6340  -36.0900   33.1620 C.ar  237  HIS237      0.0821
    147  ND1       43.3950  -37.4030   33.5050 N.ar  237  HIS237     -0.2267
    148  CD2       42.4550  -35.4410   33.3160 C.ar  237  HIS237      0.1154
    149  CE1       42.1300  -37.5380   33.8640 C.ar  237  HIS237      0.1986
    150  NE2       41.5390  -36.3630   33.7570 N.ar  237  HIS237     -0.2212
    151  N         48.0800  -35.3870   33.2070 N.am  238  PRO238     -0.2727
    152  CA        49.4270  -35.1890   32.6460 C.3   238  PRO238      0.1402
    153  C         49.4590  -34.5590   31.2500 C.2   238  PRO238      0.2269
    154  O         50.4190  -33.8410   30.9500 O.2   238  PRO238     -0.2865
    155  CB        49.9620  -36.6210   32.5340 C.3   238  PRO238      0.0296
    156  CG        49.2940  -37.3620   33.6470 C.3   238  PRO238      0.0237
    157  CD        47.9650  -36.6740   33.9210 C.3   238  PRO238      0.0939
    158  N         47.2340  -28.9580   26.0180 N.3   320  TYR320     -0.1241
    159  CA        48.0840  -28.0200   26.7390 C.3   320  TYR320      0.1605
    160  C         48.8730  -27.2670   25.6930 C.2   320  TYR320      0.2264
    161  O         48.8690  -27.6240   24.5120 O.2   320  TYR320     -0.2867
    162  CB        49.0450  -28.7540   27.6930 C.3   320  TYR320      0.0534
    163  CG        48.3990  -29.2570   28.9680 C.ar  320  TYR320     -0.0201
    164  CD1       47.5700  -28.4280   29.7150 C.ar  320  TYR320     -0.0009
    165  CD2       48.6060  -30.5630   29.4200 C.ar  320  TYR320     -0.0009
    166  CE1       46.9650  -28.8730   30.8730 C.ar  320  TYR320      0.0417
    167  CE2       48.0020  -31.0170   30.5790 C.ar  320  TYR320      0.0417
    168  CZ        47.1790  -30.1600   31.2970 C.ar  320  TYR320      0.1957
    169  OH        46.5570  -30.5720   32.4500 O.3   320  TYR320     -0.2866
@<TRIPOS>BOND
     1   161   160    2
     2    28    27    1
     3   160   159    1
     4    27    26    1
     5   158   159    1
     6   159   162    1
     7    26    25    1
     8   162   163    1
     9    25    24    1
    10    15    14    2
    11    24    21    1
    12   163   165   ar
    13   163   164   ar
    14     9     8    1
    15     9    10    1
    16    21    22    1
    17    21    20    1
    18    11    10    2
    19   165   167   ar
    20    10    12   am
    21    14    20   am
    22    14    13    1
    23    22    23    2
    24   164   166   ar
    25    12    13    1
    26   167   168   ar
    27    13    16    1
    28   166   168   ar
    29   154   153    2
    30   153   152    1
    31   168   169    1
    32    29    30    1
    33    16    17    1
    34    30    31    1
    35    30    33    1
    36   155   152    1
    37   155   156    1
    38    31    32    2
    39   152   151    1
    40   144   143    2
    41   145   146    1
    42   145   142    1
    43    17    18    1
    44    17    19    1
    45   146   148   ar
    46   146   147   ar
    47   143   151   am
    48   143   142    1
    49   151   157    1
    50    36    34   am
    51   148   150   ar
    52   147   149   ar
    53   156   157    1
    54   142   141    1
    55   150   149   ar
    56    33    34    1
    57    34    35    2
    58   141   135   am
    59     3     4    2
    60     3     2    1
    61   140   138    1
    62    49    48    1
    63   135   134    1
    64   135   136    2
    65   134   133    1
    66   134   137    1
    67     2     5    1
    68     2     1    1
    69   137   138    1
    70     5     6    1
    71    50    48    1
    72   138   139    1
    73    48    45    1
    74    43    41    1
    75    98    99    2
    76    98    97    1
    77     1     7    1
    78    44    45    1
    79     6     7    1
    80    45    46    1
    81   131   132   ar
    82   131   129   ar
    83    37    38    1
    84    97    96    1
    85    41    38    1
    86    41    42    1
    87   132   130   ar
    88   129   126   ar
    89    38    39    1
    90   107   109   ar
    91   107   105   ar
    92   109   110   ar
    93   100   101    1
    94    46    47    2
    95    46    51   am
    96   103   102    2
    97    96    91   am
    98   122   121    2
    99   130   128   ar
   100    51    52    1
   101   126   128   ar
   102   126   124   ar
   103   104   105    1
   104   104   101    1
   105   105   106   ar
   106   101   102    1
   107   102   111   am
   108   110   108   ar
   109    39    40    2
   110    91    92    2
   111    91    90    1
   112   128   127   ar
   113   118   116    1
   114   121   120    1
   115   123   124    1
   116   123   120    1
   117    54    53    2
   118   124   125   ar
   119   119   120    1
   120   119   113   am
   121   111   112    1
   122    58    56    1
   123   106   108   ar
   124   112   113    1
   125   112   115    1
   126    52    53    1
   127    52    55    1
   128    63    64    1
   129    63    60    1
   130    53    59   am
   131    90    89    1
   132    90    93    1
   133    94    93    1
   134   113   114    2
   135   127   125   ar
   136    56    55    1
   137   116   115    1
   138   116   117    1
   139    59    60    1
   140    80    79    2
   141    55    57    1
   142    89    79   am
   143    93    95    1
   144    60    61    1
   145    79    78    1
   146    81    78    1
   147    81    82    1
   148    83    82   ar
   149    83    85   ar
   150    78    77    1
   151    82    84   ar
   152    61    62    2
   153    85    87   ar
   154    84    86   ar
   155    87    86   ar
   156    87    88    1
   157    74    72   ar
   158    74    75   ar
   159    72    70   ar
   160    76    75    1
   161    75    73   ar
   162    70    69    1
   163    70    71   ar
   164    69    66    1
   165    73    71   ar
   166    65    66    1
   167    66    67    1
   168    67    68    2
