@<TRIPOS>MOLECULE
tmp/4i2wA00.pdb
 145 136 0 0 0
SMALL
GASTEIGER

@<TRIPOS>ATOM
      1  N         53.7580   -8.6170  -23.9550 N.3     8  ARG8       -0.1245
      2  CA        54.8370   -9.4930  -24.3920 C.3     8  ARG8        0.1563
      3  C         55.2970  -10.3520  -23.2300 C.2     8  ARG8        0.2260
      4  O         55.3420  -11.5770  -23.3340 O.2     8  ARG8       -0.2867
      5  CB        56.0130   -8.6780  -24.9520 C.3     8  ARG8        0.0307
      6  CG        56.8640   -7.9140  -23.9380 C.3     8  ARG8        0.0489
      7  CD        57.8480   -7.0020  -24.6650 C.3     8  ARG8        0.2205
      8  NE        58.9190   -6.4720  -23.8170 N.pl3   8  ARG8       -0.0865
      9  CZ        59.9340   -7.1900  -23.3390 C.cat   8  ARG8        0.5346
     10  NH1       60.0280   -8.4840  -23.6140 N.pl3   8  ARG8        0.1354
     11  NH2       60.8740   -6.6070  -22.6040 N.pl3   8  ARG8        0.1354
     12  N         56.3940  -13.9790  -22.9350 N.3    12  ASN12      -0.1240
     13  CA        57.7560  -14.3190  -22.5410 C.3    12  ASN12       0.1653
     14  C         57.6410  -15.3730  -21.4510 C.2    12  ASN12       0.2266
     15  O         58.3260  -16.3980  -21.4760 O.2    12  ASN12      -0.2867
     16  CB        58.4790  -13.0780  -21.9990 C.3    12  ASN12       0.1155
     17  CG        58.6570  -11.9870  -23.0540 C.2    12  ASN12       0.2627
     18  OD1       57.6870  -11.5030  -23.6400 O.2    12  ASN12      -0.2716
     19  ND2       59.9050  -11.5950  -23.2950 N.am   12  ASN12      -0.0877
     20  N         56.4370  -18.7010  -22.8590 N.3    15  VAL15      -0.1231
     21  CA        57.5450  -19.4170  -23.4660 C.3    15  VAL15       0.1692
     22  C         58.2260  -20.2350  -22.3910 C.2    15  VAL15       0.2591
     23  O         58.5990  -21.3890  -22.6100 O.2    15  VAL15      -0.2718
     24  CB        58.5810  -18.4510  -24.0650 C.3    15  VAL15       0.0266
     25  CG1       59.7300  -19.2360  -24.6730 C.3    15  VAL15       0.0020
     26  CG2       57.9290  -17.5870  -25.1120 C.3    15  VAL15       0.0020
     27  N         58.3730  -19.6230  -21.2210 N.am   16  LYS16      -0.1980
     28  CA        59.0190  -20.2760  -20.0960 C.3    16  LYS16       0.1596
     29  C         58.1320  -21.3300  -19.4370 C.2    16  LYS16       0.2287
     30  O         58.6360  -22.3140  -18.9000 O.2    16  LYS16      -0.2864
     31  CB        59.4790  -19.2270  -19.0700 C.3    16  LYS16       0.0298
     32  CG        60.5950  -18.3140  -19.5950 C.3    16  LYS16       0.0038
     33  CD        61.1140  -17.3340  -18.5440 C.3    16  LYS16       0.0206
     34  CE        62.2750  -16.4980  -19.0960 C.3    16  LYS16       0.1093
     35  NZ        62.7740  -15.4690  -18.1330 N.3    16  LYS16      -0.1314
     36  N         53.8960  -22.7430  -25.9190 N.3    20  TYR20      -0.1241
     37  CA        54.3680  -22.0970  -27.1390 C.3    20  TYR20       0.1605
     38  C         53.1720  -21.7480  -28.0030 C.2    20  TYR20       0.2264
     39  O         53.1950  -20.7820  -28.7720 O.2    20  TYR20      -0.2867
     40  CB        55.2960  -23.0440  -27.8980 C.3    20  TYR20       0.0534
     41  CG        56.4010  -23.6220  -27.0460 C.ar   20  TYR20      -0.0201
     42  CD1       57.3790  -22.7960  -26.4830 C.ar   20  TYR20      -0.0009
     43  CD2       56.4660  -24.9940  -26.7950 C.ar   20  TYR20      -0.0009
     44  CE1       58.3970  -23.3220  -25.6910 C.ar   20  TYR20       0.0417
     45  CE2       57.4780  -25.5340  -26.0060 C.ar   20  TYR20       0.0417
     46  CZ        58.4420  -24.6930  -25.4560 C.ar   20  TYR20       0.1957
     47  OH        59.4480  -25.2230  -24.6770 O.3    20  TYR20      -0.2866
     48  N         52.5350  -13.3830  -28.4500 N.3    27  TYR27      -0.1241
     49  CA        53.5070  -12.5170  -29.1130 C.3    27  TYR27       0.1605
     50  C         52.8810  -11.8800  -30.3320 C.2    27  TYR27       0.2264
     51  O         52.9480  -10.6650  -30.5210 O.2    27  TYR27      -0.2867
     52  CB        54.7260  -13.3220  -29.5620 C.3    27  TYR27       0.0534
     53  CG        55.6670  -13.7210  -28.4580 C.ar   27  TYR27      -0.0201
     54  CD1       56.4480  -12.7700  -27.8020 C.ar   27  TYR27      -0.0009
     55  CD2       55.7860  -15.0550  -28.0730 C.ar   27  TYR27      -0.0009
     56  CE1       57.3270  -13.1400  -26.7860 C.ar   27  TYR27       0.0417
     57  CE2       56.6600  -15.4390  -27.0610 C.ar   27  TYR27       0.0417
     58  CZ        57.4280  -14.4810  -26.4210 C.ar   27  TYR27       0.1957
     59  OH        58.2990  -14.8680  -25.4250 O.3    27  TYR27      -0.2866
     60  N         62.3030   -7.4950  -31.2730 N.3    44  VAL44      -0.1245
     61  CA        62.4100   -8.3260  -30.0900 C.3    44  VAL44       0.1561
     62  C         61.4030   -9.4570  -30.1820 C.2    44  VAL44       0.2260
     63  O         61.7510  -10.6270  -29.9980 O.2    44  VAL44      -0.2867
     64  CB        62.1280   -7.5030  -28.8140 C.3    44  VAL44       0.0252
     65  CG1       60.7550   -6.8520  -28.9010 C.3    44  VAL44       0.0019
     66  CG2       62.2280   -8.3960  -27.5870 C.3    44  VAL44       0.0019
     67  N         61.6360  -12.1250  -33.0980 N.3    47  ARG47      -0.1231
     68  CA        62.6800  -12.9850  -32.5700 C.3    47  ARG47       0.1694
     69  C         62.0820  -14.0640  -31.6680 C.2    47  ARG47       0.2592
     70  O         62.2680  -15.2680  -31.8740 O.2    47  ARG47      -0.2718
     71  CB        63.6510  -12.1250  -31.7560 C.3    47  ARG47       0.0321
     72  CG        64.7810  -12.8780  -31.0800 C.3    47  ARG47       0.0489
     73  CD        65.5250  -11.9400  -30.1510 C.3    47  ARG47       0.2205
     74  NE        65.8760  -10.6920  -30.8220 N.pl3  47  ARG47      -0.0865
     75  CZ        66.3310   -9.6110  -30.1960 C.cat  47  ARG47       0.5346
     76  NH1       66.4920   -9.6200  -28.8800 N.pl3  47  ARG47       0.1354
     77  NH2       66.6240   -8.5180  -30.8860 N.pl3  47  ARG47       0.1354
     78  N         61.3440  -13.6000  -30.6710 N.am   48  ASN48      -0.1974
     79  CA        60.7360  -14.4670  -29.6830 C.3    48  ASN48       0.1688
     80  C         59.6160  -15.3750  -30.1810 C.2    48  ASN48       0.2292
     81  O         59.5680  -16.5500  -29.8050 O.2    48  ASN48      -0.2864
     82  CB        60.2700  -13.6100  -28.5050 C.3    48  ASN48       0.1181
     83  CG        61.4060  -12.7830  -27.9070 C.2    48  ASN48       0.2629
     84  OD1       62.4340  -13.3240  -27.4980 O.2    48  ASN48      -0.2716
     85  ND2       61.2260  -11.4700  -27.8600 N.am   48  ASN48      -0.0877
     86  N         59.2780  -19.6160  -30.0350 N.3    51  ALA51      -0.1245
     87  CA        58.1820  -20.5160  -29.7600 C.3    51  ALA51       0.1562
     88  C         57.7950  -21.2990  -31.0070 C.2    51  ALA51       0.2260
     89  O         57.7620  -22.5270  -30.9840 O.2    51  ALA51      -0.2867
     90  CB        56.9920  -19.7220  -29.2410 C.3    51  ALA51       0.0290
     91  N         59.6450  -23.9180  -31.6060 N.3    54  LYS54      -0.1245
     92  CA        59.3010  -24.9010  -30.5910 C.3    54  LYS54       0.1561
     93  C         58.0570  -25.6950  -30.9830 C.2    54  LYS54       0.2260
     94  O         57.9570  -26.8810  -30.6640 O.2    54  LYS54      -0.2867
     95  CB        59.1100  -24.2120  -29.2300 C.3    54  LYS54       0.0271
     96  CG        60.4300  -23.9320  -28.4940 C.3    54  LYS54       0.0035
     97  CD        61.0680  -25.2340  -27.9700 C.3    54  LYS54       0.0206
     98  CE        62.5540  -25.0780  -27.6310 C.3    54  LYS54       0.1093
     99  NZ        63.4360  -24.9250  -28.8450 N.3    54  LYS54      -0.1314
    100  N         72.3140  -12.3580  -33.1890 N.3    76  VAL76      -0.1231
    101  CA        72.7330  -13.7550  -33.1640 C.3    76  VAL76       0.1692
    102  C         71.5690  -14.6450  -32.7680 C.2    76  VAL76       0.2591
    103  O         71.4380  -15.7740  -33.2550 O.2    76  VAL76      -0.2718
    104  CB        73.8820  -13.9840  -32.1580 C.3    76  VAL76       0.0266
    105  CG1       73.4850  -13.4780  -30.7790 C.3    76  VAL76       0.0020
    106  CG2       74.2330  -15.4660  -32.0940 C.3    76  VAL76       0.0020
    107  N         70.7260  -14.1320  -31.8760 N.am   77  LYS77      -0.1980
    108  CA        69.5640  -14.8840  -31.4180 C.3    77  LYS77       0.1596
    109  C         68.8320  -15.3830  -32.6700 C.2    77  LYS77       0.2287
    110  O         68.6120  -16.5870  -32.8420 O.2    77  LYS77      -0.2864
    111  CB        68.6410  -13.9770  -30.5880 C.3    77  LYS77       0.0298
    112  CG        68.1610  -14.5570  -29.2430 C.3    77  LYS77       0.0038
    113  CD        69.2030  -14.3620  -28.1390 C.3    77  LYS77       0.0206
    114  CE        68.5820  -14.3570  -26.7390 C.3    77  LYS77       0.1093
    115  NZ        67.9300  -15.6470  -26.3750 N.3    77  LYS77      -0.1314
    116  N         70.5510  -17.6890  -35.3430 N.3    80  PHE80      -0.1227
    117  CA        70.5820  -19.0430  -34.8200 C.3    80  PHE80       0.1736
    118  C         69.2710  -19.7510  -35.1790 C.2    80  PHE80       0.2595
    119  O         69.2520  -20.6330  -36.0400 O.2    80  PHE80      -0.2718
    120  CB        70.7860  -19.0430  -33.2940 C.3    80  PHE80       0.0547
    121  CG        70.9730  -20.4290  -32.7030 C.ar   80  PHE80      -0.0202
    122  CD1       71.3100  -20.5980  -31.3690 C.ar   80  PHE80      -0.0042
    123  CD2       70.8050  -21.5700  -33.4900 C.ar   80  PHE80      -0.0042
    124  CE1       71.4750  -21.8830  -30.8320 C.ar   80  PHE80      -0.0003
    125  CE2       70.9680  -22.8500  -32.9630 C.ar   80  PHE80      -0.0003
    126  CZ        71.3020  -23.0080  -31.6390 C.ar   80  PHE80      -0.0000
    127  N         68.1900  -19.3550  -34.5100 N.am   81  ARG81      -0.1980
    128  CA        66.8650  -19.9310  -34.7160 C.3    81  ARG81       0.1597
    129  C         66.5790  -20.2160  -36.1960 C.2    81  ARG81       0.2287
    130  O         66.1660  -21.3240  -36.5670 O.2    81  ARG81      -0.2864
    131  CB        65.8240  -18.9840  -34.1250 C.3    81  ARG81       0.0334
    132  CG        66.2820  -18.4310  -32.7910 C.3    81  ARG81       0.0492
    133  CD        65.1400  -17.8690  -31.9700 C.3    81  ARG81       0.2205
    134  NE        65.5120  -17.7660  -30.5630 N.pl3  81  ARG81      -0.0865
    135  CZ        65.7830  -18.8180  -29.7960 C.cat  81  ARG81       0.5346
    136  NH1       65.7200  -20.0480  -30.2950 N.pl3  81  ARG81       0.1354
    137  NH2       66.1220  -18.6450  -28.5320 N.pl3  81  ARG81       0.1354
    138  N         79.7960  -20.8800  -28.1150 N.3   109  ASP109     -0.1239
    139  CA        78.3740  -21.1170  -27.9090 C.3   109  ASP109      0.1674
    140  C         78.0550  -22.5600  -28.2600 C.2   109  ASP109      0.2266
    141  O         77.5990  -22.8370  -29.3680 O.2   109  ASP109     -0.2867
    142  CB        77.5610  -20.1720  -28.8030 C.3   109  ASP109      0.1410
    143  CG        76.0950  -20.1520  -28.4530 C.2   109  ASP109      0.3668
    144  OD1       75.4420  -21.2130  -28.5660 O.co2 109  ASP109     -0.2456
    145  OD2       75.6000  -19.0680  -28.0710 O.co2 109  ASP109     -0.2456
@<TRIPOS>BOND
     1   130   129    2
     2   129   128    1
     3   119   118    2
     4   116   117    1
     5   118   117    1
     6   118   127   am
     7   117   120    1
     8   128   127    1
     9   128   131    1
    10   131   132    1
    11   123   125   ar
    12   123   121   ar
    13   120   121    1
    14   103   102    2
    15   100   101    1
    16   101   102    1
    17   101   104    1
    18    67    68    1
    19   125   126   ar
    20   110   109    2
    21   132   133    1
    22   102   107   am
    23   121   122   ar
    24   109   108    1
    25    68    71    1
    26    68    69    1
    27   104   106    1
    28   104   105    1
    29   133   134    1
    30   107   108    1
    31    70    69    2
    32    71    72    1
    33    69    78   am
    34   126   124   ar
    35    91    92    1
    36   108   111    1
    37   122   124   ar
    38    60    61    1
    39    72    73    1
    40    88    89    2
    41    88    87    1
    42    93    94    2
    43    93    92    1
    44    77    75    1
    45    74    75    2
    46    74    73    1
    47    78    79    1
    48    92    95    1
    49   111   112    1
    50   134   135    2
    51    51    50    2
    52    50    49    1
    53   136   135    1
    54    75    76    1
    55    62    61    1
    56    62    63    2
    57    80    81    2
    58    80    79    1
    59    61    64    1
    60    86    87    1
    61   135   137    1
    62    87    90    1
    63    79    82    1
    64    52    49    1
    65    52    53    1
    66   141   140    2
    67   112   113    1
    68    95    96    1
    69    49    48    1
    70    65    64    1
    71    99    98    1
    72    64    66    1
    73   142   143    1
    74   142   139    1
    75    39    38    2
    76   144   143   ar
    77    82    83    1
    78    96    97    1
    79    53    55   ar
    80    53    54   ar
    81   143   145   ar
    82   140   139    1
    83   113   114    1
    84   138   139    1
    85    55    57   ar
    86    38    37    1
    87    97    98    1
    88    83    85   am
    89    83    84    2
    90    40    37    1
    91    40    41    1
    92    54    56   ar
    93    37    36    1
    94    57    58   ar
    95    41    43   ar
    96    41    42   ar
    97    43    45   ar
    98    56    58   ar
    99   114   115    1
   100    42    44   ar
   101    58    59    1
   102    45    46   ar
   103    44    46   ar
   104    46    47    1
   105    26    24    1
   106     5     2    1
   107     5     6    1
   108    25    24    1
   109     7     6    1
   110     7     8    1
   111     2     1    1
   112     2     3    1
   113    24    21    1
   114     8     9    2
   115    18    17    2
   116    10     9    1
   117    21    20    1
   118    21    22    1
   119     9    11    1
   120     4     3    2
   121    19    17   am
   122    17    16    1
   123    12    13    1
   124    23    22    2
   125    13    16    1
   126    13    14    1
   127    22    27   am
   128    15    14    2
   129    27    28    1
   130    28    29    1
   131    28    31    1
   132    32    31    1
   133    32    33    1
   134    29    30    2
   135    34    33    1
   136    34    35    1
