@<TRIPOS>MOLECULE
tmp/4i2zA00.pdb
 178 168 0 0 0
SMALL
GASTEIGER

@<TRIPOS>ATOM
      1  N         53.8510    8.7050   24.2480 N.3     8  ARG8       -0.1245
      2  CA        54.9920    9.4650   24.7470 C.3     8  ARG8        0.1563
      3  C         55.5900   10.3760   23.6800 C.2     8  ARG8        0.2260
      4  O         55.8000   11.5660   23.9200 O.2     8  ARG8       -0.2867
      5  CB        56.0680    8.5170   25.3070 C.3     8  ARG8        0.0307
      6  CG        57.1620    8.0620   24.3360 C.3     8  ARG8        0.0489
      7  CD        58.1660    7.1520   25.0500 C.3     8  ARG8        0.2205
      8  NE        59.4290    6.9810   24.3320 N.pl3   8  ARG8       -0.0865
      9  CZ        60.2560    7.9750   24.0180 C.cat   8  ARG8        0.5346
     10  NH1       59.9610    9.2250   24.3460 N.pl3   8  ARG8        0.1354
     11  NH2       61.3960    7.7180   23.3900 N.pl3   8  ARG8        0.1354
     12  N         56.7180   14.3340   23.2460 N.3    12  ASN12      -0.1240
     13  CA        58.0190   14.9070   22.8870 C.3    12  ASN12       0.1653
     14  C         57.8540   15.8880   21.7370 C.2    12  ASN12       0.2266
     15  O         58.6060   16.8590   21.6180 O.2    12  ASN12      -0.2867
     16  CB        59.0130   13.8070   22.4800 C.3    12  ASN12       0.1155
     17  CG        59.2060   12.7530   23.5610 C.2    12  ASN12       0.2627
     18  OD1       58.5410   11.7170   23.5610 O.2    12  ASN12      -0.2716
     19  ND2       60.1140   13.0180   24.4940 N.am   12  ASN12      -0.0877
     20  N         56.4660   19.0680   22.9630 N.3    15  VAL15      -0.1231
     21  CA        57.5390   19.8800   23.5080 C.3    15  VAL15       0.1692
     22  C         58.0900   20.6960   22.3490 C.2    15  VAL15       0.2591
     23  O         58.1400   21.9280   22.3990 O.2    15  VAL15      -0.2718
     24  CB        58.6740   19.0080   24.0790 C.3    15  VAL15       0.0266
     25  CG1       59.7310   19.8910   24.7040 C.3    15  VAL15       0.0020
     26  CG2       58.1170   18.0270   25.0990 C.3    15  VAL15       0.0020
     27  N         58.4760   19.9830   21.2960 N.am   16  LYS16      -0.1980
     28  CA        59.0390   20.5930   20.0990 C.3    16  LYS16       0.1596
     29  C         58.1000   21.6210   19.4490 C.2    16  LYS16       0.2287
     30  O         58.5650   22.5500   18.7910 O.2    16  LYS16      -0.2864
     31  CB        59.4350   19.4830   19.1140 C.3    16  LYS16       0.0298
     32  CG        60.4310   18.4850   19.7320 C.3    16  LYS16       0.0038
     33  CD        60.6740   17.2450   18.8700 C.3    16  LYS16       0.0206
     34  CE        61.6460   16.2740   19.5540 C.3    16  LYS16       0.1093
     35  NZ        61.8190   14.9780   18.8260 N.3    16  LYS16      -0.1314
     36  N         52.4350   13.4960   28.8080 N.3    27  TYR27      -0.1241
     37  CA        53.3880   12.6330   29.4930 C.3    27  TYR27       0.1605
     38  C         52.7720   11.9160   30.6940 C.2    27  TYR27       0.2264
     39  O         53.0250   10.7290   30.9120 O.2    27  TYR27      -0.2867
     40  CB        54.6120   13.4410   29.9270 C.3    27  TYR27       0.0534
     41  CG        55.6080   13.6950   28.8170 C.ar   27  TYR27      -0.0201
     42  CD1       56.2360   12.6360   28.1610 C.ar   27  TYR27      -0.0009
     43  CD2       55.9370   14.9950   28.4290 C.ar   27  TYR27      -0.0009
     44  CE1       57.1650   12.8660   27.1490 C.ar   27  TYR27       0.0417
     45  CE2       56.8680   15.2350   27.4180 C.ar   27  TYR27       0.0417
     46  CZ        57.4760   14.1670   26.7890 C.ar   27  TYR27       0.1957
     47  OH        58.4180   14.4030   25.8240 O.3    27  TYR27      -0.2866
     48  N         62.1190    7.4880   31.8190 N.3    44  VAL44      -0.1245
     49  CA        62.3020    8.3460   30.6640 C.3    44  VAL44       0.1561
     50  C         61.1820    9.3610   30.6130 C.2    44  VAL44       0.2260
     51  O         61.4020   10.5180   30.2530 O.2    44  VAL44      -0.2867
     52  CB        62.3060    7.5300   29.3640 C.3    44  VAL44       0.0252
     53  CG1       61.1540    6.5540   29.3760 C.3    44  VAL44       0.0019
     54  CG2       62.2220    8.4670   28.1540 C.3    44  VAL44       0.0019
     55  N         61.6850   11.9470   33.4050 N.3    47  ARG47      -0.1231
     56  CA        62.8080   12.7570   32.9470 C.3    47  ARG47       0.1694
     57  C         62.3340   13.7580   31.9020 C.2    47  ARG47       0.2592
     58  O         62.9050   14.8390   31.7310 O.2    47  ARG47      -0.2718
     59  CB        63.8820   11.8570   32.3250 C.3    47  ARG47       0.0321
     60  CG        65.0920   12.6000   31.7320 C.3    47  ARG47       0.0489
     61  CD        65.8140   11.7220   30.7250 C.3    47  ARG47       0.2205
     62  NE        65.9520   10.3590   31.2310 N.pl3  47  ARG47      -0.0865
     63  CZ        66.2820    9.3120   30.4820 C.cat  47  ARG47       0.5346
     64  NH1       66.5150    9.4710   29.1850 N.pl3  47  ARG47       0.1354
     65  NH2       66.3710    8.1020   31.0270 N.pl3  47  ARG47       0.1354
     66  N         61.2840   13.3900   31.1880 N.am   48  ASN48      -0.1974
     67  CA        60.7710   14.2710   30.1670 C.3    48  ASN48       0.1688
     68  C         59.7880   15.2560   30.7490 C.2    48  ASN48       0.2292
     69  O         60.0290   16.4650   30.6970 O.2    48  ASN48      -0.2864
     70  CB        60.1160   13.4600   29.0500 C.3    48  ASN48       0.1181
     71  CG        61.1250   12.6550   28.2540 C.2    48  ASN48       0.2629
     72  OD1       62.1220   13.1960   27.7710 O.2    48  ASN48      -0.2716
     73  ND2       60.8700   11.3600   28.1070 N.am   48  ASN48      -0.0877
     74  N         59.0060   19.8840   30.6200 N.3    51  ALA51      -0.1245
     75  CA        57.7350   20.5470   30.3830 C.3    51  ALA51       0.1562
     76  C         57.3670   21.4130   31.5730 C.2    51  ALA51       0.2260
     77  O         57.2010   22.6350   31.4520 O.2    51  ALA51      -0.2867
     78  CB        56.6730   19.5060   30.1520 C.3    51  ALA51       0.0290
     79  N         59.1250   22.2650   34.0250 N.3    53  LEU53      -0.1231
     80  CA        60.1830   23.2400   34.2130 C.3    53  LEU53       0.1693
     81  C         59.9150   24.4650   33.3570 C.2    53  LEU53       0.2591
     82  O         60.2250   25.5930   33.7520 O.2    53  LEU53      -0.2718
     83  CB        61.5280   22.5990   33.8570 C.3    53  LEU53       0.0284
     84  CG        62.7660   23.0970   34.6070 C.3    53  LEU53       0.0019
     85  CD1       62.4400   23.3200   36.0770 C.3    53  LEU53       0.0001
     86  CD2       63.8830   22.0710   34.4550 C.3    53  LEU53       0.0001
     87  N         59.3160   24.2300   32.1900 N.am   54  LYS54      -0.1980
     88  CA        58.9910   25.3070   31.2560 C.3    54  LYS54       0.1596
     89  C         57.7020   26.0480   31.6310 C.2    54  LYS54       0.2287
     90  O         57.5360   27.2150   31.2730 O.2    54  LYS54      -0.2864
     91  CB        58.9300   24.7640   29.8200 C.3    54  LYS54       0.0298
     92  CG        60.2680   24.8560   29.0540 C.3    54  LYS54       0.0038
     93  CD        60.5530   26.3060   28.5990 C.3    54  LYS54       0.0206
     94  CE        61.8910   26.4630   27.8530 C.3    54  LYS54       0.1093
     95  NZ        63.0840   26.3270   28.7460 N.3    54  LYS54      -0.1314
     96  N         71.8360   12.0040   33.8380 N.3    76  VAL76      -0.1231
     97  CA        72.3260   13.3760   33.7540 C.3    76  VAL76       0.1692
     98  C         71.2290   14.3820   33.4070 C.2    76  VAL76       0.2591
     99  O         71.2730   15.5360   33.8530 O.2    76  VAL76      -0.2718
    100  CB        73.4850   13.4910   32.7240 C.3    76  VAL76       0.0266
    101  CG1       73.0220   12.9910   31.3700 C.3    76  VAL76       0.0020
    102  CG2       73.9800   14.9380   32.6350 C.3    76  VAL76       0.0020
    103  N         70.2460   13.9490   32.6230 N.am   77  LYS77      -0.1980
    104  CA        69.1560   14.8430   32.2430 C.3    77  LYS77       0.1596
    105  C         68.3180   15.1720   33.4900 C.2    77  LYS77       0.2287
    106  O         67.8260   16.2990   33.6450 O.2    77  LYS77      -0.2864
    107  CB        68.2950   14.2100   31.1280 C.3    77  LYS77       0.0298
    108  CG        69.1080   13.7370   29.8950 C.3    77  LYS77       0.0038
    109  CD        68.5300   14.1390   28.5170 C.3    77  LYS77       0.0206
    110  CE        69.1760   15.4440   28.0210 C.3    77  LYS77       0.1093
    111  NZ        69.0790   15.6390   26.5410 N.3    77  LYS77      -0.1314
    112  N         70.3660   17.4670   35.9490 N.3    80  PHE80      -0.1227
    113  CA        70.4660   18.8220   35.4290 C.3    80  PHE80       0.1736
    114  C         69.2380   19.6560   35.7410 C.2    80  PHE80       0.2595
    115  O         69.3410   20.7580   36.2820 O.2    80  PHE80      -0.2718
    116  CB        70.6350   18.8710   33.9190 C.3    80  PHE80       0.0547
    117  CG        70.6840   20.2830   33.3900 C.ar   80  PHE80      -0.0202
    118  CD1       70.0450   20.6370   32.2200 C.ar   80  PHE80      -0.0042
    119  CD2       71.3460   21.2760   34.1060 C.ar   80  PHE80      -0.0042
    120  CE1       70.0610   21.9710   31.7700 C.ar   80  PHE80      -0.0003
    121  CE2       71.3640   22.5990   33.6660 C.ar   80  PHE80      -0.0003
    122  CZ        70.7240   22.9480   32.4990 C.ar   80  PHE80      -0.0000
    123  N         68.0750   19.1360   35.3600 N.am   81  ARG81      -0.1980
    124  CA        66.8140   19.8390   35.5740 C.3    81  ARG81       0.1597
    125  C         66.4530   19.9740   37.0590 C.2    81  ARG81       0.2287
    126  O         65.9830   21.0340   37.4980 O.2    81  ARG81      -0.2864
    127  CB        65.6950   19.1290   34.7980 C.3    81  ARG81       0.0334
    128  CG        66.0180   18.9150   33.3120 C.3    81  ARG81       0.0492
    129  CD        64.7640   18.6680   32.4870 C.3    81  ARG81       0.2205
    130  NE        64.7780   17.4030   31.7450 N.pl3  81  ARG81      -0.0865
    131  CZ        65.1140   17.2720   30.4610 C.cat  81  ARG81       0.5346
    132  NH1       65.4800   18.3380   29.7530 N.pl3  81  ARG81       0.1354
    133  NH2       65.0630   16.0720   29.8800 N.pl3  81  ARG81       0.1354
    134  N         68.2050   22.9130   38.2640 N.3    84  LEU84      -0.1245
    135  CA        67.5710   24.0990   37.7090 C.3    84  LEU84       0.1561
    136  C         66.2580   24.3690   38.4200 C.2    84  LEU84       0.2260
    137  O         65.8270   25.5250   38.5260 O.2    84  LEU84      -0.2867
    138  CB        67.3470   23.9160   36.2060 C.3    84  LEU84       0.0270
    139  CG        67.8050   25.1220   35.3900 C.3    84  LEU84       0.0019
    140  CD1       67.6340   24.8240   33.9200 C.3    84  LEU84       0.0001
    141  CD2       67.0060   26.3550   35.8020 C.3    84  LEU84       0.0001
    142  N         81.7930   18.2930   29.1290 N.3   108  ASN108     -0.1225
    143  CA        81.5450   19.3960   28.2170 C.3   108  ASN108      0.1785
    144  C         80.0750   19.4890   27.8690 C.2   108  ASN108      0.2597
    145  O         79.5000   18.5580   27.2970 O.2   108  ASN108     -0.2718
    146  CB        82.3520   19.2580   26.9270 C.3   108  ASN108      0.1169
    147  CG        81.9730   20.3110   25.8930 C.2   108  ASN108      0.2627
    148  OD1       81.7660   21.4820   26.2310 O.2   108  ASN108     -0.2716
    149  ND2       81.8830   19.9020   24.6270 N.am  108  ASN108     -0.0877
    150  N         79.4740   20.6220   28.2260 N.am  109  ASP109     -0.1960
    151  CA        78.0660   20.8950   27.9580 C.3   109  ASP109      0.1840
    152  C         77.7740   22.3410   28.3250 C.2   109  ASP109      0.2622
    153  O         77.4360   22.6350   29.4670 O.2   109  ASP109     -0.2715
    154  CB        77.1600   19.9720   28.7750 C.3   109  ASP109      0.1450
    155  CG        75.7290   19.9680   28.2660 C.2   109  ASP109      0.3671
    156  OD1       75.0890   21.0490   28.2430 O.co2 109  ASP109     -0.2456
    157  OD2       75.2470   18.8790   27.8810 O.co2 109  ASP109     -0.2456
    158  N         77.9190   23.2340   27.3490 N.am  110  LYS110     -0.1963
    159  CA        77.6770   24.6640   27.5400 C.3   110  LYS110      0.1728
    160  C         76.5290   24.9030   28.5260 C.2   110  LYS110      0.2617
    161  O         76.4970   25.9210   29.2320 O.2   110  LYS110     -0.2715
    162  CB        77.3500   25.3250   26.1860 C.3   110  LYS110      0.0311
    163  CG        78.4170   25.1230   25.0960 C.3   110  LYS110      0.0038
    164  CD        77.9560   25.6000   23.7070 C.3   110  LYS110      0.0206
    165  CE        79.0260   25.3330   22.6390 C.3   110  LYS110      0.1093
    166  NZ        78.5750   25.6320   21.2490 N.3   110  LYS110     -0.1314
    167  N         75.6140   23.9420   28.5810 N.am  111  GLY111     -0.1940
    168  CA        74.4600   24.0390   29.4600 C.3   111  GLY111      0.2014
    169  C         74.7650   23.9340   30.9430 C.2   111  GLY111      0.2638
    170  O         74.6350   24.9220   31.6700 O.2   111  GLY111     -0.2714
    171  N         75.1560   22.7410   31.3950 N.am  112  ILE112     -0.1977
    172  CA        75.4800   22.5290   32.8010 C.3   112  ILE112      0.1596
    173  C         76.3340   23.6990   33.2910 C.2   112  ILE112      0.2287
    174  O         76.0830   24.2870   34.3430 O.2   112  ILE112     -0.2864
    175  CB        76.2540   21.1960   33.0100 C.3   112  ILE112      0.0276
    176  CG1       75.3950   20.0190   32.5260 C.3   112  ILE112      0.0022
    177  CG2       76.6230   21.0220   34.4830 C.3   112  ILE112      0.0022
    178  CD1       75.8020   18.6410   33.0780 C.3   112  ILE112      0.0001
@<TRIPOS>BOND
     1    30    29    2
     2    35    34    1
     3    33    34    1
     4    33    32    1
     5    31    32    1
     6    31    28    1
     7    29    28    1
     8    28    27    1
     9   166   165    1
    10    27    22   am
    11    15    14    2
    12    14    13    1
    13    22    23    2
    14    22    21    1
    15    16    13    1
    16    16    17    1
    17   165   164    1
    18    13    12    1
    19    20    21    1
    20    11     9    1
    21    21    24    1
    22    18    17    2
    23    17    19   am
    24     3     4    2
    25     3     2    1
    26   164   163    1
    27     9     8    2
    28     9    10    1
    29    24    25    1
    30    24    26    1
    31     1     2    1
    32     8     7    1
    33     6     7    1
    34     6     5    1
    35   149   147   am
    36     2     5    1
    37   163   162    1
    38    47    46    1
    39   147   148    2
    40   147   146    1
    41   162   159    1
    42   111   110    1
    43    46    44   ar
    44    46    45   ar
    45   146   143    1
    46    44    42   ar
    47   145   144    2
    48   158   159    1
    49   158   152   am
    50    45    43   ar
    51   159   160    1
    52    72    71    2
    53    94    93    1
    54    94    95    1
    55   144   143    1
    56   144   150   am
    57   157   155   ar
    58   151   150    1
    59   151   152    1
    60   151   154    1
    61   110   109    1
    62    73    71   am
    63    54    52    1
    64    42    41   ar
    65   143   142    1
    66   156   155   ar
    67    71    70    1
    68   155   154    1
    69   152   153    2
    70    43    41   ar
    71   109   108    1
    72   160   167   am
    73   160   161    2
    74   167   168    1
    75    93    92    1
    76    36    37    1
    77    41    40    1
    78    70    67    1
    79    92    91    1
    80    64    63    1
    81    52    53    1
    82    52    49    1
    83   168   169    1
    84    37    40    1
    85    37    38    1
    86   132   131    1
    87    91    88    1
    88   133   131    1
    89   108   107    1
    90    78    75    1
    91    67    68    1
    92    67    66    1
    93    51    50    2
    94    75    74    1
    95    75    76    1
    96   131   130    2
    97    63    65    1
    98    63    62    2
    99    50    49    1
   100    49    48    1
   101    38    39    2
   102    69    68    2
   103    61    62    1
   104    61    60    1
   105   169   171   am
   106   169   170    2
   107   107   104    1
   108    66    57   am
   109    88    89    1
   110    88    87    1
   111    90    89    2
   112   101   100    1
   113   171   172    1
   114    77    76    2
   115    58    57    2
   116    60    59    1
   117   130   129    1
   118   120   118   ar
   119   120   122   ar
   120    57    56    1
   121    87    81   am
   122   118   117   ar
   123   104   103    1
   124   104   105    1
   125    59    56    1
   126   129   128    1
   127   122   121   ar
   128   176   175    1
   129   176   178    1
   130   103    98   am
   131   102   100    1
   132   100    97    1
   133   172   175    1
   134   172   173    1
   135    56    55    1
   136   175   177    1
   137   173   174    2
   138   128   127    1
   139    81    82    2
   140    81    80    1
   141   117   116    1
   142   117   119   ar
   143    98    97    1
   144    98    99    2
   145   105   106    2
   146   121   119   ar
   147    97    96    1
   148    83    80    1
   149    83    84    1
   150   116   113    1
   151   140   139    1
   152    79    80    1
   153    86    84    1
   154    84    85    1
   155   127   124    1
   156   123   124    1
   157   123   114   am
   158   139   141    1
   159   139   138    1
   160   113   114    1
   161   113   112    1
   162   124   125    1
   163   114   115    2
   164   138   135    1
   165   125   126    2
   166   135   134    1
   167   135   136    1
   168   136   137    2
