@<TRIPOS>MOLECULE
tmp/4i30A00.pdb
 96 95 0 0 0
SMALL
GASTEIGER

@<TRIPOS>ATOM
      1  N        -15.1470  -11.9780    6.4100 N.3    88  TRP88      -0.1241
      2  CA       -15.0130  -10.8040    5.5450 C.3    88  TRP88       0.1605
      3  C        -14.5110  -11.2690    4.2350 C.2    88  TRP88       0.2264
      4  O        -13.5930  -12.0820    4.1590 O.2    88  TRP88      -0.2867
      5  CB       -13.9540   -9.8460    6.0560 C.3    88  TRP88       0.0550
      6  CG       -14.4270   -9.0690    7.2100 C.ar   88  TRP88       0.0003
      7  CD1      -14.2970   -9.3920    8.5070 C.ar   88  TRP88       0.0946
      8  CD2      -15.1780   -7.8580    7.1650 C.ar   88  TRP88       0.0152
      9  NE1      -14.9010   -8.4590    9.2810 N.ar   88  TRP88      -0.2442
     10  CE2      -15.4330   -7.4810    8.4900 C.ar   88  TRP88       0.0810
     11  CE3      -15.6550   -7.0580    6.1380 C.ar   88  TRP88       0.0012
     12  CZ2      -16.1560   -6.3180    8.8110 C.ar   88  TRP88       0.0191
     13  CZ3      -16.3360   -5.9060    6.4490 C.ar   88  TRP88       0.0001
     14  CH2      -16.5820   -5.5330    7.7440 C.ar   88  TRP88       0.0015
     15  N        -25.5900   -7.0700    0.9530 N.3   113  SER113     -0.1202
     16  CA       -25.4580   -8.0030    2.0700 C.3   113  SER113      0.2020
     17  C        -25.9490   -7.3950    3.3190 C.2   113  SER113      0.2619
     18  O        -25.8530   -6.2740    3.5300 O.2   113  SER113     -0.2717
     19  CB       -24.0840   -8.4140    2.3300 C.3   113  SER113      0.2103
     20  OG       -23.2820   -7.3150    2.2760 O.3   113  SER113     -0.2182
     21  N        -26.5010   -8.2500    4.1270 N.am  114  LYS114     -0.1965
     22  CA       -27.1680   -7.7510    5.3120 C.3   114  LYS114      0.1728
     23  C        -26.8200   -8.7210    6.3920 C.2   114  LYS114      0.2616
     24  O        -26.7320   -9.9210    6.1740 O.2   114  LYS114     -0.2715
     25  CB       -28.6350   -7.6980    5.1680 C.3   114  LYS114      0.0311
     26  CG       -29.1010   -6.6590    4.1220 C.3   114  LYS114      0.0038
     27  CD       -30.4830   -6.3370    4.2740 C.3   114  LYS114      0.0206
     28  CE       -31.0870   -5.6730    3.0520 C.3   114  LYS114      0.1093
     29  NZ       -31.9340   -6.7240    2.3150 N.3   114  LYS114     -0.1314
     30  N        -26.4710   -8.1570    7.5050 N.am  115  LEU115     -0.1977
     31  CA       -26.4030   -9.0040    8.7150 C.3   115  LEU115      0.1596
     32  C        -27.5060   -8.5090    9.6380 C.2   115  LEU115      0.2287
     33  O        -27.4870   -7.3490   10.0000 O.2   115  LEU115     -0.2864
     34  CB       -25.0220   -8.8280    9.3350 C.3   115  LEU115      0.0297
     35  CG       -23.8390   -9.3250    8.5150 C.3   115  LEU115      0.0022
     36  CD1      -22.4940   -8.7050    9.0420 C.3   115  LEU115      0.0001
     37  CD2      -23.7470  -10.8500    8.2780 C.3   115  LEU115      0.0001
     38  N        -26.4010   -4.5490   10.0760 N.3   119  ASN119     -0.1225
     39  CA       -25.3830   -4.0660    9.1790 C.3   119  ASN119      0.1785
     40  C        -25.6960   -4.3830    7.7010 C.2   119  ASN119      0.2597
     41  O        -26.2550   -5.3560    7.3650 O.2   119  ASN119     -0.2718
     42  CB       -24.0400   -4.6290    9.5400 C.3   119  ASN119      0.1169
     43  CG       -23.5230   -4.0950   10.8660 C.2   119  ASN119      0.2627
     44  OD1      -24.2360   -3.4180   11.5690 O.2   119  ASN119     -0.2716
     45  ND2      -22.2940   -4.3680   11.1620 N.am  119  ASN119     -0.0877
     46  N        -25.3350   -3.4890    6.8470 N.am  120  ALA120     -0.1966
     47  CA       -25.6920   -3.7830    5.4910 C.3   120  ALA120      0.1728
     48  C        -24.7860   -2.9940    4.6130 C.2   120  ALA120      0.2616
     49  O        -24.2680   -1.9430    5.0230 O.2   120  ALA120     -0.2715
     50  CB       -27.1750   -3.4490    5.2200 C.3   120  ALA120      0.0334
     51  N        -24.5630   -3.5750    3.4630 N.am  121  LEU121     -0.1977
     52  CA       -23.8090   -2.9600    2.3390 C.3   121  LEU121      0.1596
     53  C        -24.6720   -3.1610    1.1290 C.2   121  LEU121      0.2287
     54  O        -25.0820   -4.2780    0.7920 O.2   121  LEU121     -0.2864
     55  CB       -22.5570   -3.7440    2.0950 C.3   121  LEU121      0.0297
     56  CG       -21.8110   -3.1690    0.8830 C.3   121  LEU121      0.0022
     57  CD1      -21.5570   -1.6700    1.0800 C.3   121  LEU121      0.0001
     58  CD2      -20.5470   -3.8710    0.6340 C.3   121  LEU121      0.0001
     59  N        -14.3750   -4.4320    1.5620 N.3   173  PRO173     -0.2102
     60  CA       -14.6060   -5.7530    2.0990 C.3   173  PRO173      0.1504
     61  C        -16.0640   -5.8290    2.5720 C.2   173  PRO173      0.2576
     62  O        -16.6520   -4.8380    3.0320 O.2   173  PRO173     -0.2718
     63  CB       -13.6490   -5.8170    3.3260 C.3   173  PRO173      0.0282
     64  CG       -12.6070   -4.7400    3.0040 C.3   173  PRO173      0.0208
     65  CD       -13.3870   -3.6540    2.3320 C.3   173  PRO173      0.0893
     66  N        -16.6580   -6.9850    2.4580 N.am  174  VAL174     -0.1966
     67  CA       -18.0160   -7.1160    2.8960 C.3   174  VAL174      0.1727
     68  C        -17.9660   -8.0360    4.1070 C.2   174  VAL174      0.2616
     69  O        -17.1610   -8.9730    4.1620 O.2   174  VAL174     -0.2715
     70  CB       -18.8290   -7.7750    1.7690 C.3   174  VAL174      0.0290
     71  CG1      -20.3490   -7.9510    2.1570 C.3   174  VAL174      0.0023
     72  CG2      -18.6160   -6.9340    0.4020 C.3   174  VAL174      0.0023
     73  N        -18.8600   -7.8280    5.0490 N.am  175  HIS175     -0.1959
     74  CA       -18.8560   -8.6760    6.1780 C.3   175  HIS175      0.1787
     75  C        -19.9650   -9.6780    5.9700 C.2   175  HIS175      0.2620
     76  O        -21.0970   -9.3610    6.2470 O.2   175  HIS175     -0.2715
     77  CB       -19.1050   -7.7940    7.3770 C.3   175  HIS175      0.0785
     78  CG       -18.8490   -8.4430    8.6970 C.ar  175  HIS175      0.0821
     79  ND1      -18.8270   -7.7260    9.8710 N.ar  175  HIS175     -0.2267
     80  CD2      -18.6330   -9.7210    9.0450 C.ar  175  HIS175      0.1154
     81  CE1      -18.6530   -8.5350   10.8900 C.ar  175  HIS175      0.1986
     82  NE2      -18.5550   -9.7540   10.4220 N.ar  175  HIS175     -0.2212
     83  N        -19.6150  -10.8540    5.4220 N.am  176  ILE176     -0.1977
     84  CA       -20.6000  -11.7150    4.7760 C.3   176  ILE176      0.1596
     85  C        -21.3060  -12.5550    5.7750 C.2   176  ILE176      0.2287
     86  O        -22.3780  -13.0910    5.5070 O.2   176  ILE176     -0.2864
     87  CB       -19.9870  -12.5610    3.6150 C.3   176  ILE176      0.0276
     88  CG1      -21.0370  -12.9080    2.5700 C.3   176  ILE176      0.0022
     89  CG2      -19.2260  -13.8010    4.1190 C.3   176  ILE176      0.0022
     90  CD1      -21.3650  -11.6460    1.6980 C.3   176  ILE176      0.0001
     91  N        -27.6270  -12.4110    4.7410 N.3   185  SER185     -0.1217
     92  CA       -28.2010  -12.7100    3.4560 C.3   185  SER185      0.1889
     93  C        -27.3100  -11.9160    2.4760 C.2   185  SER185      0.2288
     94  O        -26.7050  -10.8740    2.8100 O.2   185  SER185     -0.2866
     95  CB       -29.6510  -12.2100    3.3870 C.3   185  SER185      0.2089
     96  OG       -29.6170  -10.7960    3.5060 O.3   185  SER185     -0.2183
@<TRIPOS>BOND
     1    72    70    1
     2    58    56    1
     3    54    53    2
     4    56    57    1
     5    56    55    1
     6    15    16    1
     7    53    52    1
     8    59    60    1
     9    59    65    1
    10    90    88    1
    11    70    71    1
    12    70    67    1
    13    16    19    1
    14    16    17    1
    15    55    52    1
    16    60    61    1
    17    60    63    1
    18    20    19    1
    19    29    28    1
    20    65    64    1
    21    52    51    1
    22    66    61   am
    23    66    67    1
    24    93    94    2
    25    93    92    1
    26    88    87    1
    27    61    62    2
    28    67    68    1
    29    64    63    1
    30    28    27    1
    31    17    18    2
    32    17    21   am
    33    95    92    1
    34    95    96    1
    35    92    91    1
    36    51    48   am
    37    87    89    1
    38    87    84    1
    39    68    69    2
    40    68    73   am
    41    26    27    1
    42    26    25    1
    43    21    22    1
    44     4     3    2
    45     3     2    1
    46    48    49    2
    47    48    47    1
    48    84    83    1
    49    84    85    1
    50    73    74    1
    51    25    22    1
    52    50    47    1
    53    22    23    1
    54    83    75   am
    55    47    46    1
    56    86    85    2
    57     2     5    1
    58     2     1    1
    59    75    74    1
    60    75    76    2
    61     5     6    1
    62    11    13   ar
    63    11     8   ar
    64    24    23    2
    65    74    77    1
    66    23    30   am
    67    13    14   ar
    68    46    40   am
    69     8     6   ar
    70     8    10   ar
    71     6     7   ar
    72    41    40    2
    73    77    78    1
    74    30    31    1
    75    40    39    1
    76    14    12   ar
    77    37    35    1
    78    10    12   ar
    79    10     9   ar
    80     7     9   ar
    81    35    36    1
    82    35    34    1
    83    78    80   ar
    84    78    79   ar
    85    31    34    1
    86    31    32    1
    87    80    82   ar
    88    39    42    1
    89    39    38    1
    90    42    43    1
    91    32    33    2
    92    79    81   ar
    93    82    81   ar
    94    43    45   am
    95    43    44    2
