@<TRIPOS>MOLECULE
tmp/4i31B01.pdb
 173 167 0 0 0
SMALL
GASTEIGER

@<TRIPOS>ATOM
      1  N         42.7580   60.7780    6.3720 N.3    41  GLN41      -0.1231
      2  CA        43.4450   59.4870    6.5460 C.3    41  GLN41       0.1698
      3  C         44.8120   59.3850    5.8780 C.2    41  GLN41       0.2593
      4  O         45.0800   60.0610    4.8870 O.2    41  GLN41      -0.2718
      5  CB        42.5800   58.3710    5.9670 C.3    41  GLN41       0.0381
      6  CG        41.2100   58.2350    6.5950 C.3    41  GLN41       0.0905
      7  CD        40.4390   57.0490    6.0420 C.2    41  GLN41       0.2608
      8  OE1       40.0480   56.1530    6.7890 O.2    41  GLN41      -0.2717
      9  NE2       40.2220   57.0340    4.7220 N.am   41  GLN41      -0.0878
     10  N         45.6530   58.4910    6.4000 N.am   42  SER42      -0.1938
     11  CA        46.9380   58.1950    5.7810 C.3    42  SER42       0.2055
     12  C         47.0980   56.6820    5.5670 C.2    42  SER42       0.2643
     13  O         46.6250   55.8710    6.3600 O.2    42  SER42      -0.2714
     14  CB        48.0920   58.7450    6.6260 C.3    42  SER42       0.2130
     15  OG        49.3130   58.7310    5.8940 O.3    42  SER42      -0.2179
     16  N         47.7600   56.3210    4.4790 N.am   43  PHE43      -0.1973
     17  CA        47.8750   54.9300    4.0610 C.3    43  PHE43       0.1639
     18  C         48.9530   54.8980    2.9920 C.2    43  PHE43       0.2290
     19  O         49.6640   55.8910    2.7950 O.2    43  PHE43      -0.2864
     20  CB        46.5230   54.3810    3.5580 C.3    43  PHE43       0.0560
     21  CG        45.8110   55.2890    2.5850 C.ar   43  PHE43      -0.0200
     22  CD1       45.0530   56.3590    3.0440 C.ar   43  PHE43      -0.0042
     23  CD2       45.8840   55.0630    1.2150 C.ar   43  PHE43      -0.0042
     24  CE1       44.4020   57.2050    2.1490 C.ar   43  PHE43      -0.0003
     25  CE2       45.2340   55.8980    0.3210 C.ar   43  PHE43      -0.0003
     26  CZ        44.4960   56.9750    0.7920 C.ar   43  PHE43      -0.0000
     27  N         40.5800   50.9960   -1.5760 N.3    56  TYR56      -0.1227
     28  CA        39.4110   51.8680   -1.7190 C.3    56  TYR56       0.1736
     29  C         39.0240   52.4710   -0.3750 C.2    56  TYR56       0.2595
     30  O         38.6320   53.6400   -0.2690 O.2    56  TYR56      -0.2718
     31  CB        38.2240   51.1060   -2.3420 C.3    56  TYR56       0.0548
     32  CG        37.0820   52.0370   -2.6930 C.ar   56  TYR56      -0.0200
     33  CD1       37.0250   52.6530   -3.9390 C.ar   56  TYR56      -0.0009
     34  CD2       36.0890   52.3350   -1.7630 C.ar   56  TYR56      -0.0009
     35  CE1       35.9860   53.5380   -4.2590 C.ar   56  TYR56       0.0417
     36  CE2       35.0570   53.2110   -2.0740 C.ar   56  TYR56       0.0417
     37  CZ        35.0090   53.8130   -3.3230 C.ar   56  TYR56       0.1957
     38  OH        33.9810   54.6920   -3.6330 O.3    56  TYR56      -0.2866
     39  N         39.1400   51.6890    0.6800 N.am   57  HIS57      -0.1961
     40  CA        38.7480   52.2130    1.9720 C.3    57  HIS57       0.1787
     41  C         39.6470   53.3720    2.4170 C.2    57  HIS57       0.2620
     42  O         39.3030   54.0950    3.3410 O.2    57  HIS57      -0.2715
     43  CB        38.6130   51.1020    3.0210 C.3    57  HIS57       0.0785
     44  CG        39.9070   50.6480    3.6090 C.ar   57  HIS57       0.0821
     45  ND1       40.5350   49.4770    3.2230 N.ar   57  HIS57      -0.2267
     46  CD2       40.6770   51.1830    4.5890 C.ar   57  HIS57       0.1154
     47  CE1       41.6440   49.3270    3.9250 C.ar   57  HIS57       0.1986
     48  NE2       41.7540   50.3450    4.7610 N.ar   57  HIS57      -0.2212
     49  N         40.8280   53.4980    1.8140 N.am   58  GLY58      -0.1954
     50  CA        41.6240   54.7080    1.9430 C.3    58  GLY58       0.1869
     51  C         41.3540   55.8610    0.9820 C.2    58  GLY58       0.2309
     52  O         41.1000   56.9940    1.3980 O.2    58  GLY58      -0.2863
     53  N         35.3710   48.3420   -5.9060 N.3    78  VAL78      -0.1231
     54  CA        34.9580   48.6740   -4.5530 C.3    78  VAL78       0.1692
     55  C         34.9110   47.4110   -3.7090 C.2    78  VAL78       0.2592
     56  O         35.3930   47.3890   -2.5770 O.2    78  VAL78      -0.2718
     57  CB        33.5760   49.3580   -4.5360 C.3    78  VAL78       0.0266
     58  CG1       33.0650   49.5160   -3.1000 C.3    78  VAL78       0.0020
     59  CG2       33.6430   50.7090   -5.2430 C.3    78  VAL78       0.0020
     60  N         34.3440   46.3490   -4.2710 N.am   79  ASP79      -0.1974
     61  CA        34.1100   45.1480   -3.4800 C.3    79  ASP79       0.1709
     62  C         35.4130   44.4380   -3.1690 C.2    79  ASP79       0.2293
     63  O         35.5420   43.7500   -2.1590 O.2    79  ASP79      -0.2864
     64  CB        33.0990   44.2370   -4.1710 C.3    79  ASP79       0.1436
     65  CG        31.7210   44.8710   -4.2380 C.2    79  ASP79       0.3671
     66  OD1       31.4370   45.7300   -3.3710 O.co2  79  ASP79      -0.2456
     67  OD2       30.9310   44.5240   -5.1420 O.co2  79  ASP79      -0.2456
     68  N         38.0720   46.2620   -2.7180 N.3    81  ASP81      -0.1239
     69  CA        38.7790   47.2960   -1.9580 C.3    81  ASP81       0.1674
     70  C         40.0850   47.6800   -2.6570 C.2    81  ASP81       0.2266
     71  O         41.1020   47.8930   -2.0080 O.2    81  ASP81      -0.2867
     72  CB        39.0730   46.8010   -0.5370 C.3    81  ASP81       0.1410
     73  CG        39.4470   47.9180    0.4100 C.2    81  ASP81       0.3668
     74  OD1       39.1070   49.0910    0.1310 O.co2  81  ASP81      -0.2456
     75  OD2       40.0650   47.6150    1.4520 O.co2  81  ASP81      -0.2456
     76  N         45.5770   35.5230    2.4990 N.3   123  ARG123     -0.1245
     77  CA        45.7820   35.5630    3.9460 C.3   123  ARG123      0.1563
     78  C         47.2030   35.1840    4.3320 C.2   123  ARG123      0.2260
     79  O         47.8520   34.3790    3.6610 O.2   123  ARG123     -0.2867
     80  CB        44.8190   34.6070    4.6660 C.3   123  ARG123      0.0307
     81  CG        43.4150   35.1310    4.9040 C.3   123  ARG123      0.0489
     82  CD        43.2990   35.8890    6.2300 C.3   123  ARG123      0.2205
     83  NE        42.0580   36.6670    6.2940 N.pl3 123  ARG123     -0.0865
     84  CZ        41.0590   36.4260    7.1380 C.cat 123  ARG123      0.5346
     85  NH1       41.1410   35.4290    8.0110 N.pl3 123  ARG123      0.1354
     86  NH2       39.9740   37.1870    7.1110 N.pl3 123  ARG123      0.1354
     87  N         48.1530   46.0770   16.9780 N.3   132  VAL132     -0.1245
     88  CA        47.4690   46.4870   15.7660 C.3   132  VAL132      0.1561
     89  C         47.8450   47.9380   15.4210 C.2   132  VAL132      0.2260
     90  O         47.7730   48.3500   14.2710 O.2   132  VAL132     -0.2867
     91  CB        45.9360   46.3150   15.9080 C.3   132  VAL132      0.0252
     92  CG1       45.3260   47.5400   16.5500 C.3   132  VAL132      0.0019
     93  CG2       45.3120   46.0350   14.5580 C.3   132  VAL132      0.0019
     94  N         50.4440   48.3930   12.7080 N.3   135  LEU135     -0.1231
     95  CA        49.9520   48.1910   11.3330 C.3   135  LEU135      0.1693
     96  C         49.0120   49.2580   10.7630 C.2   135  LEU135      0.2592
     97  O         48.8870   49.3830    9.5490 O.2   135  LEU135     -0.2718
     98  CB        49.2400   46.8380   11.2290 C.3   135  LEU135      0.0284
     99  CG        50.0230   45.5710   11.5870 C.3   135  LEU135      0.0019
    100  CD1       49.1350   44.3350   11.5360 C.3   135  LEU135      0.0001
    101  CD2       51.2170   45.3950   10.6800 C.3   135  LEU135      0.0001
    102  N         48.3680   50.0350   11.6310 N.am  136  LYS136     -0.1966
    103  CA        47.3870   51.0250   11.2000 C.3   136  LYS136      0.1728
    104  C         48.0470   52.0980   10.3150 C.2   136  LYS136      0.2616
    105  O         49.1270   52.5860   10.6250 O.2   136  LYS136     -0.2715
    106  CB        46.7050   51.6450   12.4350 C.3   136  LYS136      0.0311
    107  CG        45.4680   52.4810   12.1610 C.3   136  LYS136      0.0038
    108  CD        44.1940   51.6420   12.0890 C.3   136  LYS136      0.0206
    109  CE        43.8030   51.3450   10.6360 C.3   136  LYS136      0.1093
    110  NZ        42.3770   51.0000   10.4560 N.3   136  LYS136     -0.1314
    111  N         47.4160   52.4330    9.1870 N.am  137  GLY137     -0.1955
    112  CA        48.0050   53.3750    8.2440 C.3   137  GLY137      0.1869
    113  C         48.9100   52.7200    7.1980 C.2   137  GLY137      0.2309
    114  O         49.5180   53.3890    6.3520 O.2   137  GLY137     -0.2863
    115  N         47.7370   50.0580    5.2150 N.3   139  SER139     -0.1217
    116  CA        46.9400   49.4760    4.1350 C.3   139  SER139      0.1889
    117  C         47.4770   50.0230    2.8110 C.2   139  SER139      0.2288
    118  O         47.9340   51.1720    2.7430 O.2   139  SER139     -0.2866
    119  CB        45.4470   49.7760    4.3100 C.3   139  SER139      0.2089
    120  OG        45.1810   51.1710    4.1630 O.3   139  SER139     -0.2183
    121  N         48.5050   45.0460    1.3030 N.3   154  PHE154     -0.1227
    122  CA        47.8810   44.9190    2.6130 C.3   154  PHE154      0.1736
    123  C         46.4970   45.5510    2.6210 C.2   154  PHE154      0.2595
    124  O         46.3420   46.7330    2.3120 O.2   154  PHE154     -0.2718
    125  CB        48.7930   45.5940    3.6340 C.3   154  PHE154      0.0547
    126  CG        48.3310   45.4780    5.0580 C.ar  154  PHE154     -0.0202
    127  CD1       47.5630   44.4110    5.4800 C.ar  154  PHE154     -0.0042
    128  CD2       48.6790   46.4580    5.9740 C.ar  154  PHE154     -0.0042
    129  CE1       47.1560   44.3200    6.7980 C.ar  154  PHE154     -0.0003
    130  CE2       48.2870   46.3770    7.2840 C.ar  154  PHE154     -0.0003
    131  CZ        47.5110   45.3040    7.7010 C.ar  154  PHE154     -0.0000
    132  N         45.4940   44.7690    3.0070 N.am  155  ARG155     -0.1966
    133  CA        44.1100   45.2350    3.0080 C.3   155  ARG155      0.1729
    134  C         43.5360   45.4060    4.4140 C.2   155  ARG155      0.2616
    135  O         42.9690   46.4430    4.7490 O.2   155  ARG155     -0.2715
    136  CB        43.2150   44.3330    2.1590 C.3   155  ARG155      0.0348
    137  CG        41.7340   44.6940    2.2300 C.3   155  ARG155      0.0492
    138  CD        40.9320   44.0170    1.1130 C.3   155  ARG155      0.2205
    139  NE        41.1880   42.5850    1.0630 N.pl3 155  ARG155     -0.0865
    140  CZ        40.7950   41.7710    0.0830 C.cat 155  ARG155      0.5346
    141  NH1       40.1020   42.2290   -0.9620 N.pl3 155  ARG155      0.1354
    142  NH2       41.0990   40.4860    0.1540 N.pl3 155  ARG155      0.1354
    143  N         43.5750   44.3350    5.1930 N.am  156  ALA156     -0.1963
    144  CA        42.9210   44.3180    6.4890 C.3   156  ALA156      0.1728
    145  C         43.7220   43.4740    7.4820 C.2   156  ALA156      0.2616
    146  O         44.4490   42.5780    7.0790 O.2   156  ALA156     -0.2715
    147  CB        41.5110   43.7740    6.3350 C.3   156  ALA156      0.0334
    148  N         43.6060   43.7940    8.7690 N.am  157  ALA157     -0.1963
    149  CA        44.3130   43.0720    9.8170 C.3   157  ALA157      0.1728
    150  C         43.3360   42.2050   10.5960 C.2   157  ALA157      0.2616
    151  O         42.2030   42.6110   10.8620 O.2   157  ALA157     -0.2715
    152  CB        45.0010   44.0470   10.7610 C.3   157  ALA157      0.0334
    153  N         43.7790   41.0030   10.9430 N.am  158  VAL158     -0.1963
    154  CA        43.0450   40.1450   11.8580 C.3   158  VAL158      0.1727
    155  C         43.6420   40.3580   13.2540 C.2   158  VAL158      0.2616
    156  O         44.8290   40.0690   13.4990 O.2   158  VAL158     -0.2715
    157  CB        43.1620   38.6510   11.4570 C.3   158  VAL158      0.0290
    158  CG1       42.2060   37.8030   12.2960 C.3   158  VAL158      0.0023
    159  CG2       42.8740   38.4720    9.9710 C.3   158  VAL158      0.0023
    160  N         42.8350   40.8840   14.1650 N.am  159  CYS159     -0.1968
    161  CA        43.3420   41.2340   15.4810 C.3   159  CYS159      0.1712
    162  C         42.3680   40.9020   16.6030 C.2   159  CYS159      0.2296
    163  O         41.1560   40.8250   16.4040 O.2   159  CYS159     -0.2864
    164  CB        43.6920   42.7190   15.5270 C.3   159  CYS159      0.0983
    165  SG        42.3210   43.7720   15.0020 S.3   159  CYS159     -0.0798
    166  N         45.2000   40.2790    5.8830 N.3   168  ASP168     -0.1239
    167  CA        44.4210   39.9370    4.7220 C.3   168  ASP168      0.1674
    168  C         44.9690   40.8260    3.6250 C.2   168  ASP168      0.2266
    169  O         45.1660   42.0200    3.8480 O.2   168  ASP168     -0.2867
    170  CB        42.9560   40.2470    5.0180 C.3   168  ASP168      0.1410
    171  CG        42.0510   39.9220    3.8650 C.2   168  ASP168      0.3668
    172  OD1       41.2860   38.9300    3.9640 O.co2 168  ASP168     -0.2456
    173  OD2       42.1130   40.6560    2.8550 O.co2 168  ASP168     -0.2456
@<TRIPOS>BOND
     1    53    54    1
     2    59    57    1
     3    67    65   ar
     4    54    57    1
     5    54    55    1
     6    57    58    1
     7    60    55   am
     8    60    61    1
     9    35    33   ar
    10    35    37   ar
    11    65    64    1
    12    65    66   ar
    13    64    61    1
    14    33    32   ar
    15    55    56    2
    16    38    37    1
    17    61    62    1
    18    37    36   ar
    19    62    63    2
    20    68    69    1
    21    32    31    1
    22    32    34   ar
    23    70    71    2
    24    70    69    1
    25    31    28    1
    26    36    34   ar
    27    69    72    1
    28    28    27    1
    29    28    29    1
    30   141   140    1
    31    72    73    1
    32    29    30    2
    33    29    39   am
    34   140   142    1
    35   140   139    2
    36    74    73   ar
    37    25    26   ar
    38    25    23   ar
    39    73    75   ar
    40    39    40    1
    41    26    24   ar
    42    51    52    2
    43    51    50    1
    44   139   138    1
    45   138   137    1
    46    23    21   ar
    47   121   122    1
    48    49    50    1
    49    49    41   am
    50    40    41    1
    51    40    43    1
    52    24    22   ar
    53   136   137    1
    54   136   133    1
    55   124   123    2
    56    41    42    2
    57    76    77    1
    58    21    22   ar
    59    21    20    1
    60   122   123    1
    61   122   125    1
    62   123   132   am
    63   118   117    2
    64    19    18    2
    65   117   116    1
    66   173   171   ar
    67    18    17    1
    68   132   133    1
    69   133   134    1
    70    43    44    1
    71    45    44   ar
    72    45    47   ar
    73    20    17    1
    74    44    46   ar
    75   168   169    2
    76   168   167    1
    77   125   126    1
    78    79    78    2
    79   171   172   ar
    80   171   170    1
    81    47    48   ar
    82    77    78    1
    83    77    80    1
    84    17    16    1
    85   116   119    1
    86   116   115    1
    87   120   119    1
    88   134   135    2
    89   134   143   am
    90    16    12   am
    91    46    48   ar
    92    80    81    1
    93   167   170    1
    94   167   166    1
    95     9     7   am
    96     4     3    2
    97    81    82    1
    98   126   127   ar
    99   126   128   ar
   100   143   144    1
   101   127   129   ar
   102    12    11    1
   103    12    13    2
   104    11    10    1
   105    11    14    1
   106     3    10   am
   107     3     2    1
   108    15    14    1
   109     5     2    1
   110     5     6    1
   111   128   130   ar
   112     7     6    1
   113     7     8    2
   114    82    83    1
   115    83    84    2
   116   147   144    1
   117   114   113    2
   118     1     2    1
   119   144   145    1
   120   129   131   ar
   121   146   145    2
   122    86    84    1
   123    84    85    1
   124   113   112    1
   125   130   131   ar
   126   145   148   am
   127   112   111    1
   128   148   149    1
   129   111   104   am
   130    97    96    2
   131   149   150    1
   132   149   152    1
   133   159   157    1
   134   104   105    2
   135   104   103    1
   136   110   109    1
   137   150   151    2
   138   150   153   am
   139   109   108    1
   140   101    99    1
   141    96    95    1
   142    96   102   am
   143   153   154    1
   144   103   102    1
   145   103   106    1
   146    98    95    1
   147    98    99    1
   148    95    94    1
   149   157   154    1
   150   157   158    1
   151   100    99    1
   152   154   155    1
   153   108   107    1
   154   107   106    1
   155   155   156    2
   156   155   160   am
   157   160   161    1
   158    90    89    2
   159    93    91    1
   160   165   164    1
   161    89    88    1
   162   161   164    1
   163   161   162    1
   164    88    91    1
   165    88    87    1
   166    91    92    1
   167   163   162    2
