@<TRIPOS>MOLECULE
tmp/4i3gB00.pdb
 140 131 0 0 0
SMALL
GASTEIGER

@<TRIPOS>ATOM
      1  N        -26.0670   19.0210  -34.8300 N.3    32  VAL32      -0.1245
      2  CA       -26.0290   20.4430  -34.5600 C.3    32  VAL32       0.1561
      3  C        -25.3690   21.2720  -35.6440 C.2    32  VAL32       0.2260
      4  O        -25.8900   22.3160  -36.0540 O.2    32  VAL32      -0.2867
      5  CB       -25.3660   20.7240  -33.1760 C.3    32  VAL32       0.0252
      6  CG1      -25.2770   22.2510  -32.9560 C.3    32  VAL32       0.0019
      7  CG2      -26.2100   20.1150  -32.0870 C.3    32  VAL32       0.0019
      8  N        -24.6210   17.0580  -30.2230 N.3    50  ASP50      -0.1239
      9  CA       -24.7620   16.8460  -28.7900 C.3    50  ASP50       0.1674
     10  C        -24.6400   15.3570  -28.4860 C.2    50  ASP50       0.2266
     11  O        -24.7870   14.5280  -29.3980 O.2    50  ASP50      -0.2867
     12  CB       -26.1500   17.3430  -28.3590 C.3    50  ASP50       0.1410
     13  CG       -26.2220   18.8540  -28.4170 C.2    50  ASP50       0.3668
     14  OD1      -25.2660   19.5390  -27.9800 O.co2  50  ASP50      -0.2456
     15  OD2      -27.2260   19.4250  -28.8930 O.co2  50  ASP50      -0.2456
     16  N        -26.6330   12.5020  -29.7620 N.3    56  ARG56      -0.1245
     17  CA       -28.0080   12.8010  -30.1140 C.3    56  ARG56       0.1563
     18  C        -28.0680   13.1860  -31.5900 C.2    56  ARG56       0.2260
     19  O        -27.4910   14.1660  -32.0300 O.2    56  ARG56      -0.2867
     20  CB       -28.5410   13.9470  -29.2550 C.3    56  ARG56       0.0307
     21  CG       -30.0320   14.2600  -29.5560 C.3    56  ARG56       0.0489
     22  CD       -30.5840   15.4680  -28.7450 C.3    56  ARG56       0.2205
     23  NE       -29.8900   16.7120  -29.1050 N.pl3  56  ARG56      -0.0865
     24  CZ       -30.0500   17.3420  -30.2470 C.cat  56  ARG56       0.5346
     25  NH1      -30.9880   16.8990  -31.1000 N.pl3  56  ARG56       0.1354
     26  NH2      -29.3550   18.4350  -30.5200 N.pl3  56  ARG56       0.1354
     27  N        -20.4970   17.6550  -28.5010 N.3   100  LEU100     -0.1245
     28  CA       -20.6090   18.9430  -27.8030 C.3   100  LEU100      0.1561
     29  C        -20.7930   18.6660  -26.3120 C.2   100  LEU100      0.2260
     30  O        -21.8610   18.7740  -25.7300 O.2   100  LEU100     -0.2867
     31  CB       -21.7360   19.8030  -28.4070 C.3   100  LEU100      0.0270
     32  CG       -21.5510   20.1300  -29.8740 C.3   100  LEU100      0.0019
     33  CD1      -22.8760   20.7430  -30.3190 C.3   100  LEU100      0.0001
     34  CD2      -20.3780   21.0480  -30.1780 C.3   100  LEU100      0.0001
     35  N        -30.1300   22.1680  -15.6080 N.3   114  ARG114     -0.1245
     36  CA       -29.1580   21.2510  -16.2220 C.3   114  ARG114      0.1563
     37  C        -28.2020   20.6780  -15.1690 C.2   114  ARG114      0.2260
     38  O        -27.1260   20.1700  -15.5060 O.2   114  ARG114     -0.2867
     39  CB       -28.3720   21.9770  -17.3150 C.3   114  ARG114      0.0307
     40  CG       -29.2930   22.3900  -18.4720 C.3   114  ARG114      0.0489
     41  CD       -28.5050   23.1370  -19.5340 C.3   114  ARG114      0.2205
     42  NE       -27.8440   22.2460  -20.4930 N.pl3 114  ARG114     -0.0865
     43  CZ       -27.3700   22.6710  -21.6480 C.cat 114  ARG114      0.5346
     44  NH1      -27.3960   23.9820  -21.9170 N.pl3 114  ARG114      0.1354
     45  NH2      -26.8650   21.7610  -22.4820 N.pl3 114  ARG114      0.1354
     46  N        -17.8980   22.6900  -21.9980 N.3   147  LYS147     -0.1231
     47  CA       -18.9580   23.7360  -22.0130 C.3   147  LYS147      0.1693
     48  C        -19.5070   23.8880  -20.6060 C.2   147  LYS147      0.2592
     49  O        -19.3780   22.9800  -19.7970 O.2   147  LYS147     -0.2718
     50  CB       -20.0640   23.3790  -23.0380 C.3   147  LYS147      0.0285
     51  CG       -20.9640   22.1700  -22.7540 C.3   147  LYS147      0.0035
     52  CD       -21.8710   21.8630  -23.9710 C.3   147  LYS147      0.0206
     53  CE       -23.0120   20.9190  -23.6010 C.3   147  LYS147      0.1093
     54  NZ       -23.7910   20.5750  -24.8690 N.3   147  LYS147     -0.1314
     55  N        -20.1340   25.0270  -20.2950 N.am  148  HIS148     -0.1976
     56  CA       -20.2390   26.2510  -21.0920 C.3   148  HIS148      0.1656
     57  C        -19.4100   27.3260  -20.3780 C.2   148  HIS148      0.2291
     58  O        -19.6590   27.6830  -19.2090 O.2   148  HIS148     -0.2864
     59  CB       -21.7130   26.6880  -21.1010 C.3   148  HIS148      0.0771
     60  CG       -22.6560   25.6030  -21.5400 C.ar  148  HIS148      0.0820
     61  ND1      -23.2460   24.7190  -20.6570 N.ar  148  HIS148     -0.2267
     62  CD2      -23.1670   25.2940  -22.7660 C.ar  148  HIS148      0.1154
     63  CE1      -24.0380   23.8890  -21.3200 C.ar  148  HIS148      0.1986
     64  NE2      -24.0110   24.2270  -22.5980 N.ar  148  HIS148     -0.2212
     65  N        -30.9320   32.6220  -18.8440 N.3   158  ARG158     -0.1245
     66  CA       -29.5640   32.4600  -19.3340 C.3   158  ARG158      0.1563
     67  C        -29.1790   33.3250  -20.5220 C.2   158  ARG158      0.2260
     68  O        -28.0230   33.7260  -20.6900 O.2   158  ARG158     -0.2867
     69  CB       -29.2180   30.9970  -19.5930 C.3   158  ARG158      0.0307
     70  CG       -30.0070   30.3980  -20.7220 C.3   158  ARG158      0.0489
     71  CD       -29.7420   28.8970  -20.8330 C.3   158  ARG158      0.2205
     72  NE       -30.6000   28.3690  -21.9020 N.pl3 158  ARG158     -0.0865
     73  CZ       -30.2420   27.3870  -22.7220 C.cat 158  ARG158      0.5346
     74  NH1      -29.1050   26.7190  -22.5540 N.pl3 158  ARG158      0.1354
     75  NH2      -31.0880   27.0160  -23.6810 N.pl3 158  ARG158      0.1354
     76  N        -16.9130   25.6690  -25.6200 N.3   190  MET190     -0.1245
     77  CA       -18.1380   26.4000  -26.0160 C.3   190  MET190      0.1570
     78  C        -18.3230   27.5070  -24.9750 C.2   190  MET190      0.2261
     79  O        -18.3990   27.1560  -23.7860 O.2   190  MET190     -0.2867
     80  CB       -19.3430   25.4690  -26.0370 C.3   190  MET190      0.0387
     81  CG       -20.5930   26.2160  -26.5620 C.3   190  MET190      0.0595
     82  SD       -22.0820   25.1930  -26.4120 S.3   190  MET190     -0.1393
     83  CE       -21.5600   23.7290  -27.2910 C.3   190  MET190      0.0692
     84  N        -24.0280   31.2940  -22.7540 N.3   193  TYR193     -0.1241
     85  CA       -25.0660   32.2930  -22.9890 C.3   193  TYR193      0.1605
     86  C        -24.9330   33.4930  -22.0630 C.2   193  TYR193      0.2264
     87  O        -25.2070   34.6210  -22.4690 O.2   193  TYR193     -0.2867
     88  CB       -26.4540   31.6860  -22.7650 C.3   193  TYR193      0.0534
     89  CG       -26.9950   30.9150  -23.9610 C.ar  193  TYR193     -0.0201
     90  CD1      -27.2290   31.5890  -25.1410 C.ar  193  TYR193     -0.0009
     91  CD2      -27.2920   29.5770  -23.8720 C.ar  193  TYR193     -0.0009
     92  CE1      -27.7350   30.9200  -26.2440 C.ar  193  TYR193      0.0417
     93  CE2      -27.8290   28.8580  -24.9470 C.ar  193  TYR193      0.0417
     94  CZ       -28.0140   29.5670  -26.1210 C.ar  193  TYR193      0.1957
     95  OH       -28.5350   28.8720  -27.1830 O.3   193  TYR193     -0.2866
     96  N        -22.2540   29.2340  -27.9350 N.3   225  ASP225     -0.1225
     97  CA       -23.5380   28.5470  -27.8010 C.3   225  ASP225      0.1805
     98  C        -24.5040   29.0340  -28.9090 C.2   225  ASP225      0.2597
     99  O        -24.1810   29.9470  -29.6730 O.2   225  ASP225     -0.2718
    100  CB       -24.0500   28.6220  -26.3560 C.3   225  ASP225      0.1424
    101  CG       -24.9050   27.4180  -26.0060 C.2   225  ASP225      0.3668
    102  OD1      -25.0260   27.0980  -24.8170 O.co2 225  ASP225     -0.2456
    103  OD2      -25.4430   26.7190  -26.9020 O.co2 225  ASP225     -0.2456
    104  N        -25.6540   28.3720  -28.9940 N.am  226  TRP226     -0.1976
    105  CA       -26.5150   28.5230  -30.1880 C.3   226  TRP226      0.1640
    106  C        -27.1650   29.9060  -30.2100 C.2   226  TRP226      0.2290
    107  O        -27.9770   30.2450  -29.3290 O.2   226  TRP226     -0.2864
    108  CB       -27.5910   27.4370  -30.1160 C.3   226  TRP226      0.0576
    109  CG       -28.5210   27.4930  -31.3280 C.ar  226  TRP226      0.0006
    110  CD1      -29.6430   28.2830  -31.4730 C.ar  226  TRP226      0.0946
    111  CD2      -28.3610   26.7810  -32.5470 C.ar  226  TRP226      0.0152
    112  NE1      -30.1770   28.0970  -32.7410 N.ar  226  TRP226     -0.2442
    113  CE2      -29.4540   27.1290  -33.3840 C.ar  226  TRP226      0.0810
    114  CE3      -27.4440   25.8080  -32.9840 C.ar  226  TRP226      0.0012
    115  CZ2      -29.5890   26.6160  -34.6820 C.ar  226  TRP226      0.0191
    116  CZ3      -27.5850   25.2860  -34.2900 C.ar  226  TRP226      0.0001
    117  CH2      -28.6650   25.7100  -35.1150 C.ar  226  TRP226      0.0015
    118  N        -21.9880   29.5460  -33.6180 N.3   243  MET243     -0.1245
    119  CA       -23.0090   28.4860  -33.7160 C.3   243  MET243      0.1570
    120  C        -24.4010   29.0670  -33.7310 C.2   243  MET243      0.2261
    121  O        -24.7170   29.9780  -32.9660 O.2   243  MET243     -0.2867
    122  CB       -22.9390   27.5240  -32.5070 C.3   243  MET243      0.0387
    123  CG       -23.8080   26.2660  -32.6340 C.3   243  MET243      0.0595
    124  SD       -24.2700   25.5110  -31.0830 S.3   243  MET243     -0.1393
    125  CE       -22.6480   24.9430  -30.5480 C.3   243  MET243      0.0692
    126  N        -31.0980   19.4020  -25.0230 N.3   362  SER362     -0.1217
    127  CA       -30.1470   18.9650  -26.0330 C.3   362  SER362      0.1889
    128  C        -29.3430   17.7110  -25.6660 C.2   362  SER362      0.2288
    129  O        -28.8270   17.0790  -26.5990 O.2   362  SER362     -0.2866
    130  CB       -29.2390   20.1310  -26.4130 C.3   362  SER362      0.2089
    131  OG       -28.4620   20.4890  -25.2850 O.3   362  SER362     -0.2183
    132  N        -33.0070   21.5380  -19.9640 N.3   530  GLU530     -0.1245
    133  CA       -32.3700   22.7210  -20.4880 C.3   530  GLU530      0.1567
    134  C        -33.4490   23.7910  -20.7020 C.2   530  GLU530      0.2260
    135  O        -34.5740   23.4770  -21.1460 O.2   530  GLU530     -0.2867
    136  CB       -31.7330   22.3280  -21.8120 C.3   530  GLU530      0.0388
    137  CG       -31.1330   23.5500  -22.5110 C.3   530  GLU530      0.1160
    138  CD       -30.5950   23.2290  -23.8710 C.2   530  GLU530      0.3649
    139  OE1      -30.2290   22.0500  -24.0800 O.co2 530  GLU530     -0.2457
    140  OE2      -30.4460   24.1990  -24.6350 O.co2 530  GLU530     -0.2457
@<TRIPOS>BOND
     1     4     3    2
     2     3     2    1
     3   117   115   ar
     4   117   116   ar
     5     1     2    1
     6   115   113   ar
     7     2     5    1
     8   116   114   ar
     9   120   119    1
    10   120   121    2
    11   119   118    1
    12   119   122    1
    13   113   112   ar
    14   113   111   ar
    15     5     6    1
    16     5     7    1
    17   114   111   ar
    18   112   110   ar
    19   123   122    1
    20   123   124    1
    21   111   109   ar
    22    19    18    2
    23    18    17    1
    24   110   109   ar
    25   109   108    1
    26    25    24    1
    27   124   125    1
    28    26    24    1
    29    33    32    1
    30    24    23    2
    31     8     9    1
    32   106   105    1
    33   106   107    2
    34   105   108    1
    35   105   104    1
    36    34    32    1
    37    17    16    1
    38    17    20    1
    39    32    31    1
    40    99    98    2
    41    21    20    1
    42    21    22    1
    43    11    10    2
    44    23    22    1
    45   104    98   am
    46    98    97    1
    47    15    13   ar
    48     9    10    1
    49     9    12    1
    50    27    28    1
    51    13    12    1
    52    13    14   ar
    53    31    28    1
    54    96    97    1
    55    28    29    1
    56    97   100    1
    57    83    82    1
    58    95    94    1
    59   103   101   ar
    60   129   128    2
    61    81    82    1
    62    81    80    1
    63   130   127    1
    64   130   131    1
    65   100   101    1
    66    29    30    2
    67    92    94   ar
    68    92    90   ar
    69    94    93   ar
    70    80    77    1
    71   127   128    1
    72   127   126    1
    73    77    76    1
    74    77    78    1
    75   101   102   ar
    76    90    89   ar
    77    78    79    2
    78    93    91   ar
    79    54    53    1
    80   140   138   ar
    81   139   138   ar
    82    52    53    1
    83    52    51    1
    84    89    91   ar
    85    89    88    1
    86   138   137    1
    87    75    73    1
    88    50    51    1
    89    50    47    1
    90    85    88    1
    91    85    84    1
    92    85    86    1
    93    62    64   ar
    94    62    60   ar
    95    73    74    1
    96    73    72    2
    97    64    63   ar
    98   137   136    1
    99    45    43    1
   100    87    86    2
   101    47    46    1
   102    47    48    1
   103    44    43    1
   104    72    71    1
   105   136   133    1
   106    43    42    2
   107    60    59    1
   108    60    61   ar
   109    63    61   ar
   110   135   134    2
   111    59    56    1
   112    56    57    1
   113    56    55    1
   114    71    70    1
   115    70    69    1
   116   134   133    1
   117    68    67    2
   118    48    55   am
   119    48    49    2
   120    67    66    1
   121    42    41    1
   122   133   132    1
   123    57    58    2
   124    69    66    1
   125    41    40    1
   126    66    65    1
   127    40    39    1
   128    39    36    1
   129    36    35    1
   130    36    37    1
   131    38    37    2
