@<TRIPOS>MOLECULE
tmp/4i3kA00.pdb
 186 180 0 0 0
SMALL
GASTEIGER

@<TRIPOS>ATOM
      1  N         33.4120   -5.3520  -24.9080 N.3    69  LYS69      -0.1245
      2  CA        33.8850   -6.7230  -24.8160 C.3    69  LYS69       0.1561
      3  C         32.8160   -7.6490  -24.2910 C.2    69  LYS69       0.2260
      4  O         32.1470   -7.3510  -23.3000 O.2    69  LYS69      -0.2867
      5  CB        35.1160   -6.8110  -23.9210 C.3    69  LYS69       0.0271
      6  CG        35.8080   -8.1690  -23.9630 C.3    69  LYS69       0.0035
      7  CD        37.0480   -8.2000  -23.0750 C.3    69  LYS69       0.0206
      8  CE        37.4790   -9.6350  -22.7810 C.3    69  LYS69       0.1093
      9  NZ        36.5480  -10.3630  -21.8770 N.3    69  LYS69      -0.1314
     10  N         31.8830  -11.3860  -22.6240 N.3    71  ALA71      -0.1231
     11  CA        32.5510  -12.1710  -21.5870 C.3    71  ALA71       0.1694
     12  C         33.2890  -13.3750  -22.1560 C.2    71  ALA71       0.2593
     13  O         32.7400  -14.1340  -22.9480 O.2    71  ALA71      -0.2718
     14  CB        31.5560  -12.6210  -20.5570 C.3    71  ALA71       0.0304
     15  N         34.5230  -13.5650  -21.7080 N.am   72  THR72      -0.1939
     16  CA        35.4270  -14.5460  -22.2970 C.3    72  THR72       0.2028
     17  C         36.0420  -15.5350  -21.3120 C.2    72  THR72       0.2642
     18  O         36.7100  -15.1490  -20.3500 O.2    72  THR72      -0.2714
     19  CB        36.5770  -13.8450  -23.0190 C.3    72  THR72       0.1808
     20  OG1       36.9070  -12.6470  -22.3060 O.3    72  THR72      -0.2208
     21  CG2       36.1620  -13.4660  -24.4020 C.3    72  THR72       0.0379
     22  N         35.8500  -16.8150  -21.6160 N.am   73  ILE73      -0.1963
     23  CA        36.4660  -17.9220  -20.9000 C.3    73  ILE73       0.1727
     24  C         37.9010  -17.6810  -20.5000 C.2    73  ILE73       0.2616
     25  O         38.7380  -17.3840  -21.3420 O.2    73  ILE73      -0.2715
     26  CB        36.4350  -19.1860  -21.7640 C.3    73  ILE73       0.0290
     27  CG1       35.0370  -19.7900  -21.7500 C.3    73  ILE73       0.0022
     28  CG2       37.4160  -20.2040  -21.2640 C.3    73  ILE73       0.0023
     29  CD1       34.8560  -20.9070  -22.7360 C.3    73  ILE73       0.0001
     30  N         38.1830  -17.8300  -19.2090 N.am   74  THR74      -0.1951
     31  CA        39.5650  -17.8240  -18.7320 C.3    74  THR74       0.1897
     32  C         40.0290  -19.2410  -18.4670 C.2    74  THR74       0.2313
     33  O         39.3710  -20.0010  -17.7580 O.2    74  THR74      -0.2863
     34  CB        39.7630  -17.0190  -17.4570 C.3    74  THR74       0.1794
     35  OG1       39.1640  -15.7170  -17.6010 O.3    74  THR74      -0.2208
     36  CG2       41.2720  -16.9190  -17.1580 C.3    74  THR74       0.0378
     37  N         41.5720  -22.5460  -17.1760 N.3    76  ASP76      -0.1239
     38  CA        42.1260  -23.3330  -16.0820 C.3    76  ASP76       0.1674
     39  C         42.4480  -24.7350  -16.5970 C.2    76  ASP76       0.2266
     40  O         42.2050  -25.0310  -17.7690 O.2    76  ASP76      -0.2867
     41  CB        41.1480  -23.3720  -14.9160 C.3    76  ASP76       0.1410
     42  CG        39.7480  -23.7600  -15.3450 C.2    76  ASP76       0.3668
     43  OD1       39.5620  -24.8540  -15.9330 O.co2  76  ASP76      -0.2456
     44  OD2       38.8350  -22.9380  -15.1260 O.co2  76  ASP76      -0.2456
     45  N         39.6420  -26.3690  -18.5290 N.3    79  ARG79      -0.1245
     46  CA        39.3880  -25.7870  -19.8430 C.3    79  ARG79       0.1563
     47  C         40.3910  -26.3080  -20.8520 C.2    79  ARG79       0.2260
     48  O         40.0230  -26.5870  -21.9890 O.2    79  ARG79      -0.2867
     49  CB        39.4420  -24.2550  -19.7950 C.3    79  ARG79       0.0307
     50  CG        38.3100  -23.5730  -19.0030 C.3    79  ARG79       0.0489
     51  CD        36.9180  -23.7920  -19.6160 C.3    79  ARG79       0.2205
     52  NE        35.9470  -22.8190  -19.1140 N.pl3  79  ARG79      -0.0865
     53  CZ        34.6560  -22.8340  -19.4100 C.cat  79  ARG79       0.5346
     54  NH1       34.1730  -23.7740  -20.1950 N.pl3  79  ARG79       0.1354
     55  NH2       33.8490  -21.9150  -18.9200 N.pl3  79  ARG79       0.1354
     56  N         42.1410  -12.6490  -20.9160 N.3    92  PRO92      -0.2102
     57  CA        42.1160  -11.5910  -21.9150 C.3    92  PRO92       0.1504
     58  C         41.9960  -10.2450  -21.2190 C.2    92  PRO92       0.2575
     59  O         42.6140   -9.2840  -21.6780 O.2    92  PRO92      -0.2718
     60  CB        40.8820  -11.9220  -22.7620 C.3    92  PRO92       0.0282
     61  CG        40.1030  -12.8790  -21.9640 C.3    92  PRO92       0.0208
     62  CD        41.0800  -13.6350  -21.1390 C.3    92  PRO92       0.0893
     63  N         41.2570  -10.1810  -20.1130 N.am   93  ASN93      -0.1975
     64  CA        41.1400   -8.9250  -19.3700 C.3    93  ASN93       0.1688
     65  C         42.4570   -8.5270  -18.7200 C.2    93  ASN93       0.2292
     66  O         42.8060   -7.3410  -18.6720 O.2    93  ASN93      -0.2864
     67  CB        40.0490   -9.0130  -18.3210 C.3    93  ASN93       0.1181
     68  CG        38.8120   -9.6650  -18.8480 C.2    93  ASN93       0.2629
     69  OD1       37.8960   -8.9920  -19.3150 O.2    93  ASN93      -0.2716
     70  ND2       38.7720  -10.9950  -18.7820 N.am   93  ASN93      -0.0877
     71  N         23.2400   -9.4980  -10.9540 N.3   244  LEU244     -0.1231
     72  CA        24.5160   -9.8010  -11.6060 C.3   244  LEU244      0.1693
     73  C         24.4380   -9.6260  -13.1220 C.2   244  LEU244      0.2592
     74  O         25.3810   -9.1600  -13.7670 O.2   244  LEU244     -0.2718
     75  CB        24.9500  -11.2290  -11.3100 C.3   244  LEU244      0.0284
     76  CG        26.2320  -11.4440  -10.5140 C.3   244  LEU244      0.0019
     77  CD1       26.6530  -12.9100  -10.6390 C.3   244  LEU244      0.0001
     78  CD2       27.3380  -10.4820  -10.9340 C.3   244  LEU244      0.0001
     79  N         23.3140  -10.0470  -13.6950 N.am  245  GLY245     -0.1957
     80  CA        23.0210   -9.7880  -15.0890 C.3   245  GLY245      0.1869
     81  C         22.5610   -8.3380  -15.1890 C.2   245  GLY245      0.2309
     82  O         21.9090   -7.9460  -16.1380 O.2   245  GLY245     -0.2863
     83  N         32.1510   -3.5550  -20.4610 N.3   262  GLU262     -0.1231
     84  CA        31.6710   -4.9410  -20.5040 C.3   262  GLU262      0.1699
     85  C         30.7530   -5.2810  -19.3250 C.2   262  GLU262      0.2592
     86  O         30.7620   -4.6060  -18.2900 O.2   262  GLU262     -0.2718
     87  CB        32.8290   -5.9360  -20.5710 C.3   262  GLU262      0.0402
     88  CG        33.9470   -5.7960  -19.5510 C.3   262  GLU262      0.1161
     89  CD        35.0680   -6.8210  -19.8040 C.2   262  GLU262      0.3649
     90  OE1       34.7800   -8.0400  -19.9870 O.co2 262  GLU262     -0.2457
     91  OE2       36.2450   -6.3990  -19.8370 O.co2 262  GLU262     -0.2457
     92  N         29.9130   -6.2970  -19.5180 N.am  263  ALA263     -0.1966
     93  CA        29.0970   -6.8230  -18.4300 C.3   263  ALA263      0.1728
     94  C         30.0370   -7.4260  -17.3920 C.2   263  ALA263      0.2616
     95  O         31.0940   -7.9640  -17.7550 O.2   263  ALA263     -0.2715
     96  CB        28.1080   -7.8580  -18.9390 C.3   263  ALA263      0.0334
     97  N         29.6490   -7.3780  -16.1140 N.am  264  ALA264     -0.1963
     98  CA        30.5190   -7.8620  -15.0410 C.3   264  ALA264      0.1728
     99  C         30.3320   -9.3570  -14.7840 C.2   264  ALA264      0.2616
    100  O         31.1540   -9.9860  -14.1380 O.2   264  ALA264     -0.2715
    101  CB        30.2840   -7.0890  -13.7930 C.3   264  ALA264      0.0334
    102  N         29.2770   -9.9370  -15.3340 N.am  265  HIS265     -0.1959
    103  CA        29.0950  -11.3750  -15.2520 C.3   265  HIS265      0.1787
    104  C         29.9380  -12.1160  -16.3120 C.2   265  HIS265      0.2621
    105  O         30.3020  -11.5470  -17.3520 O.2   265  HIS265     -0.2715
    106  CB        27.6230  -11.7120  -15.4430 C.3   265  HIS265      0.0785
    107  CG        27.1130  -11.4410  -16.8280 C.ar  265  HIS265      0.0821
    108  ND1       27.3910  -12.2590  -17.8980 N.ar  265  HIS265     -0.2267
    109  CD2       26.3200  -10.4540  -17.3020 C.ar  265  HIS265      0.1154
    110  CE1       26.7900  -11.7870  -18.9770 C.ar  265  HIS265      0.1986
    111  NE2       26.1360  -10.6920  -18.6430 N.ar  265  HIS265     -0.2212
    112  N         30.1690  -13.4070  -16.0850 N.am  266  GLY266     -0.1940
    113  CA        30.9870  -14.2180  -16.9680 C.3   266  GLY266      0.2014
    114  C         30.2390  -14.7970  -18.1360 C.2   266  GLY266      0.2640
    115  O         29.2590  -14.2260  -18.6080 O.2   266  GLY266     -0.2714
    116  N         30.7200  -15.9300  -18.6200 N.am  267  THR267     -0.1936
    117  CA        30.2120  -16.5060  -19.8550 C.3   267  THR267      0.2028
    118  C         28.9570  -17.3610  -19.6840 C.2   267  THR267      0.2642
    119  O         28.4420  -17.9130  -20.6700 O.2   267  THR267     -0.2714
    120  CB        31.2880  -17.3390  -20.5080 C.3   267  THR267      0.1808
    121  OG1       31.6400  -18.3780  -19.5970 O.3   267  THR267     -0.2208
    122  CG2       32.5290  -16.4880  -20.7680 C.3   267  THR267      0.0379
    123  N         28.4760  -17.4330  -18.4390 N.am  268  VAL268     -0.1963
    124  CA        27.2760  -18.1910  -18.0320 C.3   268  VAL268      0.1727
    125  C         27.2470  -19.6160  -18.5850 C.2   268  VAL268      0.2617
    126  O         26.3640  -19.9670  -19.3790 O.2   268  VAL268     -0.2715
    127  CB        25.9760  -17.4920  -18.4620 C.3   268  VAL268      0.0290
    128  CG1       24.8240  -17.9640  -17.5720 C.3   268  VAL268      0.0023
    129  CG2       26.1370  -16.0000  -18.3600 C.3   268  VAL268      0.0023
    130  N         28.1790  -20.4440  -18.1260 N.am  269  THR269     -0.1937
    131  CA        28.3870  -21.7330  -18.7520 C.3   269  THR269      0.2028
    132  C         27.2090  -22.6790  -18.6230 C.2   269  THR269      0.2642
    133  O         26.8630  -23.3760  -19.5810 O.2   269  THR269     -0.2714
    134  CB        29.5890  -22.4370  -18.1670 C.3   269  THR269      0.1808
    135  OG1       30.6860  -21.5270  -18.0750 O.3   269  THR269     -0.2208
    136  CG2       29.9440  -23.6570  -19.0180 C.3   269  THR269      0.0379
    137  N         26.5940  -22.7120  -17.4450 N.am  270  ARG270     -0.1963
    138  CA        25.5140  -23.6600  -17.1930 C.3   270  ARG270      0.1729
    139  C         24.3660  -23.5250  -18.1710 C.2   270  ARG270      0.2616
    140  O         23.9020  -24.5300  -18.7130 O.2   270  ARG270     -0.2715
    141  CB        24.9830  -23.5110  -15.7720 C.3   270  ARG270      0.0348
    142  CG        24.1910  -24.7310  -15.3010 C.3   270  ARG270      0.0492
    143  CD        23.5660  -24.4970  -13.9270 C.3   270  ARG270      0.2205
    144  NE        22.5260  -23.4600  -13.9480 N.pl3 270  ARG270     -0.0865
    145  CZ        21.2750  -23.6380  -14.3690 C.cat 270  ARG270      0.5346
    146  NH1       20.8870  -24.8220  -14.8260 N.pl3 270  ARG270      0.1354
    147  NH2       20.4150  -22.6290  -14.3380 N.pl3 270  ARG270      0.1354
    148  N         23.9320  -22.2850  -18.3980 N.am  271  HIS271     -0.1973
    149  CA        22.8660  -21.9690  -19.3500 C.3   271  HIS271      0.1656
    150  C         23.2400  -22.3420  -20.7660 C.2   271  HIS271      0.2291
    151  O         22.3660  -22.5890  -21.6040 O.2   271  HIS271     -0.2864
    152  CB        22.5170  -20.4900  -19.3050 C.3   271  HIS271      0.0771
    153  CG        21.8430  -20.0640  -18.0420 C.ar  271  HIS271      0.0820
    154  ND1       20.9520  -19.0130  -17.9950 N.ar  271  HIS271     -0.2267
    155  CD2       21.9340  -20.5350  -16.7760 C.ar  271  HIS271      0.1154
    156  CE1       20.5170  -18.8610  -16.7590 C.ar  271  HIS271      0.1986
    157  NE2       21.0990  -19.7720  -15.9980 N.ar  271  HIS271     -0.2212
    158  N         17.1230  -18.9210  -20.2500 N.3   282  SER282     -0.1202
    159  CA        16.5570  -17.6200  -19.9370 C.3   282  SER282      0.2020
    160  C         17.5830  -16.6670  -19.3490 C.2   282  SER282      0.2619
    161  O         17.4800  -16.3050  -18.1810 O.2   282  SER282     -0.2717
    162  CB        15.4050  -17.8080  -18.9580 C.3   282  SER282      0.2103
    163  OG        14.7010  -16.6120  -18.7630 O.3   282  SER282     -0.2182
    164  N         18.5260  -16.2150  -20.1770 N.am  283  THR283     -0.1938
    165  CA        19.6640  -15.4100  -19.7130 C.3   283  THR283      0.2028
    166  C         19.4730  -13.9040  -19.9140 C.2   283  THR283      0.2642
    167  O         18.9000  -13.4550  -20.9110 O.2   283  THR283     -0.2714
    168  CB        20.9790  -15.8630  -20.3820 C.3   283  THR283      0.1808
    169  OG1       21.1190  -17.2790  -20.2360 O.3   283  THR283     -0.2208
    170  CG2       22.1670  -15.2220  -19.7190 C.3   283  THR283      0.0379
    171  N         19.9200  -13.1420  -18.9160 N.am  284  ASN284     -0.1971
    172  CA        19.7270  -11.6950  -18.8540 C.3   284  ASN284      0.1688
    173  C         20.6690  -10.8730  -19.7290 C.2   284  ASN284      0.2292
    174  O         21.8800  -10.8020  -19.4710 O.2   284  ASN284     -0.2864
    175  CB        19.8900  -11.2400  -17.4110 C.3   284  ASN284      0.1181
    176  CG        19.2110   -9.9370  -17.1490 C.2   284  ASN284      0.2629
    177  OD1       18.7150   -9.2970  -18.0790 O.2   284  ASN284     -0.2716
    178  ND2       19.1780   -9.5240  -15.8800 N.am  284  ASN284     -0.0877
    179  N         16.0640  -14.9220  -13.6870 N.3   331  ASP331     -0.1239
    180  CA        16.8440  -14.4540  -12.5570 C.3   331  ASP331      0.1674
    181  C         16.1800  -13.2620  -11.8780 C.2   331  ASP331      0.2266
    182  O         16.2460  -13.1100  -10.6630 O.2   331  ASP331     -0.2867
    183  CB        18.2480  -14.0680  -13.0190 C.3   331  ASP331      0.1410
    184  CG        18.2170  -13.0470  -14.1560 C.2   331  ASP331      0.3668
    185  OD1       17.5860  -13.3390  -15.2010 O.co2 331  ASP331     -0.2456
    186  OD2       18.7760  -11.9370  -13.9980 O.co2 331  ASP331     -0.2456
@<TRIPOS>BOND
     1     1     2    1
     2     2     3    1
     3     2     5    1
     4    21    19    1
     5     3     4    2
     6     6     5    1
     7     6     7    1
     8     7     8    1
     9    19    20    1
    10    19    16    1
    11    13    12    2
    12     8     9    1
    13    60    61    1
    14    60    57    1
    15    29    27    1
    16    10    11    1
    17    16    15    1
    18    16    17    1
    19    12    15   am
    20    12    11    1
    21    48    47    2
    22    61    62    1
    23    57    58    1
    24    57    56    1
    25    26    27    1
    26    26    28    1
    27    26    23    1
    28    59    58    2
    29    22    17   am
    30    22    23    1
    31   151   150    2
    32    11    14    1
    33    25    24    2
    34    17    18    2
    35    58    63   am
    36    62    56    1
    37   167   166    2
    38    23    24    1
    39    47    46    1
    40   122   120    1
    41   150   149    1
    42   119   118    2
    43    87    84    1
    44    87    88    1
    45   120   117    1
    46   120   121    1
    47    84    83    1
    48    84    85    1
    49    24    30   am
    50   168   169    1
    51   168   170    1
    52   168   165    1
    53   158   159    1
    54    54    53    1
    55   164   165    1
    56   164   160   am
    57    63    64    1
    58    90    89   ar
    59   159   160    1
    60   159   162    1
    61   166   165    1
    62   166   171   am
    63   117   118    1
    64   117   116    1
    65    46    49    1
    66    46    45    1
    67    91    89   ar
    68    89    88    1
    69    49    50    1
    70   173   174    2
    71   173   172    1
    72   118   123   am
    73    51    52    1
    74    51    50    1
    75   133   132    2
    76    92    85   am
    77    92    93    1
    78    53    52    2
    79    53    55    1
    80   126   125    2
    81    64    65    1
    82    64    67    1
    83   149   152    1
    84   149   148    1
    85   160   161    2
    86    85    86    2
    87    69    68    2
    88   152   153    1
    89    30    31    1
    90   136   134    1
    91   110   111   ar
    92   110   108   ar
    93   162   163    1
    94    96    93    1
    95   171   172    1
    96   172   175    1
    97    68    70   am
    98    68    67    1
    99   131   132    1
   100   131   134    1
   101   131   130    1
   102    31    32    1
   103    31    34    1
   104    65    66    2
   105   140   139    2
   106   111   109   ar
   107   132   137   am
   108   116   114   am
   109   115   114    2
   110   125   130   am
   111   125   124    1
   112    32    33    2
   113   127   129    1
   114   127   124    1
   115   127   128    1
   116   123   124    1
   117    93    94    1
   118   148   139   am
   119   139   138    1
   120   134   135    1
   121   114   113    1
   122   177   176    2
   123   153   154   ar
   124   153   155   ar
   125   154   156   ar
   126   108   107   ar
   127    40    39    2
   128    95    94    2
   129    35    34    1
   130    34    36    1
   131   137   138    1
   132   175   176    1
   133    94    97   am
   134   105   104    2
   135   109   107   ar
   136   138   141    1
   137    37    38    1
   138   176   178   am
   139   113   112    1
   140   107   106    1
   141   155   157   ar
   142   156   157   ar
   143    39    38    1
   144   104   112   am
   145   104   103    1
   146    82    81    2
   147    97    98    1
   148    38    41    1
   149    43    42   ar
   150   141   142    1
   151   106   103    1
   152    42    44   ar
   153    42    41    1
   154   102   103    1
   155   102    99   am
   156   142   143    1
   157   185   184   ar
   158    81    80    1
   159    80    79    1
   160    98    99    1
   161    98   101    1
   162   146   145    1
   163    99   100    2
   164   145   147    1
   165   145   144    2
   166   184   186   ar
   167   184   183    1
   168   144   143    1
   169    74    73    2
   170    79    73   am
   171   179   180    1
   172    73    72    1
   173   183   180    1
   174   180   181    1
   175   181   182    2
   176    72    75    1
   177    72    71    1
   178    75    76    1
   179    78    76    1
   180    77    76    1
