@<TRIPOS>MOLECULE
tmp/4i3rA02.pdb
 89 86 0 0 0
SMALL
GASTEIGER

@<TRIPOS>ATOM
      1  N         65.6300  -48.1900  -30.7660 N.3    59  ARG59      -0.1231
      2  CA        66.2400  -46.9490  -31.2310 C.3    59  ARG59       0.1694
      3  C         65.3750  -46.1450  -32.2040 C.2    59  ARG59       0.2592
      4  O         65.2010  -44.9320  -32.0370 O.2    59  ARG59      -0.2718
      5  CB        67.5880  -47.2570  -31.8740 C.3    59  ARG59       0.0321
      6  CG        68.0940  -46.1910  -32.8070 C.3    59  ARG59       0.0489
      7  CD        69.2120  -45.4490  -32.1610 C.3    59  ARG59       0.2205
      8  NE        69.9490  -46.3470  -31.2900 N.pl3  59  ARG59      -0.0865
      9  CZ        71.2400  -46.6200  -31.4050 C.cat  59  ARG59       0.5346
     10  NH1       71.9570  -46.0560  -32.3690 N.pl3  59  ARG59       0.1354
     11  NH2       71.8150  -47.4530  -30.5470 N.pl3  59  ARG59       0.1354
     12  N         64.8380  -46.8270  -33.2160 N.am   60  THR60      -0.1953
     13  CA        64.0660  -46.1820  -34.2730 C.3    60  THR60       0.1897
     14  C         62.7710  -45.5940  -33.7550 C.2    60  THR60       0.2313
     15  O         62.4830  -44.4290  -33.9830 O.2    60  THR60      -0.2863
     16  CB        63.7300  -47.1620  -35.4090 C.3    60  THR60       0.1794
     17  OG1       64.9430  -47.6300  -36.0110 O.3    60  THR60      -0.2208
     18  CG2       62.8660  -46.4790  -36.4670 C.3    60  THR60       0.0378
     19  N         63.6870  -42.5390  -31.5430 N.3    63  ASN63      -0.1225
     20  CA        64.1190  -41.3940  -32.3320 C.3    63  ASN63       0.1785
     21  C         62.9740  -40.7930  -33.1370 C.2    63  ASN63       0.2597
     22  O         62.8480  -39.5720  -33.2300 O.2    63  ASN63      -0.2718
     23  CB        65.2670  -41.7880  -33.2650 C.3    63  ASN63       0.1169
     24  CG        66.5130  -40.9550  -33.0390 C.2    63  ASN63       0.2627
     25  OD1       67.1930  -41.0970  -32.0220 O.2    63  ASN63      -0.2716
     26  ND2       66.8200  -40.0790  -33.9890 N.am   63  ASN63      -0.0877
     27  N         62.1340  -41.6490  -33.7130 N.am   64  ASP64      -0.1974
     28  CA        60.9680  -41.1650  -34.4340 C.3    64  ASP64       0.1709
     29  C         60.0290  -40.4480  -33.4820 C.2    64  ASP64       0.2293
     30  O         59.4210  -39.4470  -33.8410 O.2    64  ASP64      -0.2864
     31  CB        60.2500  -42.3010  -35.1730 C.3    64  ASP64       0.1436
     32  CG        61.1250  -42.9610  -36.2360 C.2    64  ASP64       0.3671
     33  OD1       62.1960  -42.3990  -36.5640 O.co2  64  ASP64      -0.2456
     34  OD2       60.7380  -44.0430  -36.7350 O.co2  64  ASP64      -0.2456
     35  N         67.6430  -31.6090  -33.7600 N.3   117  TRP117     -0.1241
     36  CA        66.6980  -31.6590  -34.8760 C.3   117  TRP117      0.1605
     37  C         66.6630  -30.3250  -35.6180 C.2   117  TRP117      0.2264
     38  O         66.0460  -29.3750  -35.1380 O.2   117  TRP117     -0.2867
     39  CB        65.3060  -32.0440  -34.3730 C.3   117  TRP117      0.0550
     40  CG        65.3120  -33.3960  -33.7030 C.ar  117  TRP117      0.0003
     41  CD1       65.8060  -33.6900  -32.4720 C.ar  117  TRP117      0.0946
     42  CD2       64.8200  -34.6350  -34.2400 C.ar  117  TRP117      0.0152
     43  NE1       65.6490  -35.0230  -32.2020 N.ar  117  TRP117     -0.2442
     44  CE2       65.0450  -35.6240  -33.2720 C.ar  117  TRP117      0.0810
     45  CE3       64.1860  -34.9930  -35.4280 C.ar  117  TRP117      0.0012
     46  CZ2       64.6880  -36.9490  -33.4700 C.ar  117  TRP117      0.0191
     47  CZ3       63.8650  -36.3040  -35.6330 C.ar  117  TRP117      0.0001
     48  CH2       64.1010  -37.2670  -34.6550 C.ar  117  TRP117      0.0015
     49  N         62.8930  -30.8330  -41.0380 N.3   121  GLY121     -0.1210
     50  CA        62.7820  -31.9910  -40.1650 C.3   121  GLY121      0.1956
     51  C         64.0300  -32.8650  -40.0490 C.2   121  GLY121      0.2613
     52  O         64.1770  -33.5950  -39.0740 O.2   121  GLY121     -0.2717
     53  N         64.9460  -32.7410  -41.0150 N.am  122  THR122     -0.1938
     54  CA        66.0180  -33.7250  -41.2550 C.3   122  THR122      0.2028
     55  C         66.8710  -34.1130  -40.0640 C.2   122  THR122      0.2642
     56  O         67.4680  -35.1920  -40.0510 O.2   122  THR122     -0.2714
     57  CB        66.9700  -33.3310  -42.4100 C.3   122  THR122      0.1808
     58  OG1       67.8870  -34.4060  -42.6470 O.3   122  THR122     -0.2208
     59  CG2       67.7600  -32.0900  -42.0650 C.3   122  THR122      0.0379
     60  N         66.9620  -33.2280  -39.0890 N.am  123  ALA123     -0.1963
     61  CA        67.4670  -33.6310  -37.7950 C.3   123  ALA123      0.1728
     62  C         68.9170  -34.0560  -37.7500 C.2   123  ALA123      0.2616
     63  O         69.7950  -33.4270  -38.3400 O.2   123  ALA123     -0.2715
     64  CB        66.6390  -34.7560  -37.2680 C.3   123  ALA123      0.0334
     65  N         69.1170  -35.1710  -37.0490 N.am  124  SER124     -0.1950
     66  CA        70.3970  -35.5390  -36.4630 C.3   124  SER124      0.1924
     67  C         71.5710  -35.3990  -37.4090 C.2   124  SER124      0.2314
     68  O         71.4980  -35.7830  -38.5760 O.2   124  SER124     -0.2863
     69  CB        70.3370  -36.9390  -35.8490 C.3   124  SER124      0.2116
     70  OG        70.4310  -36.8650  -34.4320 O.3   124  SER124     -0.2180
     71  N         74.8150  -36.6390  -37.7770 N.3   126  ASP126     -0.1225
     72  CA        75.4880  -37.7600  -38.4300 C.3   126  ASP126      0.1805
     73  C         74.5100  -38.8670  -38.8050 C.2   126  ASP126      0.2598
     74  O         73.5740  -39.1620  -38.0580 O.2   126  ASP126     -0.2718
     75  CB        76.5970  -38.3470  -37.5440 C.3   126  ASP126      0.1424
     76  CG        76.9120  -37.4810  -36.3360 C.2   126  ASP126      0.3668
     77  OD1       75.9670  -37.0250  -35.6570 O.co2 126  ASP126     -0.2456
     78  OD2       78.1120  -37.2620  -36.0630 O.co2 126  ASP126     -0.2456
     79  N         74.7330  -39.4760  -39.9670 N.am  127  GLY127     -0.1942
     80  CA        74.0100  -40.6740  -40.3530 C.3   127  GLY127      0.2014
     81  C         74.5050  -41.8350  -39.5110 C.2   127  GLY127      0.2639
     82  O         75.7060  -42.1050  -39.4680 O.2   127  GLY127     -0.2714
     83  N         73.5800  -42.5290  -38.8510 N.am  128  THR128     -0.1950
     84  CA        73.9240  -43.4720  -37.7810 C.3   128  THR128      0.1897
     85  C         74.4820  -44.8300  -38.2230 C.2   128  THR128      0.2313
     86  O         73.8930  -45.5350  -39.0460 O.2   128  THR128     -0.2863
     87  CB        72.7360  -43.6780  -36.8110 C.3   128  THR128      0.1794
     88  OG1       72.5230  -42.4760  -36.0620 O.3   128  THR128     -0.2208
     89  CG2       73.0140  -44.8040  -35.8410 C.3   128  THR128      0.0378
@<TRIPOS>BOND
     1    58    57    1
     2    57    59    1
     3    57    54    1
     4    54    53    1
     5    54    55    1
     6    49    50    1
     7    53    51   am
     8    80    79    1
     9    80    81    1
    10    50    51    1
    11    55    56    2
    12    55    60   am
    13    51    52    2
    14    79    73   am
    15    81    82    2
    16    81    83   am
    17    60    61    1
    18    86    85    2
    19    83    84    1
    20    73    72    1
    21    73    74    2
    22    68    67    2
    23    72    71    1
    24    72    75    1
    25    63    62    2
    26    85    84    1
    27    61    62    1
    28    61    64    1
    29    84    87    1
    30    62    65   am
    31    75    76    1
    32    67    66    1
    33    65    66    1
    34    87    88    1
    35    87    89    1
    36    34    32   ar
    37    33    32   ar
    38    18    16    1
    39    66    69    1
    40    76    78   ar
    41    76    77   ar
    42    32    31    1
    43    17    16    1
    44    69    70    1
    45    47    45   ar
    46    47    48   ar
    47    37    38    2
    48    37    36    1
    49    45    42   ar
    50    16    13    1
    51    31    28    1
    52    36    39    1
    53    36    35    1
    54    48    46   ar
    55    28    27    1
    56    28    29    1
    57    39    40    1
    58    13    14    1
    59    13    12    1
    60    42    40   ar
    61    42    44   ar
    62    26    24   am
    63    15    14    2
    64    30    29    2
    65    27    21   am
    66    40    41   ar
    67    46    44   ar
    68    44    43   ar
    69    23    24    1
    70    23    20    1
    71    22    21    2
    72    12     3   am
    73    21    20    1
    74    24    25    2
    75     6     7    1
    76     6     5    1
    77    41    43   ar
    78    10     9    1
    79    20    19    1
    80     3     4    2
    81     3     2    1
    82     7     8    1
    83     5     2    1
    84     9     8    2
    85     9    11    1
    86     2     1    1
