@<TRIPOS>MOLECULE
tmp/4i3uF00.pdb
 112 106 0 0 0
SMALL
GASTEIGER

@<TRIPOS>ATOM
      1  N        -27.0520  -59.3600   -9.9050 N.3    97  ARG97      -0.1245
      2  CA       -27.5300  -58.0300  -10.1860 C.3    97  ARG97       0.1563
      3  C        -27.1750  -57.0680   -9.0640 C.2    97  ARG97       0.2260
      4  O        -26.6350  -55.9810   -9.3260 O.2    97  ARG97      -0.2867
      5  CB       -29.0320  -58.0440  -10.4640 C.3    97  ARG97       0.0307
      6  CG       -29.4120  -58.7120  -11.8040 C.3    97  ARG97       0.0489
      7  CD       -30.8630  -58.4260  -12.2110 C.3    97  ARG97       0.2205
      8  NE       -31.0510  -56.9930  -12.4030 N.pl3  97  ARG97      -0.0865
      9  CZ       -32.2240  -56.4010  -12.5830 C.cat  97  ARG97       0.5346
     10  NH1      -33.3380  -57.1240  -12.5990 N.pl3  97  ARG97       0.1354
     11  NH2      -32.2710  -55.0800  -12.7280 N.pl3  97  ARG97       0.1354
     12  N        -40.8850  -58.8710   -5.4990 N.3   147  ASN147     -0.1225
     13  CA       -40.2360  -59.1140   -6.7600 C.3   147  ASN147      0.1785
     14  C        -38.7170  -59.4270   -6.8060 C.2   147  ASN147      0.2597
     15  O        -38.2630  -60.4090   -7.4060 O.2   147  ASN147     -0.2718
     16  CB       -40.4350  -57.7020   -7.3240 C.3   147  ASN147      0.1169
     17  CG       -40.5880  -57.6610   -8.7370 C.2   147  ASN147      0.2627
     18  OD1      -40.4350  -58.6480   -9.3730 O.2   147  ASN147     -0.2716
     19  ND2      -40.8520  -56.4980   -9.2770 N.am  147  ASN147     -0.0877
     20  N        -37.9350  -58.5280   -6.2170 N.am  148  HIS148     -0.1975
     21  CA       -36.4880  -58.6670   -6.1110 C.3   148  HIS148      0.1656
     22  C        -36.1720  -58.2010   -4.7140 C.2   148  HIS148      0.2291
     23  O        -35.8190  -57.0320   -4.5130 O.2   148  HIS148     -0.2864
     24  CB       -35.7800  -57.7150   -7.0900 C.3   148  HIS148      0.0771
     25  CG       -36.0370  -58.0060   -8.5350 C.ar  148  HIS148      0.0820
     26  ND1      -35.7270  -59.2210   -9.1170 N.ar  148  HIS148     -0.2267
     27  CD2      -36.5410  -57.2260   -9.5230 C.ar  148  HIS148      0.1154
     28  CE1      -36.0570  -59.1830  -10.3990 C.ar  148  HIS148      0.1986
     29  NE2      -36.5340  -57.9810  -10.6740 N.ar  148  HIS148     -0.2212
     30  N        -32.3290  -57.0240   -4.9440 N.3   151  ASN151     -0.1225
     31  CA       -31.9190  -56.0370   -5.9370 C.3   151  ASN151      0.1785
     32  C        -32.6680  -54.7110   -5.8700 C.2   151  ASN151      0.2597
     33  O        -32.0810  -53.6420   -6.0710 O.2   151  ASN151     -0.2718
     34  CB       -32.0010  -56.6100   -7.3480 C.3   151  ASN151      0.1169
     35  CG       -31.0470  -55.9270   -8.2870 C.2   151  ASN151      0.2627
     36  OD1      -29.8780  -55.7290   -7.9410 O.2   151  ASN151     -0.2716
     37  ND2      -31.5330  -55.5340   -9.4680 N.am  151  ASN151     -0.0877
     38  N        -33.9620  -54.7890   -5.5800 N.am  152  MET152     -0.1979
     39  CA       -34.7850  -53.6070   -5.3370 C.3   152  MET152      0.1605
     40  C        -34.2930  -52.7510   -4.1870 C.2   152  MET152      0.2287
     41  O        -34.2910  -51.5200   -4.2730 O.2   152  MET152     -0.2864
     42  CB       -36.2150  -54.0390   -5.0700 C.3   152  MET152      0.0413
     43  CG       -36.9020  -54.5090   -6.3270 C.3   152  MET152      0.0598
     44  SD       -37.4820  -53.1010   -7.2470 S.3   152  MET152     -0.1393
     45  CE       -37.6420  -53.7980   -8.8570 C.3   152  MET152      0.0692
     46  N        -30.9760  -51.1720   -5.3230 N.3   155  HIS155     -0.1241
     47  CA       -31.1330  -50.0200   -6.2090 C.3   155  HIS155      0.1621
     48  C        -31.5000  -48.7580   -5.4560 C.2   155  HIS155      0.2264
     49  O        -31.2490  -47.6510   -5.9350 O.2   155  HIS155     -0.2867
     50  CB       -32.1700  -50.3030   -7.2780 C.3   155  HIS155      0.0745
     51  CG       -31.5830  -50.8130   -8.5490 C.ar  155  HIS155      0.0817
     52  ND1      -30.8170  -50.0190   -9.3780 N.ar  155  HIS155     -0.2268
     53  CD2      -31.6410  -52.0280   -9.1400 C.ar  155  HIS155      0.1154
     54  CE1      -30.4240  -50.7240  -10.4210 C.ar  155  HIS155      0.1986
     55  NE2      -30.9200  -51.9470  -10.3070 N.ar  155  HIS155     -0.2212
     56  N        -41.3120  -48.7500   -5.4060 N.3   222  THR222     -0.1218
     57  CA       -41.5120  -49.6660   -6.5200 C.3   222  THR222      0.1862
     58  C        -42.5810  -50.6360   -6.0490 C.2   222  THR222      0.2287
     59  O        -42.4710  -51.2070   -4.9500 O.2   222  THR222     -0.2866
     60  CB       -40.2040  -50.4070   -6.8820 C.3   222  THR222      0.1770
     61  OG1      -39.2070  -49.4630   -7.3060 O.3   222  THR222     -0.2211
     62  CG2      -40.4270  -51.4330   -7.9770 C.3   222  THR222      0.0375
     63  N        -41.4430  -59.7550  -13.1130 N.3   279  ARG279     -0.1231
     64  CA       -40.6860  -58.5120  -13.3520 C.3   279  ARG279      0.1694
     65  C        -41.6160  -57.4670  -13.9250 C.2   279  ARG279      0.2592
     66  O        -42.4740  -57.7890  -14.7480 O.2   279  ARG279     -0.2718
     67  CB       -39.5180  -58.7320  -14.3140 C.3   279  ARG279      0.0321
     68  CG       -38.4160  -59.6250  -13.7750 C.3   279  ARG279      0.0489
     69  CD       -37.2770  -59.7120  -14.7650 C.3   279  ARG279      0.2205
     70  NE       -36.5480  -58.4620  -14.8440 N.pl3 279  ARG279     -0.0865
     71  CZ       -35.6310  -58.1810  -15.7560 C.cat 279  ARG279      0.5346
     72  NH1      -35.3370  -59.0630  -16.6990 N.pl3 279  ARG279      0.1354
     73  NH2      -35.0180  -57.0070  -15.7270 N.pl3 279  ARG279      0.1354
     74  N        -41.4350  -56.2120  -13.5110 N.am  280  CYS280     -0.1956
     75  CA       -42.1670  -55.1230  -14.1360 C.3   280  CYS280      0.1843
     76  C        -41.9690  -55.1750  -15.6620 C.2   280  CYS280      0.2626
     77  O        -42.8480  -54.8130  -16.4230 O.2   280  CYS280     -0.2714
     78  CB       -41.6690  -53.7820  -13.5830 C.3   280  CYS280      0.0997
     79  SG       -39.8480  -53.5820  -13.7240 S.3   280  CYS280     -0.0797
     80  N        -40.7920  -55.6240  -16.0750 N.am  281  THR281     -0.1950
     81  CA       -40.3690  -55.6640  -17.4770 C.3   281  THR281      0.1897
     82  C        -40.3660  -57.0830  -18.0850 C.2   281  THR281      0.2313
     83  O        -39.7440  -57.3160  -19.1360 O.2   281  THR281     -0.2863
     84  CB       -38.9570  -55.1080  -17.6340 C.3   281  THR281      0.1794
     85  OG1      -38.1010  -55.7410  -16.6770 O.3   281  THR281     -0.2208
     86  CG2      -38.9400  -53.5770  -17.3970 C.3   281  THR281      0.0378
     87  N        -36.7400  -56.6030  -20.4070 N.3   434  GLY434     -0.1225
     88  CA       -36.0640  -56.5310  -19.1220 C.3   434  GLY434      0.1811
     89  C        -34.5780  -56.1950  -19.1910 C.2   434  GLY434      0.2280
     90  O        -33.9620  -55.9240  -18.1620 O.2   434  GLY434     -0.2866
     91  N        -31.2270  -54.3050  -19.3450 N.3   436  ARG436     -0.1245
     92  CA       -30.6270  -52.9840  -19.1220 C.3   436  ARG436      0.1563
     93  C        -29.3210  -53.2050  -18.3570 C.2   436  ARG436      0.2260
     94  O        -29.0540  -54.3120  -17.9170 O.2   436  ARG436     -0.2867
     95  CB       -31.5650  -52.0860  -18.3220 C.3   436  ARG436      0.0307
     96  CG       -31.8610  -52.6450  -16.9510 C.3   436  ARG436      0.0489
     97  CD       -33.0800  -52.0490  -16.2240 C.3   436  ARG436      0.2205
     98  NE       -32.6280  -51.4670  -14.9820 N.pl3 436  ARG436     -0.0865
     99  CZ       -33.2610  -51.4760  -13.8140 C.cat 436  ARG436      0.5346
    100  NH1      -34.4110  -52.0710  -13.6720 N.pl3 436  ARG436      0.1354
    101  NH2      -32.7140  -50.8810  -12.7660 N.pl3 436  ARG436      0.1354
    102  N        -33.6630  -45.8360  -16.2480 N.3   442  PHE442     -0.1241
    103  CA       -34.7290  -46.8130  -16.2100 C.3   442  PHE442      0.1605
    104  C        -36.0030  -46.1950  -15.6640 C.2   442  PHE442      0.2264
    105  O        -36.0070  -45.5730  -14.5880 O.2   442  PHE442     -0.2867
    106  CB       -34.3260  -48.0210  -15.3580 C.3   442  PHE442      0.0534
    107  CG       -35.4450  -49.0060  -15.1400 C.ar  442  PHE442     -0.0203
    108  CD1      -35.8690  -49.8180  -16.1670 C.ar  442  PHE442     -0.0042
    109  CD2      -36.0610  -49.1200  -13.9090 C.ar  442  PHE442     -0.0042
    110  CE1      -36.9010  -50.7330  -15.9850 C.ar  442  PHE442     -0.0003
    111  CE2      -37.0970  -50.0340  -13.7140 C.ar  442  PHE442     -0.0003
    112  CZ       -37.5130  -50.8290  -14.7640 C.ar  442  PHE442     -0.0000
@<TRIPOS>BOND
     1    87    88    1
     2    91    92    1
     3    89    88    1
     4    89    90    2
     5    83    82    2
     6    92    93    1
     7    92    95    1
     8    93    94    2
     9    95    96    1
    10    82    81    1
    11    84    81    1
    12    84    86    1
    13    84    85    1
    14    81    80    1
    15    96    97    1
    16    72    71    1
    17    77    76    2
    18   102   103    1
    19    97    98    1
    20   103   104    1
    21   103   106    1
    22   108   110   ar
    23   108   107   ar
    24    80    76   am
    25   110   112   ar
    26    71    73    1
    27    71    70    2
    28   104   105    2
    29    76    75    1
    30   106   107    1
    31   107   109   ar
    32    98    99    2
    33    70    69    1
    34    69    68    1
    35   112   111   ar
    36    66    65    2
    37    67    68    1
    38    67    64    1
    39    75    78    1
    40    75    74    1
    41    65    74   am
    42    65    64    1
    43   109   111   ar
    44    99   100    1
    45    99   101    1
    46    79    78    1
    47    64    63    1
    48    11     9    1
    49    10     9    1
    50     9     8    2
    51     8     7    1
    52     7     6    1
    53     6     5    1
    54    29    28   ar
    55    29    27   ar
    56     5     2    1
    57    54    55   ar
    58    54    52   ar
    59    28    26   ar
    60    55    53   ar
    61     2     1    1
    62     2     3    1
    63    27    25   ar
    64    37    35   am
    65    52    51   ar
    66    18    17    2
    67     4     3    2
    68    19    17   am
    69    53    51   ar
    70    26    25   ar
    71    45    44    1
    72    17    16    1
    73    51    50    1
    74    25    24    1
    75    35    36    2
    76    35    34    1
    77    62    60    1
    78    15    14    2
    79    34    31    1
    80    16    13    1
    81    61    60    1
    82    50    47    1
    83    44    43    1
    84    24    21    1
    85    60    57    1
    86    14    13    1
    87    14    20   am
    88    13    12    1
    89    57    58    1
    90    57    56    1
    91    43    42    1
    92    20    21    1
    93    47    48    1
    94    47    46    1
    95    21    22    1
    96    33    32    2
    97    58    59    2
    98    31    32    1
    99    31    30    1
   100    49    48    2
   101    32    38   am
   102    38    39    1
   103    39    42    1
   104    39    40    1
   105    22    23    2
   106    41    40    2
