@<TRIPOS>MOLECULE
tmp/4i3wD01.pdb
 175 172 0 0 0
SMALL
GASTEIGER

@<TRIPOS>ATOM
      1  N         51.1890  -66.5460  -40.9080 N.3   143  ILE143     -0.1231
      2  CA        51.6770  -66.4000  -42.2800 C.3   143  ILE143      0.1692
      3  C         52.9390  -65.5900  -42.2100 C.2   143  ILE143      0.2593
      4  O         52.8950  -64.4630  -41.7400 O.2   143  ILE143     -0.2718
      5  CB        50.6320  -65.6440  -43.1530 C.3   143  ILE143      0.0266
      6  CG1       49.3400  -66.4390  -43.2260 C.3   143  ILE143      0.0019
      7  CG2       51.1580  -65.3740  -44.5670 C.3   143  ILE143      0.0020
      8  CD1       48.1620  -65.5600  -43.7300 C.3   143  ILE143      0.0001
      9  N         54.0620  -66.1570  -42.6820 N.am  144  THR144     -0.1940
     10  CA        55.3860  -65.5670  -42.4530 C.3   144  THR144      0.2013
     11  C         56.1140  -65.1840  -43.7350 C.2   144  THR144      0.2484
     12  O         55.8540  -65.7130  -44.8060 O.2   144  THR144     -0.2729
     13  CB        56.2800  -66.5130  -41.6140 C.3   144  THR144      0.1807
     14  OG1       56.3890  -67.7910  -42.2670 O.3   144  THR144     -0.2208
     15  CG2       55.6720  -66.7050  -40.2000 C.3   144  THR144      0.0379
     16  N         57.0370  -64.2450  -43.6280 N.am  145  PRO145     -0.2715
     17  CA        57.7140  -63.7160  -44.8120 C.3   145  PRO145      0.1536
     18  C         59.0870  -64.3760  -45.0470 C.2   145  PRO145      0.2599
     19  O         59.4890  -65.2520  -44.2660 O.2   145  PRO145     -0.2715
     20  CB        57.9260  -62.2480  -44.4360 C.3   145  PRO145      0.0310
     21  CG        58.2970  -62.3350  -42.9510 C.3   145  PRO145      0.0237
     22  CD        57.3960  -63.5040  -42.4020 C.3   145  PRO145      0.0939
     23  N         59.8100  -63.9530  -46.0840 N.am  146  PHE146     -0.1960
     24  CA        61.0650  -64.6240  -46.3920 C.3   146  PHE146      0.1771
     25  C         62.2680  -64.1390  -45.5570 C.2   146  PHE146      0.2619
     26  O         63.2770  -64.8550  -45.4310 O.2   146  PHE146     -0.2715
     27  CB        61.3970  -64.4990  -47.8890 C.3   146  PHE146      0.0574
     28  CG        61.6990  -63.0980  -48.3150 C.ar  146  PHE146     -0.0200
     29  CD1       62.9320  -62.5280  -48.0420 C.ar  146  PHE146     -0.0042
     30  CD2       60.7460  -62.3470  -48.9850 C.ar  146  PHE146     -0.0042
     31  CE1       63.2130  -61.2360  -48.4440 C.ar  146  PHE146     -0.0003
     32  CE2       61.0280  -61.0450  -49.3840 C.ar  146  PHE146     -0.0003
     33  CZ        62.2500  -60.4810  -49.1130 C.ar  146  PHE146     -0.0000
     34  N         62.1940  -62.9380  -44.9970 N.am  147  ASN147     -0.1972
     35  CA        63.4240  -62.3470  -44.4920 C.3   147  ASN147      0.1688
     36  C         63.9950  -62.9700  -43.2110 C.2   147  ASN147      0.2292
     37  O         65.1970  -62.8560  -42.9560 O.2   147  ASN147     -0.2864
     38  CB        63.2960  -60.8270  -44.3460 C.3   147  ASN147      0.1181
     39  CG        62.3780  -60.4370  -43.2110 C.2   147  ASN147      0.2629
     40  OD1       61.3120  -61.0310  -43.0190 O.2   147  ASN147     -0.2716
     41  ND2       62.7870  -59.4440  -42.4420 N.am  147  ASN147     -0.0877
     42  N         51.7580  -71.0500  -42.6010 N.3   170  LYS170     -0.1231
     43  CA        52.0760  -71.0990  -44.0250 C.3   170  LYS170      0.1678
     44  C         53.2340  -70.1750  -44.2920 C.2   170  LYS170      0.2434
     45  O         53.0420  -68.9800  -44.3810 O.2   170  LYS170     -0.2733
     46  CB        50.9050  -70.6670  -44.9030 C.3   170  LYS170      0.0284
     47  CG        51.2060  -70.8200  -46.4100 C.3   170  LYS170      0.0035
     48  CD        50.4270  -69.8320  -47.2960 C.3   170  LYS170      0.0206
     49  CE        51.0580  -68.4380  -47.2370 C.3   170  LYS170      0.1093
     50  NZ        52.5020  -68.4740  -47.5480 N.3   170  LYS170     -0.1314
     51  N         54.4500  -70.7280  -44.3950 N.am  171  PRO171     -0.2718
     52  CA        55.6020  -69.8720  -44.6890 C.3   171  PRO171      0.1535
     53  C         55.5330  -69.4630  -46.1440 C.2   171  PRO171      0.2599
     54  O         54.7710  -70.0860  -46.9130 O.2   171  PRO171     -0.2715
     55  CB        56.7940  -70.8050  -44.4890 C.3   171  PRO171      0.0310
     56  CG        56.2120  -72.2230  -44.6390 C.3   171  PRO171      0.0237
     57  CD        54.8070  -72.1510  -44.2040 C.3   171  PRO171      0.0939
     58  N         56.3020  -68.4510  -46.5250 N.am  172  THR172     -0.1937
     59  CA        56.3680  -68.0480  -47.9220 C.3   172  THR172      0.2028
     60  C         56.9410  -69.1710  -48.7850 C.2   172  THR172      0.2642
     61  O         57.8380  -69.9420  -48.3480 O.2   172  THR172     -0.2714
     62  CB        57.2530  -66.8190  -48.0980 C.3   172  THR172      0.1808
     63  OG1       57.5460  -66.6560  -49.4930 O.3   172  THR172     -0.2208
     64  CG2       58.5380  -67.0040  -47.3510 C.3   172  THR172      0.0379
     65  N         56.4430  -69.2610  -50.0190 N.am  173  GLU173     -0.1963
     66  CA        56.9210  -70.2950  -50.9510 C.3   173  GLU173      0.1733
     67  C         58.4050  -70.0960  -51.2730 C.2   173  GLU173      0.2616
     68  O         59.0730  -71.0210  -51.7120 O.2   173  GLU173     -0.2715
     69  CB        56.0900  -70.3160  -52.2480 C.3   173  GLU173      0.0429
     70  CG        56.2040  -69.0460  -53.1080 C.3   173  GLU173      0.1163
     71  CD        55.3250  -67.9030  -52.6200 C.2   173  GLU173      0.3649
     72  OE1       54.7030  -68.0280  -51.5430 O.co2 173  GLU173     -0.2457
     73  OE2       55.2630  -66.8660  -53.3110 O.co2 173  GLU173     -0.2457
     74  N         58.9270  -68.8970  -51.0210 N.am  174  LEU174     -0.1977
     75  CA        60.3390  -68.6130  -51.2840 C.3   174  LEU174      0.1596
     76  C         61.3230  -69.2300  -50.2700 C.2   174  LEU174      0.2287
     77  O         62.4550  -69.5400  -50.6320 O.2   174  LEU174     -0.2864
     78  CB        60.5690  -67.1080  -51.3370 C.3   174  LEU174      0.0297
     79  CG        59.7910  -66.3500  -52.3930 C.3   174  LEU174      0.0022
     80  CD1       60.0790  -64.8660  -52.2940 C.3   174  LEU174      0.0001
     81  CD2       60.1630  -66.8830  -53.7680 C.3   174  LEU174      0.0001
     82  N         50.2550  -68.8750  -52.9800 N.3   203  PRO203     -0.2102
     83  CA        49.2460  -68.0120  -52.3440 C.3   203  PRO203      0.1504
     84  C         47.8700  -68.1840  -53.0040 C.2   203  PRO203      0.2575
     85  O         46.8400  -68.1820  -52.3250 O.2   203  PRO203     -0.2718
     86  CB        49.7870  -66.6110  -52.5940 C.3   203  PRO203      0.0282
     87  CG        51.2630  -66.7940  -52.7530 C.3   203  PRO203      0.0208
     88  CD        51.4420  -68.1270  -53.4170 C.3   203  PRO203      0.0893
     89  N         47.8710  -68.3480  -54.3250 N.am  204  ALA204     -0.1980
     90  CA        46.6350  -68.4430  -55.0950 C.3   204  ALA204      0.1597
     91  C         45.7840  -69.6440  -54.6980 C.2   204  ALA204      0.2287
     92  O         44.5500  -69.5830  -54.7410 O.2   204  ALA204     -0.2864
     93  CB        46.9310  -68.4620  -56.6050 C.3   204  ALA204      0.0319
     94  N         46.5530  -69.6480  -49.8270 N.3   207  GLY207     -0.1210
     95  CA        46.5950  -68.4000  -49.0860 C.3   207  GLY207      0.1956
     96  C         45.2540  -67.9760  -48.5140 C.2   207  GLY207      0.2611
     97  O         45.1720  -67.5850  -47.3400 O.2   207  GLY207     -0.2717
     98  N         44.1960  -68.0580  -49.3250 N.am  208  MET208     -0.1979
     99  CA        42.8830  -67.5740  -48.8730 C.3   208  MET208      0.1605
    100  C         42.3310  -68.4020  -47.7050 C.2   208  MET208      0.2287
    101  O         41.6460  -67.8620  -46.8120 O.2   208  MET208     -0.2864
    102  CB        41.8990  -67.4990  -50.0380 C.3   208  MET208      0.0413
    103  CG        40.5670  -66.8250  -49.7120 C.3   208  MET208      0.0598
    104  SD        40.7810  -65.0890  -49.1910 S.3   208  MET208     -0.1393
    105  CE        41.5620  -64.3680  -50.6250 C.3   208  MET208      0.0692
    106  N         43.3400  -67.3860  -44.3650 N.3   211  ILE211     -0.1245
    107  CA        42.6950  -66.1130  -43.9690 C.3   211  ILE211      0.1561
    108  C         41.2070  -66.2530  -43.5450 C.2   211  ILE211      0.2260
    109  O         40.7200  -65.4690  -42.7240 O.2   211  ILE211     -0.2867
    110  CB        42.7610  -65.0840  -45.1320 C.3   211  ILE211      0.0252
    111  CG1       44.2010  -64.7170  -45.4060 C.3   211  ILE211      0.0019
    112  CG2       41.9710  -63.8150  -44.8230 C.3   211  ILE211      0.0019
    113  CD1       44.9640  -64.5500  -44.1360 C.3   211  ILE211      0.0001
    114  N         50.2510  -62.0480  -39.0990 N.3   221  PHE221     -0.1227
    115  CA        50.8830  -61.9320  -40.3980 C.3   221  PHE221      0.1736
    116  C         52.0290  -60.9630  -40.3620 C.2   221  PHE221      0.2596
    117  O         51.9440  -59.8870  -39.7460 O.2   221  PHE221     -0.2718
    118  CB        49.8460  -61.4520  -41.4420 C.3   221  PHE221      0.0547
    119  CG        50.4540  -60.9640  -42.7380 C.ar  221  PHE221     -0.0202
    120  CD1       50.7160  -61.8470  -43.7660 C.ar  221  PHE221     -0.0042
    121  CD2       50.7610  -59.6210  -42.9170 C.ar  221  PHE221     -0.0042
    122  CE1       51.2800  -61.4020  -44.9880 C.ar  221  PHE221     -0.0003
    123  CE2       51.3320  -59.1590  -44.1290 C.ar  221  PHE221     -0.0003
    124  CZ        51.5820  -60.0640  -45.1620 C.ar  221  PHE221     -0.0000
    125  N         53.1020  -61.3240  -41.0510 N.am  222  THR222     -0.1939
    126  CA        54.2060  -60.3910  -41.2440 C.3   222  THR222      0.2028
    127  C         54.5720  -60.4180  -42.7270 C.2   222  THR222      0.2643
    128  O         54.7500  -61.4880  -43.3270 O.2   222  THR222     -0.2714
    129  CB        55.4310  -60.7770  -40.3690 C.3   222  THR222      0.1808
    130  OG1       55.0450  -60.8180  -38.9780 O.3   222  THR222     -0.2208
    131  CG2       56.5900  -59.7770  -40.5790 C.3   222  THR222      0.0379
    132  N         54.6560  -59.2450  -43.3350 N.am  223  GLY223     -0.1939
    133  CA        54.8810  -59.1840  -44.7660 C.3   223  GLY223      0.2014
    134  C         54.7270  -57.7760  -45.3040 C.2   223  GLY223      0.2639
    135  O         54.9390  -56.7850  -44.5820 O.2   223  GLY223     -0.2714
    136  N         54.3200  -57.6780  -46.5630 N.am  224  SER224     -0.1949
    137  CA        54.2800  -56.3920  -47.2410 C.3   224  SER224      0.1924
    138  C         52.9440  -55.6780  -47.0260 C.2   224  SER224      0.2314
    139  O         51.9340  -56.3060  -46.7030 O.2   224  SER224     -0.2863
    140  CB        54.4610  -56.6120  -48.7430 C.3   224  SER224      0.2116
    141  OG        53.2820  -57.1940  -49.2630 O.3   224  SER224     -0.2180
    142  N         49.9460  -56.9730  -49.3700 N.3   227  VAL227     -0.1245
    143  CA        49.4060  -58.2640  -48.9250 C.3   227  VAL227      0.1561
    144  C         48.7000  -58.0990  -47.5730 C.2   227  VAL227      0.2260
    145  O         47.6630  -58.7360  -47.3020 O.2   227  VAL227     -0.2867
    146  CB        50.4900  -59.3700  -48.8350 C.3   227  VAL227      0.0252
    147  CG1       49.9060  -60.6110  -48.1610 C.3   227  VAL227      0.0019
    148  CG2       51.0240  -59.7250  -50.2400 C.3   227  VAL227      0.0019
    149  N         45.2250  -56.5840  -48.0400 N.3   230  LEU230     -0.1231
    150  CA        44.3490  -57.6340  -48.5700 C.3   230  LEU230      0.1693
    151  C         43.9100  -58.5810  -47.4580 C.2   230  LEU230      0.2591
    152  O         42.7580  -58.9970  -47.3680 O.2   230  LEU230     -0.2718
    153  CB        45.1010  -58.4120  -49.6460 C.3   230  LEU230      0.0284
    154  CG        44.3890  -59.4550  -50.4790 C.3   230  LEU230      0.0019
    155  CD1       44.5240  -59.1040  -51.9750 C.3   230  LEU230      0.0001
    156  CD2       44.9490  -60.8550  -50.1830 C.3   230  LEU230      0.0001
    157  N         44.8370  -58.9610  -46.5940 N.am  231  ILE231     -0.1980
    158  CA        44.4360  -59.8080  -45.4690 C.3   231  ILE231      0.1595
    159  C         43.3930  -59.1240  -44.5570 C.2   231  ILE231      0.2287
    160  O         42.4120  -59.7450  -44.1420 O.2   231  ILE231     -0.2864
    161  CB        45.6400  -60.2120  -44.6420 C.3   231  ILE231      0.0276
    162  CG1       46.4450  -61.2630  -45.4260 C.3   231  ILE231      0.0022
    163  CG2       45.1720  -60.7740  -43.2780 C.3   231  ILE231      0.0022
    164  CD1       47.8310  -61.4620  -44.9010 C.3   231  ILE231      0.0001
    165  N         64.3730  -52.7430  -49.6690 N.3   376  PHE376     -0.1241
    166  CA        64.6310  -53.8460  -48.7690 C.3   376  PHE376      0.1605
    167  C         65.9840  -54.4750  -49.1070 C.2   376  PHE376      0.2264
    168  O         66.0780  -55.6700  -49.3500 O.2   376  PHE376     -0.2867
    169  CB        63.4920  -54.8500  -48.9340 C.3   376  PHE376      0.0534
    170  CG        63.1370  -55.5990  -47.6850 C.ar  376  PHE376     -0.0203
    171  CD1       62.8090  -54.9160  -46.5170 C.ar  376  PHE376     -0.0042
    172  CD2       63.0880  -57.0040  -47.6780 C.ar  376  PHE376     -0.0042
    173  CE1       62.4400  -55.6140  -45.3540 C.ar  376  PHE376     -0.0003
    174  CE2       62.7360  -57.7100  -46.5160 C.ar  376  PHE376     -0.0003
    175  CZ        62.4130  -57.0110  -45.3560 C.ar  376  PHE376     -0.0000
@<TRIPOS>BOND
     1    93    90    1
     2    90    91    1
     3    90    89    1
     4    92    91    2
     5    89    84   am
     6    81    79    1
     7    88    82    1
     8    88    87    1
     9    73    71   ar
    10    70    71    1
    11    70    69    1
    12    84    83    1
    13    84    85    2
    14    82    83    1
    15    87    86    1
    16    71    72   ar
    17    86    83    1
    18    79    80    1
    19    79    78    1
    20    69    66    1
    21   155   154    1
    22    68    67    2
    23    78    75    1
    24    75    74    1
    25    75    76    1
    26    67    74   am
    27    67    66    1
    28    66    65    1
    29    77    76    2
    30   105   104    1
    31   154   156    1
    32   154   153    1
    33   148   146    1
    34   102   103    1
    35   102    99    1
    36    65    60   am
    37    94    95    1
    38   103   104    1
    39   165   166    1
    40   153   150    1
    41    63    62    1
    42    32    33   ar
    43    32    30   ar
    44   142   143    1
    45   168   167    2
    46    98    99    1
    47    98    96   am
    48   141   140    1
    49    33    31   ar
    50   167   166    1
    51    95    96    1
    52    30    28   ar
    53   169   166    1
    54   169   170    1
    55   143   146    1
    56   143   144    1
    57    99   100    1
    58   146   147    1
    59    60    61    2
    60    60    59    1
    61   140   137    1
    62   150   149    1
    63   150   151    1
    64    96    97    2
    65    31    29   ar
    66    28    29   ar
    67    28    27    1
    68    62    59    1
    69    62    64    1
    70    59    58    1
    71    27    24    1
    72   100   101    2
    73   170   172   ar
    74   170   171   ar
    75   172   174   ar
    76   144   145    2
    77    50    49    1
    78   151   152    2
    79   151   157   am
    80    48    49    1
    81    48    47    1
    82   137   138    1
    83   137   136    1
    84   138   139    2
    85    54    53    2
    86   157   158    1
    87   136   134   am
    88    58    53   am
    89   171   173   ar
    90   174   175   ar
    91    47    46    1
    92    24    23    1
    93    24    25    1
    94    53    52    1
    95    23    18   am
    96    25    26    2
    97    25    34   am
    98   158   161    1
    99   158   159    1
   100   162   164    1
   101   162   161    1
   102   111   110    1
   103   111   113    1
   104   175   173   ar
   105   134   133    1
   106   134   135    2
   107   124   122   ar
   108   124   123   ar
   109   110   112    1
   110   110   107    1
   111    18    17    1
   112    18    19    2
   113    34    35    1
   114   122   120   ar
   115    46    43    1
   116    17    20    1
   117    17    16    1
   118    12    11    2
   119   133   132    1
   120    52    55    1
   121    52    51    1
   122   161   163    1
   123    56    55    1
   124    56    57    1
   125     7     5    1
   126   159   160    2
   127    35    38    1
   128    35    36    1
   129    20    21    1
   130    51    44   am
   131    51    57    1
   132    45    44    2
   133   106   107    1
   134    38    39    1
   135    44    43    1
   136   123   121   ar
   137    43    42    1
   138   107   108    1
   139   120   119   ar
   140    11    16   am
   141    11    10    1
   142     8     6    1
   143    16    22    1
   144   108   109    2
   145   132   127   am
   146   128   127    2
   147     6     5    1
   148    39    40    2
   149    39    41   am
   150    36    37    2
   151     5     2    1
   152    21    22    1
   153   121   119   ar
   154   119   118    1
   155   127   126    1
   156     9    10    1
   157     9     3   am
   158    10    13    1
   159     2     3    1
   160     2     1    1
   161    14    13    1
   162     3     4    2
   163    13    15    1
   164   118   115    1
   165   126   125    1
   166   126   129    1
   167   125   116   am
   168   131   129    1
   169   115   116    1
   170   115   114    1
   171   129   130    1
   172   116   117    2
