@<TRIPOS>MOLECULE
tmp/4i3wD00.pdb
 128 120 0 0 0
SMALL
GASTEIGER

@<TRIPOS>ATOM
      1  N         68.8400  -65.7630  -32.4560 N.3    97  ARG97      -0.1245
      2  CA        67.5970  -65.0460  -32.1130 C.3    97  ARG97       0.1563
      3  C         66.4540  -66.0220  -31.8050 C.2    97  ARG97       0.2260
      4  O         65.7310  -65.8730  -30.8140 O.2    97  ARG97      -0.2867
      5  CB        67.2020  -64.0570  -33.2350 C.3    97  ARG97       0.0307
      6  CG        68.1360  -62.8010  -33.3020 C.3    97  ARG97       0.0489
      7  CD        67.5150  -61.7130  -34.1820 C.3    97  ARG97       0.2205
      8  NE        66.2370  -61.2410  -33.6240 N.pl3  97  ARG97      -0.0865
      9  CZ        65.3310  -60.5640  -34.3240 C.cat  97  ARG97       0.5346
     10  NH1       65.5590  -60.2920  -35.6130 N.pl3  97  ARG97       0.1354
     11  NH2       64.2120  -60.1580  -33.7410 N.pl3  97  ARG97       0.1354
     12  N         62.1940  -62.9380  -44.9970 N.3   147  ASN147     -0.1225
     13  CA        63.4240  -62.3470  -44.4920 C.3   147  ASN147      0.1785
     14  C         63.9950  -62.9700  -43.2110 C.2   147  ASN147      0.2597
     15  O         65.1970  -62.8560  -42.9560 O.2   147  ASN147     -0.2718
     16  CB        63.2960  -60.8270  -44.3460 C.3   147  ASN147      0.1169
     17  CG        62.3780  -60.4370  -43.2110 C.2   147  ASN147      0.2627
     18  OD1       61.3120  -61.0310  -43.0190 O.2   147  ASN147     -0.2716
     19  ND2       62.7870  -59.4440  -42.4420 N.am  147  ASN147     -0.0877
     20  N         63.1560  -63.6110  -42.4010 N.am  148  HIS148     -0.1975
     21  CA        63.6470  -64.4160  -41.2640 C.3   148  HIS148      0.1656
     22  C         62.9510  -65.7940  -41.2650 C.2   148  HIS148      0.2291
     23  O         62.0260  -66.0430  -40.4680 O.2   148  HIS148     -0.2864
     24  CB        63.4060  -63.7380  -39.9050 C.3   148  HIS148      0.0771
     25  CG        64.0700  -62.3990  -39.7440 C.ar  148  HIS148      0.0820
     26  ND1       65.4360  -62.2200  -39.8350 N.ar  148  HIS148     -0.2267
     27  CD2       63.5610  -61.1880  -39.4060 C.ar  148  HIS148      0.1154
     28  CE1       65.7320  -60.9480  -39.6260 C.ar  148  HIS148      0.1986
     29  NE2       64.6090  -60.2990  -39.3660 N.ar  148  HIS148     -0.2212
     30  N         63.2910  -67.1550  -37.5970 N.3   151  ASN151     -0.1225
     31  CA        62.8770  -66.3430  -36.4470 C.3   151  ASN151      0.1785
     32  C         61.4460  -65.8410  -36.5330 C.2   151  ASN151      0.2597
     33  O         60.7700  -65.6810  -35.5110 O.2   151  ASN151     -0.2718
     34  CB        63.8300  -65.1750  -36.2110 C.3   151  ASN151      0.1169
     35  CG        63.8890  -64.7680  -34.7410 C.2   151  ASN151      0.2627
     36  OD1       63.9770  -65.6360  -33.8530 O.2   151  ASN151     -0.2716
     37  ND2       63.8180  -63.4600  -34.4750 N.am  151  ASN151     -0.0877
     38  N         60.9560  -65.5900  -37.7450 N.am  152  MET152     -0.1979
     39  CA        59.5490  -65.1660  -37.8780 C.3   152  MET152      0.1605
     40  C         58.5870  -66.2960  -37.5050 C.2   152  MET152      0.2287
     41  O         57.5040  -66.0590  -36.9550 O.2   152  MET152     -0.2864
     42  CB        59.2630  -64.6540  -39.2860 C.3   152  MET152      0.0413
     43  CG        59.8720  -63.3100  -39.5530 C.3   152  MET152      0.0598
     44  SD        58.8850  -61.9570  -38.9240 S.3   152  MET152     -0.1393
     45  CE        59.3160  -61.9090  -37.1430 C.3   152  MET152      0.0692
     46  N         53.1020  -61.3240  -41.0510 N.3   222  THR222     -0.1218
     47  CA        54.2060  -60.3910  -41.2440 C.3   222  THR222      0.1862
     48  C         54.5720  -60.4180  -42.7270 C.2   222  THR222      0.2287
     49  O         54.7500  -61.4880  -43.3270 O.2   222  THR222     -0.2866
     50  CB        55.4310  -60.7770  -40.3690 C.3   222  THR222      0.1770
     51  OG1       55.0450  -60.8180  -38.9780 O.3   222  THR222     -0.2211
     52  CG2       56.5900  -59.7770  -40.5790 C.3   222  THR222      0.0375
     53  N         51.9680  -57.0820  -39.1350 N.3   243  GLU243     -0.1231
     54  CA        53.1830  -56.2710  -39.1570 C.3   243  GLU243      0.1699
     55  C         53.6230  -56.1640  -40.5990 C.2   243  GLU243      0.2592
     56  O         53.8600  -57.1590  -41.2950 O.2   243  GLU243     -0.2718
     57  CB        54.3070  -56.8400  -38.2780 C.3   243  GLU243      0.0402
     58  CG        54.0150  -56.7620  -36.7700 C.3   243  GLU243      0.1161
     59  CD        53.6390  -55.3440  -36.2780 C.2   243  GLU243      0.3649
     60  OE1       54.1360  -54.3130  -36.8380 O.co2 243  GLU243     -0.2457
     61  OE2       52.8460  -55.2720  -35.3010 O.co2 243  GLU243     -0.2457
     62  N         53.6600  -54.9310  -41.0620 N.am  244  LEU244     -0.1980
     63  CA        53.9560  -54.6670  -42.4360 C.3   244  LEU244      0.1596
     64  C         55.3560  -54.0620  -42.4270 C.2   244  LEU244      0.2287
     65  O         56.0850  -54.2000  -41.4400 O.2   244  LEU244     -0.2864
     66  CB        52.8880  -53.7200  -42.9860 C.3   244  LEU244      0.0297
     67  CG        51.5060  -54.3530  -43.2520 C.3   244  LEU244      0.0022
     68  CD1       51.3090  -55.7240  -42.6510 C.3   244  LEU244      0.0001
     69  CD2       50.3670  -53.4440  -42.8200 C.3   244  LEU244      0.0001
     70  N         65.3270  -56.2570  -43.2770 N.3   279  ARG279     -0.1231
     71  CA        64.6210  -56.1630  -42.0070 C.3   279  ARG279      0.1694
     72  C         63.5920  -55.0380  -42.1100 C.2   279  ARG279      0.2592
     73  O         63.8860  -53.9560  -42.6620 O.2   279  ARG279     -0.2718
     74  CB        65.5930  -55.8220  -40.8580 C.3   279  ARG279      0.0321
     75  CG        66.4860  -56.9390  -40.3770 C.3   279  ARG279      0.0489
     76  CD        67.2760  -56.4700  -39.2070 C.3   279  ARG279      0.2205
     77  NE        66.5130  -56.6590  -37.9710 N.pl3 279  ARG279     -0.0865
     78  CZ        66.9660  -56.3230  -36.7670 C.cat 279  ARG279      0.5346
     79  NH1       68.1460  -55.7210  -36.6450 N.pl3 279  ARG279      0.1354
     80  NH2       66.2410  -56.5840  -35.6930 N.pl3 279  ARG279      0.1354
     81  N         62.4010  -55.2740  -41.5560 N.am  280  CYS280     -0.1956
     82  CA        61.3970  -54.2100  -41.4790 C.3   280  CYS280      0.1843
     83  C         62.0020  -52.9980  -40.7710 C.2   280  CYS280      0.2626
     84  O         61.6760  -51.8530  -41.1050 O.2   280  CYS280     -0.2714
     85  CB        60.1550  -54.7080  -40.7650 C.3   280  CYS280      0.0997
     86  SG        60.5510  -55.4100  -39.1150 S.3   280  CYS280     -0.0797
     87  N         62.9370  -53.2470  -39.8440 N.am  281  THR281     -0.1950
     88  CA        63.5620  -52.1590  -39.0730 C.3   281  THR281      0.1897
     89  C         64.9780  -51.8550  -39.5120 C.2   281  THR281      0.2313
     90  O         65.7440  -51.2230  -38.7630 O.2   281  THR281     -0.2863
     91  CB        63.5930  -52.5140  -37.5720 C.3   281  THR281      0.1794
     92  OG1       64.1710  -53.8180  -37.4230 O.3   281  THR281     -0.2208
     93  CG2       62.1720  -52.5450  -36.9880 C.3   281  THR281      0.0378
     94  N         66.7170  -51.2640  -35.5740 N.3   434  GLY434     -0.1225
     95  CA        66.4350  -52.6880  -35.4790 C.3   434  GLY434      0.1811
     96  C         66.6070  -53.2640  -34.0720 C.2   434  GLY434      0.2280
     97  O         66.1370  -54.3750  -33.8060 O.2   434  GLY434     -0.2866
     98  N         66.0880  -54.5170  -30.4940 N.3   436  ARG436     -0.1245
     99  CA        65.0610  -54.8230  -29.4800 C.3   436  ARG436      0.1563
    100  C         65.4540  -56.1160  -28.7690 C.2   436  ARG436      0.2260
    101  O         66.3310  -56.8480  -29.2610 O.2   436  ARG436     -0.2867
    102  CB        63.6880  -55.0240  -30.1340 C.3   436  ARG436      0.0307
    103  CG        63.6450  -56.1310  -31.2000 C.3   436  ARG436      0.0489
    104  CD        62.1940  -56.3630  -31.6110 C.3   436  ARG436      0.2205
    105  NE        62.0490  -57.2500  -32.7570 N.pl3 436  ARG436     -0.0865
    106  CZ        61.1290  -58.2180  -32.8650 C.cat 436  ARG436      0.5346
    107  NH1       60.2640  -58.4460  -31.8750 N.pl3 436  ARG436      0.1354
    108  NH2       61.0600  -58.9550  -33.9850 N.pl3 436  ARG436      0.1354
    109  N         56.7220  -54.8490  -29.5120 N.3   442  PHE442     -0.1241
    110  CA        57.1810  -54.4880  -30.8390 C.3   442  PHE442      0.1605
    111  C         55.9910  -54.2960  -31.7760 C.2   442  PHE442      0.2264
    112  O         55.0920  -55.1550  -31.8590 O.2   442  PHE442     -0.2867
    113  CB        58.0700  -55.5820  -31.4100 C.3   442  PHE442      0.0534
    114  CG        58.4370  -55.3620  -32.8450 C.ar  442  PHE442     -0.0203
    115  CD1       59.4770  -54.5210  -33.1820 C.ar  442  PHE442     -0.0042
    116  CD2       57.7200  -55.9740  -33.8610 C.ar  442  PHE442     -0.0042
    117  CE1       59.8210  -54.3190  -34.5050 C.ar  442  PHE442     -0.0003
    118  CE2       58.0530  -55.7560  -35.1970 C.ar  442  PHE442     -0.0003
    119  CZ        59.1070  -54.9260  -35.5100 C.ar  442  PHE442     -0.0000
    120  N         53.5780  -56.9990  -30.6390 N.3   454  GLU454     -0.1245
    121  CA        54.1000  -58.3470  -30.8440 C.3   454  GLU454      0.1567
    122  C         55.3300  -58.4300  -29.9000 C.2   454  GLU454      0.2260
    123  O         55.5180  -57.5660  -29.0420 O.2   454  GLU454     -0.2867
    124  CB        54.6240  -58.4620  -32.2930 C.3   454  GLU454      0.0388
    125  CG        53.8640  -59.3600  -33.2620 C.3   454  GLU454      0.1160
    126  CD        54.7470  -59.7570  -34.4590 C.2   454  GLU454      0.3649
    127  OE1       55.5470  -58.9010  -34.8940 O.co2 454  GLU454     -0.2457
    128  OE2       54.6930  -60.9330  -34.9220 O.co2 454  GLU454     -0.2457
@<TRIPOS>BOND
     1    12    13    1
     2    13    16    1
     3    13    14    1
     4    16    17    1
     5    49    48    2
     6    70    71    1
     7    67    66    1
     8    67    69    1
     9    67    68    1
    10    17    18    2
    11    17    19   am
    12    14    15    2
    13    14    20   am
    14    66    63    1
    15    48    47    1
    16    73    72    2
    17    63    64    1
    18    63    62    1
    19    64    65    2
    20    20    21    1
    21    72    71    1
    22    72    81   am
    23    71    74    1
    24    81    82    1
    25    82    83    1
    26    82    85    1
    27    56    55    2
    28    22    21    1
    29    22    23    2
    30    21    24    1
    31    47    46    1
    32    47    50    1
    33    84    83    2
    34    62    55   am
    35    74    75    1
    36    83    87   am
    37    85    86    1
    38    55    54    1
    39    52    50    1
    40    75    76    1
    41    50    51    1
    42    24    25    1
    43    87    88    1
    44    26    25   ar
    45    26    28   ar
    46    25    27   ar
    47    28    29   ar
    48    43    42    1
    49    43    44    1
    50    89    88    1
    51    89    90    2
    52    27    29   ar
    53    42    39    1
    54    76    77    1
    55    54    53    1
    56    54    57    1
    57    88    91    1
    58    44    45    1
    59    57    58    1
    60    77    78    2
    61    39    38    1
    62    39    40    1
    63    38    32   am
    64    30    31    1
    65    91    92    1
    66    91    93    1
    67    40    41    2
    68    60    59   ar
    69    58    59    1
    70    78    79    1
    71    78    80    1
    72    32    31    1
    73    32    33    2
    74    31    34    1
    75    59    61   ar
    76    34    35    1
    77    10     9    1
    78    94    95    1
    79   119   118   ar
    80   119   117   ar
    81    95    96    1
    82   118   116   ar
    83   128   126   ar
    84   127   126   ar
    85    35    37   am
    86    35    36    2
    87   117   115   ar
    88   126   125    1
    89     9    11    1
    90     9     8    2
    91     7     8    1
    92     7     6    1
    93    96    97    2
    94   108   106    1
    95   116   114   ar
    96     6     5    1
    97   125   124    1
    98     5     2    1
    99   115   114   ar
   100   106   105    2
   101   106   107    1
   102   114   113    1
   103   105   104    1
   104     1     2    1
   105   124   121    1
   106     2     3    1
   107   112   111    2
   108     3     4    2
   109   111   110    1
   110   104   103    1
   111   113   110    1
   112   103   102    1
   113   121   120    1
   114   121   122    1
   115   110   109    1
   116    98    99    1
   117   102    99    1
   118   122   123    2
   119    99   100    1
   120   101   100    2
