@<TRIPOS>MOLECULE
tmp/4i3wC01.pdb
 193 189 0 0 0
SMALL
GASTEIGER

@<TRIPOS>ATOM
      1  N         71.5810  -66.8420    8.0980 N.3   143  ILE143     -0.1231
      2  CA        71.7230  -67.7720    9.2140 C.3   143  ILE143      0.1692
      3  C         70.6090  -68.8170    9.0840 C.2   143  ILE143      0.2593
      4  O         69.4190  -68.4970    9.0430 O.2   143  ILE143     -0.2718
      5  CB        71.6280  -67.0260   10.5820 C.3   143  ILE143      0.0266
      6  CG1       72.7520  -65.9800   10.7010 C.3   143  ILE143      0.0019
      7  CG2       71.7040  -67.9880   11.7270 C.3   143  ILE143      0.0020
      8  CD1       72.5260  -65.0000   11.8400 C.3   143  ILE143      0.0001
      9  N         70.9880  -70.0710    8.9780 N.am  144  THR144     -0.1940
     10  CA        70.0190  -71.0960    8.5660 C.3   144  THR144      0.2013
     11  C         69.8870  -72.2130    9.6060 C.2   144  THR144      0.2484
     12  O         70.8060  -72.4710   10.3800 O.2   144  THR144     -0.2729
     13  CB        70.4120  -71.7240    7.2100 C.3   144  THR144      0.1807
     14  OG1       71.7610  -72.2290    7.2880 O.3   144  THR144     -0.2208
     15  CG2       70.3230  -70.6910    6.0700 C.3   144  THR144      0.0379
     16  N         68.7280  -72.8670    9.6280 N.am  145  PRO145     -0.2715
     17  CA        68.4500  -73.8340   10.6810 C.3   145  PRO145      0.1536
     18  C         68.7330  -75.2530   10.1850 C.2   145  PRO145      0.2599
     19  O         69.1370  -75.4550    9.0150 O.2   145  PRO145     -0.2715
     20  CB        66.9460  -73.6420   10.9100 C.3   145  PRO145      0.0310
     21  CG        66.4400  -73.3840    9.4770 C.3   145  PRO145      0.0237
     22  CD        67.5370  -72.5760    8.8000 C.3   145  PRO145      0.0939
     23  N         68.4820  -76.2410   11.0380 N.am  146  PHE146     -0.1960
     24  CA        68.8250  -77.6390   10.7240 C.3   146  PHE146      0.1771
     25  C         67.8010  -78.3680    9.8790 C.2   146  PHE146      0.2619
     26  O         68.1500  -79.3880    9.2670 O.2   146  PHE146     -0.2715
     27  CB        69.0640  -78.4520   12.0050 C.3   146  PHE146      0.0574
     28  CG        67.8200  -78.6570   12.8280 C.ar  146  PHE146     -0.0200
     29  CD1       66.8510  -79.5940   12.4460 C.ar  146  PHE146     -0.0042
     30  CD2       67.6120  -77.9100   13.9880 C.ar  146  PHE146     -0.0042
     31  CE1       65.6850  -79.7860   13.2110 C.ar  146  PHE146     -0.0003
     32  CE2       66.4610  -78.0930   14.7540 C.ar  146  PHE146     -0.0003
     33  CZ        65.4940  -79.0380   14.3620 C.ar  146  PHE146     -0.0000
     34  N         66.5610  -77.8810    9.8330 N.am  147  ASN147     -0.1972
     35  CA        65.4810  -78.7260    9.2920 C.3   147  ASN147      0.1688
     36  C         65.4570  -78.8530    7.7610 C.2   147  ASN147      0.2292
     37  O         64.8910  -79.8260    7.2410 O.2   147  ASN147     -0.2864
     38  CB        64.0990  -78.3040    9.8310 C.3   147  ASN147      0.1181
     39  CG        63.6410  -76.9690    9.2640 C.2   147  ASN147      0.2629
     40  OD1       64.4040  -75.9940    9.2670 O.2   147  ASN147     -0.2716
     41  ND2       62.3940  -76.9060    8.8000 N.am  147  ASN147     -0.0877
     42  N         76.1150  -68.6460    7.6660 N.3   170  LYS170     -0.1231
     43  CA        76.4890  -69.5130    8.7770 C.3   170  LYS170      0.1678
     44  C         75.3970  -70.5380    9.0180 C.2   170  LYS170      0.2434
     45  O         74.4040  -70.2600    9.6570 O.2   170  LYS170     -0.2733
     46  CB        76.6750  -68.7330   10.0680 C.3   170  LYS170      0.0284
     47  CG        77.2050  -69.5750   11.2080 C.3   170  LYS170      0.0035
     48  CD        76.7950  -69.0600   12.5600 C.3   170  LYS170      0.0206
     49  CE        75.3450  -69.3950   12.8380 C.3   170  LYS170      0.1093
     50  NZ        75.0610  -70.8450   12.6150 N.3   170  LYS170     -0.1314
     51  N         75.5830  -71.7580    8.5160 N.am  171  PRO171     -0.2718
     52  CA        74.5810  -72.8060    8.7640 C.3   171  PRO171      0.1535
     53  C         74.6580  -73.2290   10.2100 C.2   171  PRO171      0.2599
     54  O         75.6850  -72.9410   10.8920 O.2   171  PRO171     -0.2715
     55  CB        75.0340  -73.9230    7.8450 C.3   171  PRO171      0.0310
     56  CG        76.5060  -73.7270    7.7230 C.3   171  PRO171      0.0237
     57  CD        76.6710  -72.2200    7.6580 C.3   171  PRO171      0.0939
     58  N         73.6070  -73.8860   10.6910 N.am  172  THR172     -0.1937
     59  CA        73.6560  -74.4390   12.0440 C.3   172  THR172      0.2028
     60  C         74.8000  -75.4390   12.1630 C.2   172  THR172      0.2642
     61  O         75.0710  -76.2180   11.2150 O.2   172  THR172     -0.2714
     62  CB        72.3310  -75.1450   12.4250 C.3   172  THR172      0.1808
     63  OG1       72.4890  -75.8230   13.6850 O.3   172  THR172     -0.2208
     64  CG2       71.9420  -76.1560   11.3410 C.3   172  THR172      0.0379
     65  N         75.4620  -75.4360   13.3150 N.am  173  GLU173     -0.1963
     66  CA        76.5070  -76.4240   13.6000 C.3   173  GLU173      0.1733
     67  C         75.9890  -77.8600   13.5270 C.2   173  GLU173      0.2616
     68  O         76.7780  -78.7990   13.4130 O.2   173  GLU173     -0.2715
     69  CB        77.1560  -76.1660   14.9940 C.3   173  GLU173      0.0429
     70  CG        76.2430  -76.4210   16.1870 C.3   173  GLU173      0.1163
     71  CD        75.3100  -75.2420   16.5040 C.2   173  GLU173      0.3649
     72  OE1       75.2100  -74.2620   15.6880 O.co2 173  GLU173     -0.2457
     73  OE2       74.6600  -75.3070   17.5830 O.co2 173  GLU173     -0.2457
     74  N         74.6770  -78.0500   13.6240 N.am  174  LEU174     -0.1977
     75  CA        74.1120  -79.4290   13.5800 C.3   174  LEU174      0.1596
     76  C         74.1230  -80.0360   12.1750 C.2   174  LEU174      0.2287
     77  O         74.2260  -81.2620   12.0210 O.2   174  LEU174     -0.2864
     78  CB        72.6680  -79.4770   14.1490 C.3   174  LEU174      0.0297
     79  CG        72.5430  -79.0510   15.6080 C.3   174  LEU174      0.0022
     80  CD1       71.0910  -78.9930   16.0570 C.3   174  LEU174      0.0001
     81  CD2       73.4030  -79.9940   16.4910 C.3   174  LEU174      0.0001
     82  N         77.7500  -70.8680   17.9350 N.3   203  PRO203     -0.2116
     83  CA        77.0730  -69.5750   18.0460 C.3   203  PRO203      0.1372
     84  C         77.8420  -68.6300   18.9640 C.2   203  PRO203      0.2244
     85  O         77.9410  -67.4350   18.6720 O.2   203  PRO203     -0.2868
     86  CB        75.7120  -69.9450   18.6480 C.3   203  PRO203      0.0268
     87  CG        75.4860  -71.3660   18.1830 C.3   203  PRO203      0.0207
     88  CD        76.8500  -72.0080   18.1900 C.3   203  PRO203      0.0892
     89  N         78.5230  -66.3620   15.9810 N.3   207  GLY207     -0.1210
     90  CA        77.1510  -65.9380   15.8140 C.3   207  GLY207      0.1956
     91  C         76.9660  -64.4340   15.9210 C.2   207  GLY207      0.2611
     92  O         76.2240  -63.8060   15.1470 O.2   207  GLY207     -0.2717
     93  N         77.6270  -63.8210   16.8900 N.am  208  MET208     -0.1979
     94  CA        77.4100  -62.3940   17.0960 C.3   208  MET208      0.1605
     95  C         77.9560  -61.5710   15.9190 C.2   208  MET208      0.2287
     96  O         77.3480  -60.5770   15.5180 O.2   208  MET208     -0.2864
     97  CB        78.0210  -61.9560   18.4200 C.3   208  MET208      0.0413
     98  CG        77.7040  -60.5240   18.8220 C.3   208  MET208      0.0598
     99  SD        75.9520  -60.1680   19.1120 S.3   208  MET208     -0.1393
    100  CE        75.5060  -61.2830   20.4320 C.3   208  MET208      0.0692
    101  N         75.6990  -61.0810   13.0860 N.3   211  ILE211     -0.1245
    102  CA        74.6090  -60.1650   13.4290 C.3   211  ILE211      0.1561
    103  C         75.0350  -58.6730   13.4150 C.2   211  ILE211      0.2260
    104  O         74.2230  -57.7960   13.1550 O.2   211  ILE211     -0.2867
    105  CB        74.0520  -60.5350   14.8630 C.3   211  ILE211      0.0252
    106  CG1       73.3710  -61.8820   14.8090 C.3   211  ILE211      0.0019
    107  CG2       73.0590  -59.5300   15.3800 C.3   211  ILE211      0.0019
    108  CD1       72.5770  -62.0730   13.5420 C.3   211  ILE211      0.0001
    109  N         67.2580  -64.5880    8.6270 N.3   221  PHE221     -0.1227
    110  CA        67.3710  -65.6400    9.6050 C.3   221  PHE221      0.1736
    111  C         66.1330  -66.5170    9.5850 C.2   221  PHE221      0.2596
    112  O         65.0050  -66.0340    9.4630 O.2   221  PHE221     -0.2718
    113  CB        67.5330  -65.0210   10.9990 C.3   221  PHE221      0.0547
    114  CG        67.3440  -65.9940   12.1310 C.ar  221  PHE221     -0.0202
    115  CD1       68.4150  -66.7350   12.6200 C.ar  221  PHE221     -0.0042
    116  CD2       66.1070  -66.1540   12.7130 C.ar  221  PHE221     -0.0042
    117  CE1       68.2440  -67.6240   13.6860 C.ar  221  PHE221     -0.0003
    118  CE2       65.9190  -67.0330   13.7610 C.ar  221  PHE221     -0.0003
    119  CZ        66.9910  -67.7760   14.2570 C.ar  221  PHE221     -0.0000
    120  N         66.3560  -67.8180    9.7230 N.am  222  THR222     -0.1939
    121  CA        65.2800  -68.7830    9.9300 C.3   222  THR222      0.2028
    122  C         65.6990  -69.6820   11.0890 C.2   222  THR222      0.2643
    123  O         66.8260  -70.1950   11.1270 O.2   222  THR222     -0.2714
    124  CB        65.0170  -69.6120    8.6550 C.3   222  THR222      0.1808
    125  OG1       64.6900  -68.7310    7.5800 O.3   222  THR222     -0.2208
    126  CG2       63.8600  -70.6140    8.8580 C.3   222  THR222      0.0379
    127  N         64.8060  -69.8660   12.0510 N.am  223  GLY223     -0.1939
    128  CA        65.1510  -70.6310   13.2340 C.3   223  GLY223      0.2014
    129  C         64.0930  -70.4720   14.3050 C.2   223  GLY223      0.2639
    130  O         62.9160  -70.2520   13.9880 O.2   223  GLY223     -0.2714
    131  N         64.4960  -70.5730   15.5710 N.am  224  SER224     -0.1949
    132  CA        63.5330  -70.5550   16.7020 C.3   224  SER224      0.1924
    133  C         63.1820  -69.1440   17.1870 C.2   224  SER224      0.2314
    134  O         63.9410  -68.1910   16.9500 O.2   224  SER224     -0.2863
    135  CB        64.1250  -71.3330   17.8880 C.3   224  SER224      0.2116
    136  OG        65.1440  -70.5730   18.5410 O.3   224  SER224     -0.2180
    137  N         65.9980  -67.5000   19.6780 N.3   227  VAL227     -0.1245
    138  CA        67.1250  -67.0030   18.9130 C.3   227  VAL227      0.1561
    139  C         66.7200  -65.8200   18.0460 C.2   227  VAL227      0.2260
    140  O         67.4470  -64.8280   17.9830 O.2   227  VAL227     -0.2867
    141  CB        67.7810  -68.1010   18.0590 C.3   227  VAL227      0.0252
    142  CG1       68.8810  -67.4970   17.1960 C.3   227  VAL227      0.0019
    143  CG2       68.3310  -69.1910   18.9720 C.3   227  VAL227      0.0019
    144  N         66.4630  -62.6080   20.0300 N.3   230  LEU230     -0.1231
    145  CA        67.8160  -62.1800   20.3720 C.3   230  LEU230      0.1693
    146  C         68.4850  -61.4770   19.1950 C.2   230  LEU230      0.2591
    147  O         69.1620  -60.4530   19.3600 O.2   230  LEU230     -0.2718
    148  CB        68.6210  -63.4000   20.8000 C.3   230  LEU230      0.0284
    149  CG        70.0520  -63.2180   21.2830 C.3   230  LEU230      0.0019
    150  CD1       70.2100  -63.8290   22.6450 C.3   230  LEU230      0.0001
    151  CD2       71.0400  -63.8290   20.3040 C.3   230  LEU230      0.0001
    152  N         68.2850  -62.0190   17.9960 N.am  231  ILE231     -0.1980
    153  CA        68.8160  -61.3780   16.8110 C.3   231  ILE231      0.1595
    154  C         68.1920  -60.0030   16.6410 C.2   231  ILE231      0.2287
    155  O         68.9030  -59.0200   16.3830 O.2   231  ILE231     -0.2864
    156  CB        68.6260  -62.2460   15.5630 C.3   231  ILE231      0.0276
    157  CG1       69.6430  -63.3820   15.6050 C.3   231  ILE231      0.0022
    158  CG2       68.8100  -61.4050   14.3000 C.3   231  ILE231      0.0022
    159  CD1       69.3010  -64.5450   14.7220 C.3   231  ILE231      0.0001
    160  N         65.9390  -84.5200   14.8020 N.3   323  ILE323     -0.1231
    161  CA        67.2930  -83.9940   14.8170 C.3   323  ILE323      0.1692
    162  C         68.1920  -84.6460   15.8880 C.2   323  ILE323      0.2592
    163  O         69.3970  -84.8570   15.6630 O.2   323  ILE323     -0.2718
    164  CB        67.3090  -82.4710   15.0050 C.3   323  ILE323      0.0266
    165  CG1       68.7530  -81.9440   14.9500 C.3   323  ILE323      0.0019
    166  CG2       66.6570  -82.0600   16.3380 C.3   323  ILE323      0.0020
    167  CD1       69.5330  -82.3600   13.7050 C.3   323  ILE323      0.0001
    168  N         67.6130  -84.9680   17.0420 N.am  324  HIS324     -0.1976
    169  CA        68.3600  -85.6950   18.0800 C.3   324  HIS324      0.1656
    170  C         67.4820  -86.3080   19.1710 C.2   324  HIS324      0.2291
    171  O         66.2730  -86.0500   19.2300 O.2   324  HIS324     -0.2864
    172  CB        69.4690  -84.8280   18.6830 C.3   324  HIS324      0.0771
    173  CG        68.9920  -83.4900   19.1530 C.ar  324  HIS324      0.0820
    174  ND1       67.9370  -83.3270   20.0160 N.ar  324  HIS324     -0.2267
    175  CD2       69.4420  -82.2290   18.8720 C.ar  324  HIS324      0.1154
    176  CE1       67.7410  -82.0370   20.2490 C.ar  324  HIS324      0.1986
    177  NE2       68.6450  -81.3570   19.5550 N.ar  324  HIS324     -0.2212
    178  N         65.4210  -83.9920   21.5750 N.3   327  ALA327     -0.1245
    179  CA        64.1670  -83.4890   20.9850 C.3   327  ALA327      0.1562
    180  C         63.0630  -84.5750   20.9670 C.2   327  ALA327      0.2260
    181  O         61.9070  -84.3270   21.3370 O.2   327  ALA327     -0.2867
    182  CB        64.4240  -82.9540   19.5770 C.3   327  ALA327      0.0290
    183  N         58.0480  -79.9990   17.3280 N.3   376  PHE376     -0.1241
    184  CA        58.7270  -80.0780   16.0500 C.3   376  PHE376      0.1605
    185  C         59.0480  -81.5330   15.6890 C.2   376  PHE376      0.2264
    186  O         60.1790  -81.8620   15.3570 O.2   376  PHE376     -0.2867
    187  CB        60.0240  -79.2090   16.1190 C.3   376  PHE376      0.0534
    188  CG        60.4160  -78.5680   14.8120 C.ar  376  PHE376     -0.0203
    189  CD1       59.5180  -77.7420   14.1380 C.ar  376  PHE376     -0.0042
    190  CD2       61.6720  -78.7640   14.2720 C.ar  376  PHE376     -0.0042
    191  CE1       59.8700  -77.1090   12.9390 C.ar  376  PHE376     -0.0003
    192  CE2       62.0680  -78.1140   13.0610 C.ar  376  PHE376     -0.0003
    193  CZ        61.1460  -77.3000   12.3990 C.ar  376  PHE376     -0.0000
@<TRIPOS>BOND
     1    15    13    1
     2    13    14    1
     3    13    10    1
     4    37    36    2
     5   125   124    1
     6    57    56    1
     7    57    51    1
     8    42    43    1
     9    56    55    1
    10    36    35    1
    11    55    52    1
    12     1     2    1
    13    51    52    1
    14    51    44   am
    15    10     9    1
    16    10    11    1
    17   109   110    1
    18   124   126    1
    19   124   121    1
    20    52    53    1
    21    43    44    1
    22    43    46    1
    23    22    21    1
    24    22    16    1
    25    41    39   am
    26     9     3   am
    27    19    18    2
    28    44    45    2
    29     4     3    2
    30     3     2    1
    31     2     5    1
    32    39    40    2
    33    39    38    1
    34    26    25    2
    35    35    38    1
    36    35    34    1
    37   112   111    2
    38    21    20    1
    39   111   110    1
    40   111   120   am
    41   110   113    1
    42    11    16   am
    43    11    12    2
    44    16    17    1
    45   120   121    1
    46    34    25   am
    47    25    24    1
    48   121   122    1
    49    46    47    1
    50    18    17    1
    51    18    23   am
    52    53    58   am
    53    53    54    2
    54     5     6    1
    55     5     7    1
    56    17    20    1
    57    58    59    1
    58     6     8    1
    59    24    23    1
    60    24    27    1
    61   113   114    1
    62   122   123    2
    63   122   127   am
    64    47    48    1
    65    61    60    2
    66    64    62    1
    67    27    28    1
    68    77    76    2
    69    59    60    1
    70    59    62    1
    71   127   128    1
    72   114   115   ar
    73   114   116   ar
    74    60    65   am
    75    76    75    1
    76   193   191   ar
    77   193   192   ar
    78    62    63    1
    79    29    28   ar
    80    29    31   ar
    81    48    49    1
    82    50    49    1
    83   115   117   ar
    84   116   118   ar
    85    28    30   ar
    86   191   189   ar
    87   192   190   ar
    88   101   102    1
    89   104   103    2
    90    31    33   ar
    91   128   129    1
    92    65    66    1
    93    68    67    2
    94   103   102    1
    95   102   105    1
    96    67    66    1
    97    67    74   am
    98   108   106    1
    99    75    74    1
   100    75    78    1
   101    66    69    1
   102   117   119   ar
   103   167   165    1
   104   118   119   ar
   105    30    32   ar
   106   130   129    2
   107   189   188   ar
   108    78    79    1
   109   190   188   ar
   110   158   156    1
   111   129   131   am
   112    33    32   ar
   113   159   157    1
   114   160   161    1
   115   106   105    1
   116   188   187    1
   117   161   164    1
   118   161   162    1
   119   105   107    1
   120   165   164    1
   121    69    70    1
   122   164   166    1
   123    92    91    2
   124   186   185    2
   125    96    95    2
   126   156   157    1
   127   156   153    1
   128   131   132    1
   129    79    80    1
   130    79    81    1
   131   163   162    2
   132    72    71   ar
   133   185   184    1
   134    90    91    1
   135    90    89    1
   136   162   168   am
   137    95    94    1
   138    91    93   am
   139   184   187    1
   140   184   183    1
   141    70    71    1
   142   155   154    2
   143    71    73   ar
   144   154   153    1
   145   132   133    1
   146   132   135    1
   147   153   152    1
   148    93    94    1
   149   134   133    2
   150   168   169    1
   151    94    97    1
   152   142   141    1
   153   135   136    1
   154    82    83    1
   155    82    88    1
   156   140   139    2
   157   152   146   am
   158    83    86    1
   159    83    84    1
   160   139   138    1
   161   141   138    1
   162   141   143    1
   163   169   172    1
   164   169   170    1
   165    87    88    1
   166    87    86    1
   167    97    98    1
   168    85    84    2
   169   172   173    1
   170    98    99    1
   171   175   173   ar
   172   175   177   ar
   173   138   137    1
   174    99   100    1
   175   173   174   ar
   176   170   171    2
   177   146   147    2
   178   146   145    1
   179   177   176   ar
   180   182   179    1
   181   174   176   ar
   182   144   145    1
   183   151   149    1
   184   145   148    1
   185   148   149    1
   186   180   179    1
   187   180   181    2
   188   179   178    1
   189   149   150    1
