@<TRIPOS>MOLECULE
tmp/4i3xA01.pdb
 95 90 0 0 0
SMALL
GASTEIGER

@<TRIPOS>ATOM
      1  N         44.9980   -5.2240  -19.6800 N.3    99  ARG99      -0.1245
      2  CA        44.2460   -5.9510  -20.6940 C.3    99  ARG99       0.1563
      3  C         43.3870   -5.0780  -21.6410 C.2    99  ARG99       0.2260
      4  O         43.3950   -5.2610  -22.9080 O.2    99  ARG99      -0.2867
      5  CB        43.3890   -6.9740  -20.0090 C.3    99  ARG99       0.0307
      6  CG        44.2420   -8.0370  -19.3110 C.3    99  ARG99       0.0489
      7  CD        43.4590   -9.3270  -19.0970 C.3    99  ARG99       0.2205
      8  NE        42.7130   -9.8370  -20.2840 N.pl3  99  ARG99      -0.0865
      9  CZ        41.5040  -10.4070  -20.1890 C.cat  99  ARG99       0.5346
     10  NH1       40.9370  -10.5220  -18.9640 N.pl3  99  ARG99       0.1354
     11  NH2       40.8470  -10.8240  -21.2930 N.pl3  99  ARG99       0.1354
     12  N         32.1580   -8.4620  -13.5890 N.3   149  ASN149     -0.1225
     13  CA        33.5060   -8.9690  -13.1730 C.3   149  ASN149      0.1785
     14  C         34.7000   -8.2920  -13.8220 C.2   149  ASN149      0.2597
     15  O         35.8260   -8.2990  -13.2660 O.2   149  ASN149     -0.2718
     16  CB        33.5390  -10.4810  -13.3110 C.3   149  ASN149      0.1169
     17  CG        33.4970  -10.9380  -14.7760 C.2   149  ASN149      0.2627
     18  OD1       32.6080  -10.5860  -15.5050 O.2   149  ASN149     -0.2716
     19  ND2       34.5120  -11.6840  -15.2120 N.am  149  ASN149     -0.0877
     20  N         34.5180   -7.6710  -15.0020 N.am  150  HIS150     -0.1975
     21  CA        35.5780   -6.8380  -15.6340 C.3   150  HIS150      0.1656
     22  C         34.9320   -5.5150  -16.0720 C.2   150  HIS150      0.2291
     23  O         34.5630   -5.3110  -17.2440 O.2   150  HIS150     -0.2864
     24  CB        36.2170   -7.5540  -16.8520 C.3   150  HIS150      0.0771
     25  CG        36.9880   -8.8190  -16.5160 C.ar  150  HIS150      0.0820
     26  ND1       38.0200   -8.8370  -15.6300 N.ar  150  HIS150     -0.2267
     27  CD2       36.8930  -10.1150  -17.0360 C.ar  150  HIS150      0.1154
     28  CE1       38.5470  -10.0730  -15.5770 C.ar  150  HIS150      0.1986
     29  NE2       37.8550  -10.8580  -16.4310 N.ar  150  HIS150     -0.2212
     30  N         37.1630   -4.0750  -18.8470 N.3   153  ASN153     -0.1225
     31  CA        37.5380   -4.8950  -20.0070 C.3   153  ASN153      0.1785
     32  C         36.4020   -5.5010  -20.7630 C.2   153  ASN153      0.2597
     33  O         36.4820   -5.7020  -21.9810 O.2   153  ASN153     -0.2718
     34  CB        38.5870   -5.9890  -19.6830 C.3   153  ASN153      0.1169
     35  CG        39.4560   -6.3190  -20.9180 C.2   153  ASN153      0.2627
     36  OD1       39.9110   -5.4200  -21.6620 O.2   153  ASN153     -0.2716
     37  ND2       39.6770   -7.5970  -21.1460 N.am  153  ASN153     -0.0877
     38  N         35.3260   -5.8310  -20.0710 N.am  154  MET154     -0.1979
     39  CA        34.1570   -6.3380  -20.8190 C.3   154  MET154      0.1605
     40  C         33.5270   -5.2830  -21.7480 C.2   154  MET154      0.2287
     41  O         32.9160   -5.6160  -22.7640 O.2   154  MET154     -0.2864
     42  CB        33.1170   -6.9000  -19.8610 C.3   154  MET154      0.0413
     43  CG        33.5960   -8.1570  -19.1120 C.3   154  MET154      0.0598
     44  SD        33.0930   -9.5730  -20.1150 S.3   154  MET154     -0.1393
     45  CE        34.3760   -9.7430  -21.3930 C.3   154  MET154      0.0692
     46  N         36.0050  -14.9160  -12.7690 N.3   281  ARG281     -0.1231
     47  CA        36.2820  -15.0190  -14.2600 C.3   281  ARG281      0.1694
     48  C         35.4130  -16.1800  -14.6930 C.2   281  ARG281      0.2592
     49  O         35.2920  -17.2240  -13.9500 O.2   281  ARG281     -0.2718
     50  CB        37.7290  -15.3680  -14.5170 C.3   281  ARG281      0.0321
     51  CG        38.7150  -14.2580  -14.1470 C.3   281  ARG281      0.0489
     52  CD        40.1430  -14.6110  -14.5270 C.3   281  ARG281      0.2205
     53  NE        40.2760  -14.5040  -15.9910 N.pl3 281  ARG281     -0.0865
     54  CZ        41.2430  -15.0840  -16.7130 C.cat 281  ARG281      0.5346
     55  NH1       42.1910  -15.8520  -16.1110 N.pl3 281  ARG281      0.1354
     56  NH2       41.2930  -14.8970  -18.0450 N.pl3 281  ARG281      0.1354
     57  N         34.8160  -16.0670  -15.8740 N.am  282  CYS282     -0.1956
     58  CA        33.9770  -17.1660  -16.3590 C.3   282  CYS282      0.1843
     59  C         34.8830  -18.3780  -16.6220 C.2   282  CYS282      0.2626
     60  O         34.4130  -19.5150  -16.5360 O.2   282  CYS282     -0.2714
     61  CB        33.2810  -16.7900  -17.6330 C.3   282  CYS282      0.0997
     62  SG        34.4260  -15.9470  -18.7730 S.3   282  CYS282     -0.0797
     63  N         36.1790  -18.1100  -16.8400 N.am  283  THR283     -0.1950
     64  CA        37.1970  -19.1300  -17.0590 C.3   283  THR283      0.1897
     65  C         38.1310  -19.4320  -15.8390 C.2   283  THR283      0.2313
     66  O         39.2080  -20.0240  -16.0020 O.2   283  THR283     -0.2863
     67  CB        38.0340  -18.7640  -18.2650 C.3   283  THR283      0.1794
     68  OG1       38.6330  -17.4480  -18.0990 O.3   283  THR283     -0.2208
     69  CG2       37.1710  -18.8450  -19.5490 C.3   283  THR283      0.0378
     70  N         41.8120  -20.1550  -18.0280 N.3   436  GLY436     -0.1225
     71  CA        41.5790  -18.7080  -18.3270 C.3   436  GLY436      0.1811
     72  C         42.5360  -18.0980  -19.3510 C.2   436  GLY436      0.2280
     73  O         42.2610  -16.9930  -19.8760 O.2   436  GLY436     -0.2866
     74  N         44.2610  -17.0210  -22.5930 N.3   438  ARG438     -0.1245
     75  CA        43.9220  -16.7170  -24.0160 C.3   438  ARG438      0.1563
     76  C         44.6840  -15.3920  -24.3950 C.2   438  ARG438      0.2260
     77  O         45.2480  -14.7720  -23.5310 O.2   438  ARG438     -0.2867
     78  CB        42.3930  -16.5830  -24.2640 C.3   438  ARG438      0.0307
     79  CG        41.7150  -15.3850  -23.6170 C.3   438  ARG438      0.0489
     80  CD        40.2300  -15.2760  -24.0640 C.3   438  ARG438      0.2205
     81  NE        39.4880  -14.3100  -23.2260 N.pl3 438  ARG438     -0.0865
     82  CZ        38.7830  -13.2540  -23.6830 C.cat 438  ARG438      0.5346
     83  NH1       38.6530  -13.0100  -25.0150 N.pl3 438  ARG438      0.1354
     84  NH2       38.1800  -12.4190  -22.8090 N.pl3 438  ARG438      0.1354
     85  N         37.2140  -16.8940  -28.8400 N.3   444  PHE444     -0.1241
     86  CA        36.8080  -17.1740  -27.4550 C.3   444  PHE444      0.1605
     87  C         35.2970  -17.4470  -27.4070 C.2   444  PHE444      0.2264
     88  O         34.4700  -16.6180  -27.9060 O.2   444  PHE444     -0.2867
     89  CB        37.2100  -15.9630  -26.5310 C.3   444  PHE444      0.0534
     90  CG        36.7540  -16.1140  -25.1380 C.ar  444  PHE444     -0.0203
     91  CD1       37.2700  -17.1370  -24.3250 C.ar  444  PHE444     -0.0042
     92  CD2       35.7800  -15.2810  -24.6110 C.ar  444  PHE444     -0.0042
     93  CE1       36.8200  -17.3090  -23.0160 C.ar  444  PHE444     -0.0003
     94  CE2       35.3400  -15.4440  -23.2860 C.ar  444  PHE444     -0.0003
     95  CZ        35.8490  -16.4680  -22.4980 C.ar  444  PHE444     -0.0000
@<TRIPOS>BOND
     1    85    86    1
     2    88    87    2
     3    86    87    1
     4    86    89    1
     5    89    90    1
     6    90    92   ar
     7    90    91   ar
     8    83    82    1
     9    92    94   ar
    10    76    75    1
    11    76    77    2
    12    91    93   ar
    13    78    75    1
    14    78    79    1
    15    80    79    1
    16    80    81    1
    17    75    74    1
    18    82    81    2
    19    82    84    1
    20    94    95   ar
    21    93    95   ar
    22     4     3    2
    23    41    40    2
    24    33    32    2
    25    40    39    1
    26    36    35    2
    27     3     2    1
    28    45    44    1
    29    11     9    1
    30    37    35   am
    31    35    34    1
    32    39    38    1
    33    39    42    1
    34    32    38   am
    35    32    31    1
    36     2     5    1
    37     2     1    1
    38     8     9    2
    39     8     7    1
    40     9    10    1
    41    44    43    1
    42     5     6    1
    43    31    34    1
    44    31    30    1
    45    73    72    2
    46    42    43    1
    47    69    67    1
    48    72    71    1
    49     6     7    1
    50    62    61    1
    51    71    70    1
    52    67    68    1
    53    67    64    1
    54    56    54    1
    55    61    58    1
    56    23    22    2
    57    64    63    1
    58    64    65    1
    59    27    25   ar
    60    27    29   ar
    61    24    25    1
    62    24    21    1
    63    63    59   am
    64    54    55    1
    65    54    53    2
    66    59    60    2
    67    59    58    1
    68    25    26   ar
    69    29    28   ar
    70    58    57    1
    71    22    21    1
    72    66    65    2
    73    53    52    1
    74    57    48   am
    75    21    20    1
    76    26    28   ar
    77    18    17    2
    78    19    17   am
    79    20    14   am
    80    17    16    1
    81    48    47    1
    82    48    49    2
    83    52    51    1
    84    50    47    1
    85    50    51    1
    86    47    46    1
    87    14    15    2
    88    14    13    1
    89    12    13    1
    90    16    13    1
