@<TRIPOS>MOLECULE
tmp/4i41A00.pdb
 190 176 0 0 0
SMALL
GASTEIGER

@<TRIPOS>ATOM
      1  N        -24.8830  -34.2130    4.6700 N.3    12  LEU12      -0.1231
      2  CA       -23.9160  -35.2900    5.0370 C.3    12  LEU12       0.1693
      3  C        -22.6270  -34.8200    5.7260 C.2    12  LEU12       0.2592
      4  O        -22.1250  -35.5200    6.5940 O.2    12  LEU12      -0.2718
      5  CB       -23.5460  -36.1640    3.8450 C.3    12  LEU12       0.0284
      6  CG       -24.5950  -37.0790    3.1990 C.3    12  LEU12       0.0019
      7  CD1      -23.9780  -37.7070    1.9600 C.3    12  LEU12       0.0001
      8  CD2      -25.1130  -38.1570    4.1400 C.3    12  LEU12       0.0001
      9  N        -22.0910  -33.6550    5.3470 N.am   13  GLY13      -0.1957
     10  CA       -20.8740  -33.0930    5.9910 C.3    13  GLY13       0.1869
     11  C        -20.6670  -31.6110    5.6970 C.2    13  GLY13       0.2309
     12  O        -21.3440  -31.0400    4.8300 O.2    13  GLY13      -0.2863
     13  N        -13.8350  -27.9500    2.9890 N.3    17  PHE17      -0.1241
     14  CA       -14.2230  -28.3130    1.6190 C.3    17  PHE17       0.1605
     15  C        -15.6310  -27.8290    1.1760 C.2    17  PHE17       0.2264
     16  O        -16.0220  -28.0090    0.0070 O.2    17  PHE17      -0.2867
     17  CB       -14.2010  -29.8360    1.5290 C.3    17  PHE17       0.0534
     18  CG       -15.1970  -30.4890    2.4490 C.ar   17  PHE17      -0.0203
     19  CD1      -14.8660  -30.7560    3.7780 C.ar   17  PHE17      -0.0042
     20  CD2      -16.4880  -30.7870    2.0030 C.ar   17  PHE17      -0.0042
     21  CE1      -15.7920  -31.3340    4.6320 C.ar   17  PHE17      -0.0003
     22  CE2      -17.4180  -31.3570    2.8570 C.ar   17  PHE17      -0.0003
     23  CZ       -17.0720  -31.6340    4.1700 C.ar   17  PHE17      -0.0000
     24  N        -21.8990  -30.9840    1.9050 N.3    20  VAL20      -0.1245
     25  CA       -22.2660  -32.1390    1.0880 C.3    20  VAL20       0.1561
     26  C        -23.6200  -32.6400    1.5670 C.2    20  VAL20       0.2260
     27  O        -23.7930  -32.8210    2.7780 O.2    20  VAL20      -0.2867
     28  CB       -21.2340  -33.3020    1.2320 C.3    20  VAL20       0.0252
     29  CG1      -21.5790  -34.4650    0.3070 C.3    20  VAL20       0.0019
     30  CG2      -19.8150  -32.8120    0.9610 C.3    20  VAL20       0.0019
     31  N        -24.5240  -37.6200   -4.1780 N.3    33  ALA33      -0.1245
     32  CA       -24.1210  -36.6170   -3.2250 C.3    33  ALA33       0.1562
     33  C        -24.0650  -35.2610   -3.9400 C.2    33  ALA33       0.2260
     34  O        -23.6520  -35.1730   -5.1020 O.2    33  ALA33      -0.2867
     35  CB       -22.7860  -36.9800   -2.5880 C.3    33  ALA33       0.0290
     36  N        -22.4090  -31.6270   -3.7600 N.3    35  LYS35      -0.1245
     37  CA       -21.2990  -30.9160   -3.1220 C.3    35  LYS35       0.1561
     38  C        -21.2390  -29.4300   -3.4820 C.2    35  LYS35       0.2260
     39  O        -21.0190  -29.0570   -4.6320 O.2    35  LYS35      -0.2867
     40  CB       -19.9620  -31.6160   -3.4010 C.3    35  LYS35       0.0271
     41  CG       -18.7750  -30.9510   -2.7130 C.3    35  LYS35       0.0035
     42  CD       -17.5830  -31.8840   -2.6240 C.3    35  LYS35       0.0206
     43  CE       -16.3640  -31.1520   -2.1080 C.3    35  LYS35       0.1093
     44  NZ       -15.2430  -32.1220   -2.0020 N.3    35  LYS35      -0.1314
     45  N        -14.9380  -42.2740   -6.5780 N.3    72  ILE72      -0.1245
     46  CA       -16.3010  -41.7930   -6.7520 C.3    72  ILE72       0.1561
     47  C        -16.3980  -40.7770   -7.8900 C.2    72  ILE72       0.2260
     48  O        -15.6800  -39.7660   -7.8940 O.2    72  ILE72      -0.2867
     49  CB       -16.8800  -41.2970   -5.4140 C.3    72  ILE72       0.0252
     50  CG1      -17.6720  -42.4460   -4.8100 C.3    72  ILE72       0.0019
     51  CG2      -17.7790  -40.0750   -5.5830 C.3    72  ILE72       0.0019
     52  CD1      -17.9080  -42.3120   -3.3350 C.3    72  ILE72       0.0001
     53  N        -22.2320  -36.1400   -7.4060 N.3    88  LEU88      -0.1231
     54  CA       -21.3330  -37.3080   -7.3430 C.3    88  LEU88       0.1693
     55  C        -22.0880  -38.5890   -7.0150 C.2    88  LEU88       0.2592
     56  O        -23.1750  -38.5250   -6.4480 O.2    88  LEU88      -0.2718
     57  CB       -20.3060  -37.0750   -6.2510 C.3    88  LEU88       0.0284
     58  CG       -19.4710  -35.8280   -6.4730 C.3    88  LEU88       0.0019
     59  CD1      -19.0600  -35.2620   -5.1390 C.3    88  LEU88       0.0001
     60  CD2      -18.2570  -36.1600   -7.3280 C.3    88  LEU88       0.0001
     61  N        -21.5190  -39.7500   -7.3490 N.am   89  GLU89      -0.1966
     62  CA       -22.0770  -41.0380   -6.8890 C.3    89  GLU89       0.1733
     63  C        -22.1900  -41.1110   -5.3710 C.2    89  GLU89       0.2616
     64  O        -21.3390  -40.5640   -4.6520 O.2    89  GLU89      -0.2715
     65  CB       -21.1930  -42.1950   -7.2950 C.3    89  GLU89       0.0429
     66  CG       -21.1330  -42.5220   -8.7620 C.3    89  GLU89       0.1163
     67  CD       -20.2840  -43.7600   -8.9800 C.2    89  GLU89       0.3649
     68  OE1      -19.0590  -43.6840   -8.7060 O.co2  89  GLU89      -0.2457
     69  OE2      -20.8370  -44.8080   -9.4020 O.co2  89  GLU89      -0.2457
     70  N        -23.2230  -41.8050   -4.8930 N.am   90  ARG90      -0.1964
     71  CA       -23.3880  -42.1240   -3.4640 C.3    90  ARG90       0.1714
     72  C        -23.7270  -43.6020   -3.2520 C.2    90  ARG90       0.2458
     73  O        -24.8410  -44.0460   -3.5480 O.2    90  ARG90      -0.2730
     74  CB       -24.4550  -41.2350   -2.7990 C.3    90  ARG90       0.0347
     75  CG       -24.6970  -41.5490   -1.3220 C.3    90  ARG90       0.0492
     76  CD       -25.5870  -40.5090   -0.6280 C.3    90  ARG90       0.2205
     77  NE       -26.8860  -40.2980   -1.2930 N.pl3  90  ARG90      -0.0865
     78  CZ       -27.9700  -41.0380   -1.0800 C.cat  90  ARG90       0.5346
     79  NH1      -27.9270  -42.0360   -0.2270 N.pl3  90  ARG90       0.1354
     80  NH2      -29.0950  -40.7960   -1.7390 N.pl3  90  ARG90       0.1354
     81  N        -22.7600  -44.3790   -2.7520 N.am   91  PRO91      -0.2727
     82  CA       -23.0350  -45.7640   -2.3420 C.3    91  PRO91       0.1402
     83  C        -24.0940  -45.8010   -1.2540 C.2    91  PRO91       0.2269
     84  O        -24.2590  -44.8330   -0.5040 O.2    91  PRO91      -0.2865
     85  CB       -21.6910  -46.2400   -1.7670 C.3    91  PRO91       0.0296
     86  CG       -20.6660  -45.3450   -2.3870 C.3    91  PRO91       0.0237
     87  CD       -21.3380  -44.0180   -2.6050 C.3    91  PRO91       0.0939
     88  N        -23.4110  -46.5840    3.1660 N.3    94  VAL94      -0.1231
     89  CA       -22.0240  -46.1610    3.0850 C.3    94  VAL94       0.1692
     90  C        -21.5420  -45.7130    4.4510 C.2    94  VAL94       0.2592
     91  O        -22.3300  -45.2760    5.2720 O.2    94  VAL94      -0.2718
     92  CB       -21.8660  -45.0370    2.0370 C.3    94  VAL94       0.0266
     93  CG1      -22.4000  -43.7110    2.5680 C.3    94  VAL94       0.0020
     94  CG2      -20.4220  -44.9300    1.5760 C.3    94  VAL94       0.0020
     95  N        -20.2440  -45.8520    4.6970 N.am   95  GLN95      -0.1966
     96  CA       -19.6010  -45.2960    5.8850 C.3    95  GLN95       0.1733
     97  C        -18.1540  -45.0000    5.5300 C.2    95  GLN95       0.2616
     98  O        -17.5110  -45.7620    4.7880 O.2    95  GLN95      -0.2715
     99  CB       -19.6710  -46.2690    7.0680 C.3    95  GLN95       0.0408
    100  CG       -19.1360  -45.6810    8.3710 C.3    95  GLN95       0.0908
    101  CD       -19.1400  -46.6700    9.5250 C.2    95  GLN95       0.2608
    102  OE1      -18.8260  -47.8520    9.3590 O.2    95  GLN95      -0.2717
    103  NE2      -19.4750  -46.1860   10.7070 N.am   95  GLN95      -0.0878
    104  N        -17.6390  -43.8920    6.0440 N.am   96  ASP96      -0.1971
    105  CA       -16.2820  -43.5190    5.7300 C.3    96  ASP96       0.1709
    106  C        -15.3370  -44.3530    6.5950 C.2    96  ASP96       0.2293
    107  O        -15.7660  -44.9460    7.5980 O.2    96  ASP96      -0.2864
    108  CB       -16.0590  -41.9930    5.7860 C.3    96  ASP96       0.1436
    109  CG       -16.0510  -41.4230    7.1980 C.2    96  ASP96       0.3671
    110  OD1      -15.4600  -42.0370    8.1140 O.co2  96  ASP96      -0.2456
    111  OD2      -16.6010  -40.3160    7.3870 O.co2  96  ASP96      -0.2456
    112  N        -14.8020  -43.2890   10.5740 N.3    99  ASP99      -0.1239
    113  CA       -15.8230  -43.8560   11.4490 C.3    99  ASP99       0.1674
    114  C        -15.7080  -45.3580   11.5970 C.2    99  ASP99       0.2266
    115  O        -15.8760  -45.8970   12.6950 O.2    99  ASP99      -0.2867
    116  CB       -17.2120  -43.4990   10.9260 C.3    99  ASP99       0.1410
    117  CG       -17.4680  -42.0080   10.9510 C.2    99  ASP99       0.3668
    118  OD1      -16.6680  -41.2890   11.5890 O.co2  99  ASP99      -0.2456
    119  OD2      -18.4530  -41.5550   10.3340 O.co2  99  ASP99      -0.2456
    120  N         -4.2630  -35.9850   -0.5080 N.3   135  ASP135     -0.1239
    121  CA        -4.8650  -36.0050    0.8140 C.3   135  ASP135      0.1674
    122  C         -5.4900  -37.3590    1.1780 C.2   135  ASP135      0.2266
    123  O         -6.5660  -37.4330    1.8170 O.2   135  ASP135     -0.2867
    124  CB        -5.8950  -34.8920    0.9270 C.3   135  ASP135      0.1410
    125  CG        -6.2170  -34.5390    2.3690 C.2   135  ASP135      0.3668
    126  OD1       -5.3630  -34.8050    3.2600 O.co2 135  ASP135     -0.2456
    127  OD2       -7.3360  -34.0040    2.5930 O.co2 135  ASP135     -0.2456
    128  N         -6.4580  -40.2860    3.1070 N.3   137  LYS137     -0.1245
    129  CA        -6.5810  -40.5750    4.5250 C.3   137  LYS137      0.1561
    130  C         -7.9250  -41.1970    4.7830 C.2   137  LYS137      0.2260
    131  O         -8.8190  -41.0820    3.9510 O.2   137  LYS137     -0.2867
    132  CB        -6.4070  -39.3210    5.3880 C.3   137  LYS137      0.0271
    133  CG        -7.3680  -38.1820    5.0950 C.3   137  LYS137      0.0035
    134  CD        -7.3180  -37.2270    6.2600 C.3   137  LYS137      0.0206
    135  CE        -7.8800  -35.8900    5.8550 C.3   137  LYS137      0.1093
    136  NZ        -7.7760  -34.9800    7.0230 N.3   137  LYS137     -0.1314
    137  N        -10.5780  -40.5440    6.1610 N.3   139  GLU139     -0.1231
    138  CA       -11.8320  -39.8260    5.9970 C.3   139  GLU139      0.1699
    139  C        -12.1280  -39.4250    4.5540 C.2   139  GLU139      0.2592
    140  O        -13.2290  -38.9600    4.2610 O.2   139  GLU139     -0.2718
    141  CB       -11.9490  -38.6480    6.9640 C.3   139  GLU139      0.0402
    142  CG       -11.2230  -37.3870    6.5560 C.3   139  GLU139      0.1161
    143  CD       -11.5680  -36.2340    7.4660 C.2   139  GLU139      0.3649
    144  OE1      -12.6330  -35.6050    7.2650 O.co2 139  GLU139     -0.2457
    145  OE2      -10.7760  -35.9760    8.3920 O.co2 139  GLU139     -0.2457
    146  N        -11.1590  -39.6140    3.6580 N.am  140  ASN140     -0.1974
    147  CA       -11.4450  -39.4770    2.2240 C.3   140  ASN140      0.1688
    148  C        -11.6790  -40.8130    1.5210 C.2   140  ASN140      0.2292
    149  O        -11.6060  -40.9040    0.2910 O.2   140  ASN140     -0.2864
    150  CB       -10.4070  -38.6200    1.5210 C.3   140  ASN140      0.1181
    151  CG       -10.3900  -37.2110    2.0630 C.2   140  ASN140      0.2629
    152  OD1      -11.4350  -36.6750    2.4440 O.2   140  ASN140     -0.2716
    153  ND2       -9.2020  -36.6060    2.1310 N.am  140  ASN140     -0.0877
    154  N        -14.5910  -43.7680    1.2820 N.3   142  LEU142     -0.1245
    155  CA       -15.8950  -44.2870    1.5910 C.3   142  LEU142      0.1561
    156  C        -15.8930  -45.7850    1.3550 C.2   142  LEU142      0.2260
    157  O        -15.2290  -46.2740    0.4410 O.2   142  LEU142     -0.2867
    158  CB       -16.9450  -43.6320    0.7260 C.3   142  LEU142      0.0270
    159  CG       -17.1360  -42.1240    0.9090 C.3   142  LEU142      0.0019
    160  CD1      -18.3240  -41.6650    0.0670 C.3   142  LEU142      0.0001
    161  CD2      -17.3200  -41.7300    2.3760 C.3   142  LEU142      0.0001
    162  N        -12.7180  -39.8690   -2.2680 N.3   153  ILE153     -0.1231
    163  CA       -13.7460  -38.8320   -2.4080 C.3   153  ILE153      0.1692
    164  C        -13.3960  -37.3740   -2.6270 C.2   153  ILE153      0.2592
    165  O        -14.1340  -36.6470   -3.3500 O.2   153  ILE153     -0.2718
    166  CB       -14.8420  -38.8750   -1.3140 C.3   153  ILE153      0.0266
    167  CG1      -14.2250  -39.0290    0.0770 C.3   153  ILE153      0.0019
    168  CG2      -15.8860  -39.9190   -1.6730 C.3   153  ILE153      0.0020
    169  CD1      -15.0960  -38.5110    1.1900 C.3   153  ILE153      0.0001
    170  N        -12.3410  -36.9070   -2.0040 N.am  154  ASP154     -0.1974
    171  CA       -12.2240  -35.4660   -1.9840 C.3   154  ASP154      0.1709
    172  C        -10.9870  -34.9520   -2.7490 C.2   154  ASP154      0.2293
    173  O         -9.8560  -34.9690   -2.2340 O.2   154  ASP154     -0.2864
    174  CB       -12.2710  -35.0120   -0.5240 C.3   154  ASP154      0.1436
    175  CG       -12.2910  -33.5130   -0.3560 C.2   154  ASP154      0.3671
    176  OD1      -12.0570  -32.7490   -1.3060 O.co2 154  ASP154     -0.2456
    177  OD2      -12.5220  -33.0920    0.7850 O.co2 154  ASP154     -0.2456
    178  N         -7.7990  -30.8430   -2.7110 N.3   157  SER157     -0.1217
    179  CA        -6.3860  -30.4370   -2.5770 C.3   157  SER157      0.1889
    180  C         -5.5660  -31.1490   -3.6430 C.2   157  SER157      0.2288
    181  O         -4.3200  -31.1830   -3.5840 O.2   157  SER157     -0.2866
    182  CB        -5.8090  -30.7860   -1.2100 C.3   157  SER157      0.2089
    183  OG        -6.8190  -31.1010   -0.2730 O.3   157  SER157     -0.2183
    184  N         -3.8620  -32.5880    5.0970 N.3   172  THR172     -0.1218
    185  CA        -3.6400  -32.4840    6.5360 C.3   172  THR172      0.1862
    186  C         -2.1800  -32.6210    6.9380 C.2   172  THR172      0.2287
    187  O         -1.4420  -33.4310    6.3640 O.2   172  THR172     -0.2866
    188  CB        -4.4580  -33.5290    7.2860 C.3   172  THR172      0.1770
    189  OG1       -5.0810  -34.3920    6.3270 O.3   172  THR172     -0.2211
    190  CG2       -5.5180  -32.8310    8.1510 C.3   172  THR172      0.0375
@<TRIPOS>BOND
     1    69    67   ar
     2    67    66    1
     3    67    68   ar
     4    66    65    1
     5    48    47    2
     6    47    46    1
     7    53    54    1
     8    61    55   am
     9    61    62    1
    10    54    55    1
    11    54    57    1
    12    60    58    1
    13    65    62    1
    14    55    56    2
    15    62    63    1
    16    46    45    1
    17    46    49    1
    18    58    57    1
    19    58    59    1
    20    51    49    1
    21    49    50    1
    22    63    70   am
    23    63    64    2
    24    34    33    2
    25    70    71    1
    26    50    52    1
    27    39    38    2
    28    31    32    1
    29    33    32    1
    30    36    37    1
    31   180   181    2
    32   180   179    1
    33    73    72    2
    34    38    37    1
    35    71    72    1
    36    71    74    1
    37    40    37    1
    38    40    41    1
    39   165   164    2
    40    72    81   am
    41    32    35    1
    42    74    75    1
    43    81    87    1
    44    81    82    1
    45   172   173    2
    46   172   171    1
    47    41    42    1
    48   178   179    1
    49   164   163    1
    50   164   170   am
    51    42    43    1
    52    87    86    1
    53   179   182    1
    54   163   162    1
    55   163   166    1
    56    86    85    1
    57    82    85    1
    58    82    83    1
    59    43    44    1
    60   170   171    1
    61   171   174    1
    62    80    78    1
    63   168   166    1
    64    75    76    1
    65   166   167    1
    66   176   175   ar
    67    77    78    2
    68    77    76    1
    69    83    84    2
    70   182   183    1
    71    78    79    1
    72   174   175    1
    73   120   121    1
    74   175   177   ar
    75    16    15    2
    76   160   159    1
    77   167   169    1
    78   149   148    2
    79    29    28    1
    80   157   156    2
    81   158   159    1
    82   158   155    1
    83   121   124    1
    84   121   122    1
    85   159   161    1
    86   124   125    1
    87    30    28    1
    88    25    28    1
    89    25    26    1
    90    25    24    1
    91    15    14    1
    92   122   123    2
    93   154   155    1
    94   156   155    1
    95   150   151    1
    96   150   147    1
    97   148   147    1
    98    17    14    1
    99    17    18    1
   100    26    27    2
   101    94    92    1
   102    14    13    1
   103     7     6    1
   104    20    18   ar
   105    20    22   ar
   106    92    93    1
   107    92    89    1
   108   151   153   am
   109   151   152    2
   110   147   146    1
   111   125   127   ar
   112   125   126   ar
   113    18    19   ar
   114    22    23   ar
   115    89    88    1
   116    89    90    1
   117   128   129    1
   118     6     5    1
   119     6     8    1
   120   146   139   am
   121    19    21   ar
   122     5     2    1
   123   131   130    2
   124    23    21   ar
   125   140   139    2
   126    90    95   am
   127    90    91    2
   128   129   130    1
   129   129   132    1
   130   139   138    1
   131     1     2    1
   132    95    96    1
   133    98    97    2
   134    12    11    2
   135     2     3    1
   136   133   132    1
   137   133   134    1
   138   184   185    1
   139     9     3   am
   140     9    10    1
   141    97    96    1
   142    97   104   am
   143    11    10    1
   144     3     4    2
   145   105   108    1
   146   105   104    1
   147   105   106    1
   148   108   109    1
   149   135   134    1
   150   135   136    1
   151    96    99    1
   152   138   137    1
   153   138   141    1
   154   189   188    1
   155   187   186    2
   156   185   186    1
   157   185   188    1
   158   142   141    1
   159   142   143    1
   160   106   107    2
   161    99   100    1
   162   109   111   ar
   163   109   110   ar
   164   144   143   ar
   165   188   190    1
   166   143   145   ar
   167   100   101    1
   168   102   101    2
   169   101   103   am
   170   119   117   ar
   171   112   113    1
   172   116   117    1
   173   116   113    1
   174   117   118   ar
   175   113   114    1
   176   114   115    2
