@<TRIPOS>MOLECULE
tmp/4i41A01.pdb
 163 158 0 0 0
SMALL
GASTEIGER

@<TRIPOS>ATOM
      1  N        -12.8540  -43.5230    8.4220 N.3    98  PHE98      -0.1241
      2  CA       -12.5640  -42.9170    9.7190 C.3    98  PHE98       0.1605
      3  C        -13.5020  -43.4980   10.7670 C.2    98  PHE98       0.2264
      4  O        -13.0570  -44.1560   11.7050 O.2    98  PHE98      -0.2867
      5  CB       -12.7240  -41.4070    9.6220 C.3    98  PHE98       0.0534
      6  CG       -12.4050  -40.6730   10.8810 C.ar   98  PHE98      -0.0203
      7  CD1      -13.2730  -40.7120   11.9700 C.ar   98  PHE98      -0.0042
      8  CD2      -11.2530  -39.8900   10.9640 C.ar   98  PHE98      -0.0042
      9  CE1      -12.9830  -40.0130   13.1300 C.ar   98  PHE98      -0.0003
     10  CE2      -10.9600  -39.1750   12.1200 C.ar   98  PHE98      -0.0003
     11  CZ       -11.8280  -39.2440   13.2060 C.ar   98  PHE98      -0.0000
     12  N        -13.0390  -47.2790   11.4280 N.3   101  ILE101     -0.1231
     13  CA       -11.9240  -47.5950   12.3180 C.3   101  ILE101      0.1692
     14  C        -12.2660  -47.1430   13.7420 C.2   101  ILE101      0.2592
     15  O        -12.1420  -47.9220   14.6870 O.2   101  ILE101     -0.2718
     16  CB       -10.5870  -47.0060   11.8040 C.3   101  ILE101      0.0266
     17  CG1      -10.0890  -47.8140   10.6000 C.3   101  ILE101      0.0019
     18  CG2       -9.5180  -47.0060   12.8900 C.3   101  ILE101      0.0020
     19  CD1       -9.2230  -47.0220    9.6490 C.3   101  ILE101      0.0001
     20  N        -12.7180  -45.8970   13.8710 N.am  102  THR102     -0.1953
     21  CA       -13.2970  -45.3830   15.1140 C.3   102  THR102      0.1897
     22  C        -14.2510  -46.3770   15.8060 C.2   102  THR102      0.2313
     23  O        -14.1460  -46.5710   17.0000 O.2   102  THR102     -0.2863
     24  CB       -14.0430  -44.0500   14.8860 C.3   102  THR102      0.1794
     25  OG1      -13.1520  -43.0770   14.3170 O.3   102  THR102     -0.2208
     26  CG2      -14.6160  -43.5160   16.1990 C.3   102  THR102      0.0378
     27  N         -6.4580  -40.2860    3.1070 N.3   137  LYS137     -0.1231
     28  CA        -6.5810  -40.5750    4.5250 C.3   137  LYS137      0.1693
     29  C         -7.9250  -41.1970    4.7830 C.2   137  LYS137      0.2592
     30  O         -8.8190  -41.0820    3.9510 O.2   137  LYS137     -0.2718
     31  CB        -6.4070  -39.3210    5.3880 C.3   137  LYS137      0.0285
     32  CG        -7.3680  -38.1820    5.0950 C.3   137  LYS137      0.0035
     33  CD        -7.3180  -37.2270    6.2600 C.3   137  LYS137      0.0206
     34  CE        -7.8800  -35.8900    5.8550 C.3   137  LYS137      0.1093
     35  NZ        -7.7760  -34.9800    7.0230 N.3   137  LYS137     -0.1314
     36  N         -8.0710  -41.8170    5.9540 N.am  138  ASP138     -0.1960
     37  CA        -9.2660  -42.5990    6.2700 C.3   138  ASP138      0.1840
     38  C        -10.5710  -41.8620    6.0030 C.2   138  ASP138      0.2621
     39  O        -11.5620  -42.4810    5.6270 O.2   138  ASP138     -0.2715
     40  CB        -9.2230  -43.1660    7.7010 C.3   138  ASP138      0.1450
     41  CG        -9.0360  -42.0880    8.7940 C.2   138  ASP138      0.3671
     42  OD1       -8.9710  -40.8580    8.5080 O.co2 138  ASP138     -0.2456
     43  OD2       -8.9620  -42.5070    9.9750 O.co2 138  ASP138     -0.2456
     44  N        -10.5780  -40.5440    6.1610 N.am  139  GLU139     -0.1977
     45  CA       -11.8320  -39.8260    5.9970 C.3   139  GLU139      0.1602
     46  C        -12.1280  -39.4250    4.5540 C.2   139  GLU139      0.2287
     47  O        -13.2290  -38.9600    4.2610 O.2   139  GLU139     -0.2864
     48  CB       -11.9490  -38.6480    6.9640 C.3   139  GLU139      0.0415
     49  CG       -11.2230  -37.3870    6.5560 C.3   139  GLU139      0.1163
     50  CD       -11.5680  -36.2340    7.4660 C.2   139  GLU139      0.3649
     51  OE1      -12.6330  -35.6050    7.2650 O.co2 139  GLU139     -0.2457
     52  OE2      -10.7760  -35.9760    8.3920 O.co2 139  GLU139     -0.2457
     53  N         -3.8620  -32.5880    5.0970 N.3   172  THR172     -0.1203
     54  CA        -3.6400  -32.4840    6.5360 C.3   172  THR172      0.1994
     55  C         -2.1800  -32.6210    6.9380 C.2   172  THR172      0.2618
     56  O         -1.4420  -33.4310    6.3640 O.2   172  THR172     -0.2717
     57  CB        -4.4580  -33.5290    7.2860 C.3   172  THR172      0.1784
     58  OG1       -5.0810  -34.3920    6.3270 O.3   172  THR172     -0.2211
     59  CG2       -5.5180  -32.8310    8.1510 C.3   172  THR172      0.0376
     60  N         -1.7750  -31.8410    7.9340 N.am  173  ARG173     -0.1965
     61  CA        -0.3770  -31.8170    8.3170 C.3   173  ARG173      0.1729
     62  C          0.1460  -33.1580    8.8380 C.2   173  ARG173      0.2616
     63  O          1.1560  -33.6780    8.3410 O.2   173  ARG173     -0.2715
     64  CB        -0.0880  -30.7120    9.3170 C.3   173  ARG173      0.0348
     65  CG         1.3320  -30.2240    9.1410 C.3   173  ARG173      0.0492
     66  CD         1.5900  -28.9790    9.9530 C.3   173  ARG173      0.2205
     67  NE         3.0190  -28.7990   10.2280 N.pl3 173  ARG173     -0.0865
     68  CZ         3.9000  -28.2440    9.3900 C.cat 173  ARG173      0.5346
     69  NH1        3.5410  -27.8290    8.1830 N.pl3 173  ARG173      0.1354
     70  NH2        5.1620  -28.1080    9.7620 N.pl3 173  ARG173      0.1354
     71  N         -0.5440  -33.7230    9.8210 N.am  174  VAL174     -0.1963
     72  CA        -0.1170  -34.9700   10.4370 C.3   174  VAL174      0.1727
     73  C          0.1430  -36.0470    9.3850 C.2   174  VAL174      0.2616
     74  O          0.8130  -37.0460    9.6510 O.2   174  VAL174     -0.2715
     75  CB        -1.1350  -35.4530   11.4990 C.3   174  VAL174      0.0290
     76  CG1       -1.2340  -34.4320   12.6280 C.3   174  VAL174      0.0023
     77  CG2       -2.5060  -35.7150   10.8750 C.3   174  VAL174      0.0023
     78  N         -0.3680  -35.8100    8.1810 N.am  175  TYR175     -0.1974
     79  CA        -0.2820  -36.7650    7.0660 C.3   175  TYR175      0.1639
     80  C          0.7860  -36.3880    6.0150 C.2   175  TYR175      0.2290
     81  O          1.0090  -37.1310    5.0180 O.2   175  TYR175     -0.2864
     82  CB        -1.6560  -36.8960    6.3920 C.3   175  TYR175      0.0560
     83  CG        -2.5740  -37.9390    6.9840 C.ar  175  TYR175     -0.0198
     84  CD1       -3.3900  -37.6570    8.0980 C.ar  175  TYR175     -0.0009
     85  CD2       -2.6560  -39.2060    6.4100 C.ar  175  TYR175     -0.0009
     86  CE1       -4.2430  -38.6230    8.6260 C.ar  175  TYR175      0.0417
     87  CE2       -3.5010  -40.1800    6.9250 C.ar  175  TYR175      0.0417
     88  CZ        -4.2970  -39.8980    8.0300 C.ar  175  TYR175      0.1957
     89  OH        -5.1360  -40.9080    8.5080 O.3   175  TYR175     -0.2866
     90  N         -2.5270  -46.5660   10.4480 N.3   202  ASP202     -0.1239
     91  CA        -3.8050  -46.2300   11.0200 C.3   202  ASP202      0.1674
     92  C         -4.7450  -47.4370   10.9890 C.2   202  ASP202      0.2266
     93  O         -5.2700  -47.8520   12.0380 O.2   202  ASP202     -0.2867
     94  CB        -4.4080  -45.0270   10.2970 C.3   202  ASP202      0.1410
     95  CG        -5.6780  -44.5120   10.9680 C.2   202  ASP202      0.3668
     96  OD1       -5.7730  -44.5000   12.2220 O.co2 202  ASP202     -0.2456
     97  OD2       -6.6010  -44.1140   10.2320 O.co2 202  ASP202     -0.2456
     98  N         -5.3220  -48.4050   14.8330 N.3   206  GLY206     -0.1210
     99  CA        -6.4490  -47.6710   15.3910 C.3   206  GLY206      0.1956
    100  C         -6.1620  -46.1920   15.3480 C.2   206  GLY206      0.2612
    101  O         -7.0790  -45.3830   15.3200 O.2   206  GLY206     -0.2717
    102  N         -4.8780  -45.8510   15.2950 N.am  207  ASP207     -0.1959
    103  CA        -4.4080  -44.4750   15.3790 C.3   207  ASP207      0.1840
    104  C         -3.3200  -44.1360   14.3250 C.2   207  ASP207      0.2622
    105  O         -2.7400  -45.0250   13.7170 O.2   207  ASP207     -0.2715
    106  CB        -3.8710  -44.2580   16.7880 C.3   207  ASP207      0.1450
    107  CG        -3.9220  -42.8160   17.2140 C.2   207  ASP207      0.3671
    108  OD1       -5.0130  -42.2060   17.1130 O.co2 207  ASP207     -0.2456
    109  OD2       -2.8670  -42.2990   17.6560 O.co2 207  ASP207     -0.2456
    110  N         -3.0590  -42.8500   14.1020 N.am  208  ILE208     -0.1964
    111  CA        -1.9520  -42.4180   13.2430 C.3   208  ILE208      0.1712
    112  C         -0.6190  -42.3960   14.0230 C.2   208  ILE208      0.2458
    113  O         -0.6250  -42.2460   15.2470 O.2   208  ILE208     -0.2730
    114  CB        -2.2330  -41.0450   12.6090 C.3   208  ILE208      0.0289
    115  CG1       -2.3610  -39.9820   13.7010 C.3   208  ILE208      0.0022
    116  CG2       -3.4750  -41.1070   11.7320 C.3   208  ILE208      0.0023
    117  CD1       -2.1640  -38.5570   13.2230 C.3   208  ILE208      0.0001
    118  N          0.5270  -42.5570   13.3240 N.am  209  PRO209     -0.2727
    119  CA         1.7900  -42.7330   14.0500 C.3   209  PRO209      0.1402
    120  C          2.3670  -41.4480   14.6460 C.2   209  PRO209      0.2269
    121  O          2.8170  -41.4640   15.7890 O.2   209  PRO209     -0.2865
    122  CB         2.7270  -43.3000   12.9820 C.3   209  PRO209      0.0296
    123  CG         2.2240  -42.7110   11.7180 C.3   209  PRO209      0.0237
    124  CD         0.7320  -42.5890   11.8640 C.3   209  PRO209      0.0939
    125  N          2.2290  -37.1240   15.4090 N.3   211  GLU211     -0.1231
    126  CA         1.4030  -35.9600   15.6490 C.3   211  GLU211      0.1699
    127  C          2.1540  -34.6550   15.3550 C.2   211  GLU211      0.2592
    128  O          1.6980  -33.8590   14.5480 O.2   211  GLU211     -0.2718
    129  CB         0.8810  -35.9980   17.0740 C.3   211  GLU211      0.0402
    130  CG         0.4660  -34.6520   17.6090 C.3   211  GLU211      0.1161
    131  CD        -0.9590  -34.6490   18.0850 C.2   211  GLU211      0.3649
    132  OE1       -1.8280  -34.9990   17.2550 O.co2 211  GLU211     -0.2457
    133  OE2       -1.1990  -34.2900   19.2630 O.co2 211  GLU211     -0.2457
    134  N          3.3070  -34.4540   15.9910 N.am  212  HIS212     -0.1976
    135  CA         4.0500  -33.2010   15.8870 C.3   212  HIS212      0.1656
    136  C          5.1810  -33.2980   14.9020 C.2   212  HIS212      0.2291
    137  O          5.7470  -34.3780   14.6830 O.2   212  HIS212     -0.2864
    138  CB         4.6310  -32.8160   17.2370 C.3   212  HIS212      0.0771
    139  CG         3.6550  -32.9470   18.3540 C.ar  212  HIS212      0.0820
    140  ND1        2.6010  -32.0740   18.5210 N.ar  212  HIS212     -0.2267
    141  CD2        3.5510  -33.8660   19.3430 C.ar  212  HIS212      0.1154
    142  CE1        1.8980  -32.4400   19.5790 C.ar  212  HIS212      0.1986
    143  NE2        2.4510  -33.5270   20.0930 N.ar  212  HIS212     -0.2212
    144  N          8.1870  -35.5140   15.5030 N.3   215  GLU215     -0.1245
    145  CA         7.9150  -36.9490   15.3660 C.3   215  GLU215      0.1567
    146  C          7.9150  -37.3720   13.9000 C.2   215  GLU215      0.2260
    147  O          8.4180  -38.4460   13.5680 O.2   215  GLU215     -0.2867
    148  CB         6.5820  -37.3220   15.9970 C.3   215  GLU215      0.0388
    149  CG         6.3870  -36.8180   17.4130 C.3   215  GLU215      0.1160
    150  CD         5.0450  -37.2230   17.9640 C.2   215  GLU215      0.3649
    151  OE1        4.0100  -36.8400   17.3820 O.co2 215  GLU215     -0.2457
    152  OE2        5.0190  -37.9400   18.9740 O.co2 215  GLU215     -0.2457
    153  N          1.5710  -49.8920   18.9140 N.3   224  ARG224     -0.1245
    154  CA         0.8060  -49.9720   20.1530 C.3   224  ARG224      0.1563
    155  C         -0.1060  -51.1920   20.1010 C.2   224  ARG224      0.2260
    156  O         -0.8410  -51.4740   21.0310 O.2   224  ARG224     -0.2867
    157  CB        -0.0100  -48.6860   20.3410 C.3   224  ARG224      0.0307
    158  CG        -0.9600  -48.3630   19.1920 C.3   224  ARG224      0.0489
    159  CD        -1.5490  -46.9710   19.3600 C.3   224  ARG224      0.2205
    160  NE        -0.9220  -45.9940   18.4640 N.pl3 224  ARG224     -0.0865
    161  CZ        -0.8500  -44.6790   18.6900 C.cat 224  ARG224      0.5346
    162  NH1       -1.3530  -44.1580   19.8080 N.pl3 224  ARG224      0.1354
    163  NH2       -0.2580  -43.8800   17.8010 N.pl3 224  ARG224      0.1354
@<TRIPOS>BOND
     1    27    28    1
     2    30    29    2
     3    47    46    2
     4    28    29    1
     5    28    31    1
     6    46    45    1
     7    29    36   am
     8    81    80    2
     9    32    31    1
    10    32    33    1
    11    53    54    1
    12    39    38    2
    13    34    33    1
    14    34    35    1
    15    36    37    1
    16    45    44    1
    17    45    48    1
    18    38    44   am
    19    38    37    1
    20    80    79    1
    21    37    40    1
    22    58    57    1
    23    56    55    2
    24    82    83    1
    25    82    79    1
    26    85    87   ar
    27    85    83   ar
    28    54    55    1
    29    54    57    1
    30    49    48    1
    31    49    50    1
    32    87    88   ar
    33    55    60   am
    34    83    84   ar
    35    79    78    1
    36    51    50   ar
    37    57    59    1
    38    50    52   ar
    39    40    41    1
    40    60    61    1
    41    88    89    1
    42    88    86   ar
    43    84    86   ar
    44    78    73   am
    45    69    68    1
    46    61    62    1
    47    61    64    1
    48    63    62    2
    49     1     2    1
    50    42    41   ar
    51    41    43   ar
    52    62    71   am
    53    65    64    1
    54    65    66    1
    55    73    74    2
    56    73    72    1
    57    68    70    1
    58    68    67    2
    59     5     2    1
    60     5     6    1
    61    19    17    1
    62     2     3    1
    63    71    72    1
    64    66    67    1
    65    97    95   ar
    66    94    95    1
    67    94    91    1
    68    72    75    1
    69    90    91    1
    70    17    16    1
    71     3     4    2
    72    77    75    1
    73     6     8   ar
    74     6     7   ar
    75     8    10   ar
    76    95    96   ar
    77    92    91    1
    78    92    93    2
    79    12    13    1
    80    75    76    1
    81   123   124    1
    82   123   122    1
    83   116   114    1
    84    16    13    1
    85    16    18    1
    86   124   118    1
    87     7     9   ar
    88    10    11   ar
    89    13    14    1
    90   114   111    1
    91   114   115    1
    92   122   119    1
    93     9    11   ar
    94   117   115    1
    95   111   112    1
    96   111   110    1
    97   118   112   am
    98   118   119    1
    99   147   146    2
   100   105   104    2
   101    14    20   am
   102    14    15    2
   103    20    21    1
   104   146   145    1
   105   112   113    2
   106   119   120    1
   107   110   104   am
   108    25    24    1
   109   104   103    1
   110   128   127    2
   111   120   121    2
   112   137   136    2
   113    98    99    1
   114    24    21    1
   115    24    26    1
   116   136   135    1
   117    21    22    1
   118   102   100   am
   119   102   103    1
   120   101   100    2
   121   100    99    1
   122   127   126    1
   123   127   134   am
   124   145   144    1
   125   145   148    1
   126   103   106    1
   127   125   126    1
   128   126   129    1
   129    22    23    2
   130   135   134    1
   131   135   138    1
   132   148   149    1
   133   106   107    1
   134   129   130    1
   135   108   107   ar
   136   107   109   ar
   137   138   139    1
   138   132   131   ar
   139   151   150   ar
   140   149   150    1
   141   130   131    1
   142   163   161    1
   143   150   152   ar
   144   131   133   ar
   145   139   140   ar
   146   139   141   ar
   147   160   161    2
   148   160   159    1
   149   140   142   ar
   150   161   162    1
   151   153   154    1
   152   158   159    1
   153   158   157    1
   154   141   143   ar
   155   142   143   ar
   156   155   154    1
   157   155   156    2
   158   154   157    1
