@<TRIPOS>MOLECULE
tmp/4i42J02.pdb
 212 205 0 0 0
SMALL
GASTEIGER

@<TRIPOS>ATOM
      1  N        -38.3750  -29.2260   26.7550 N.3    43  GLN43      -0.1231
      2  CA       -39.6990  -28.7250   26.3960 C.3    43  GLN43       0.1698
      3  C        -40.0380  -27.4230   27.1320 C.2    43  GLN43       0.2592
      4  O        -40.9340  -26.6860   26.7150 O.2    43  GLN43      -0.2718
      5  CB       -40.7780  -29.7780   26.6690 C.3    43  GLN43       0.0381
      6  CG       -41.1600  -29.9420   28.1440 C.3    43  GLN43       0.0905
      7  CD       -40.2240  -30.8490   28.9230 C.2    43  GLN43       0.2608
      8  OE1      -39.2240  -31.3360   28.3910 O.2    43  GLN43      -0.2717
      9  NE2      -40.5510  -31.0890   30.1920 N.am   43  GLN43      -0.0878
     10  N        -39.3400  -27.1560   28.2350 N.am   44  VAL44      -0.1966
     11  CA       -39.4900  -25.8890   28.9440 C.3    44  VAL44       0.1727
     12  C        -38.1710  -25.1300   28.9990 C.2    44  VAL44       0.2616
     13  O        -37.8940  -24.4300   29.9780 O.2    44  VAL44      -0.2715
     14  CB       -40.0560  -26.0640   30.3750 C.3    44  VAL44       0.0290
     15  CG1      -41.5210  -26.4670   30.3190 C.3    44  VAL44       0.0023
     16  CG2      -39.2520  -27.0980   31.1440 C.3    44  VAL44       0.0023
     17  N        -37.3640  -25.2750   27.9470 N.am   45  ARG45      -0.1977
     18  CA       -36.0580  -24.6170   27.8610 C.3    45  ARG45       0.1597
     19  C        -35.1770  -24.9710   29.0660 C.2    45  ARG45       0.2287
     20  O        -34.4040  -24.1400   29.5590 O.2    45  ARG45      -0.2864
     21  CB       -36.2130  -23.0970   27.7170 C.3    45  ARG45       0.0334
     22  CG       -36.8920  -22.6670   26.4140 C.3    45  ARG45       0.0492
     23  CD       -35.8990  -22.6330   25.2620 C.3    45  ARG45       0.2205
     24  NE       -36.5510  -22.2390   24.0120 N.pl3  45  ARG45      -0.0865
     25  CZ       -37.0330  -23.1120   23.1350 C.cat  45  ARG45       0.5346
     26  NH1      -36.9310  -24.4120   23.3790 N.pl3  45  ARG45       0.1354
     27  NH2      -37.6250  -22.6950   22.0250 N.pl3  45  ARG45       0.1354
     28  N        -35.8080  -25.4010   32.1610 N.3    47  ALA47      -0.1231
     29  CA       -36.1300  -24.8030   33.4510 C.3    47  ALA47       0.1694
     30  C        -36.0850  -25.8650   34.5550 C.2    47  ALA47       0.2592
     31  O        -36.4480  -27.0180   34.3230 O.2    47  ALA47      -0.2718
     32  CB       -37.5040  -24.1640   33.3970 C.3    47  ALA47       0.0304
     33  N        -35.6300  -25.4850   35.7470 N.am   48  PHE48      -0.1976
     34  CA       -35.6010  -26.4340   36.8530 C.3    48  PHE48       0.1639
     35  C        -36.8210  -26.3130   37.7680 C.2    48  PHE48       0.2290
     36  O        -37.2640  -25.2050   38.0930 O.2    48  PHE48      -0.2864
     37  CB       -34.2830  -26.3580   37.6520 C.3    48  PHE48       0.0560
     38  CG       -33.9170  -24.9760   38.1250 C.ar   48  PHE48      -0.0200
     39  CD1      -34.4980  -24.4330   39.2640 C.ar   48  PHE48      -0.0042
     40  CD2      -32.9720  -24.2250   37.4390 C.ar   48  PHE48      -0.0042
     41  CE1      -34.1450  -23.1610   39.7060 C.ar   48  PHE48      -0.0003
     42  CE2      -32.6120  -22.9560   37.8740 C.ar   48  PHE48      -0.0003
     43  CZ       -33.2030  -22.4210   39.0050 C.ar   48  PHE48      -0.0000
     44  N        -33.2570  -22.2410   31.6980 N.3    84  SER84      -0.1202
     45  CA       -34.0470  -21.0090   31.7090 C.3    84  SER84       0.2020
     46  C        -34.4730  -20.5850   33.1160 C.2    84  SER84       0.2619
     47  O        -35.3700  -19.7580   33.2810 O.2    84  SER84      -0.2717
     48  CB       -35.2810  -21.1570   30.8180 C.3    84  SER84       0.2103
     49  OG       -36.1560  -22.1510   31.3290 O.3    84  SER84      -0.2182
     50  N        -33.8450  -21.1540   34.1360 N.am   85  GLY85      -0.1942
     51  CA       -34.1280  -20.7240   35.4910 C.3    85  GLY85       0.2014
     52  C        -35.2700  -21.4940   36.1140 C.2    85  GLY85       0.2639
     53  O        -35.6270  -22.5760   35.6450 O.2    85  GLY85      -0.2714
     54  N        -35.8410  -20.9390   37.1790 N.am   86  GLY86      -0.1939
     55  CA       -36.9130  -21.6080   37.9020 C.3    86  GLY86       0.2014
     56  C        -38.1470  -21.8030   37.0450 C.2    86  GLY86       0.2639
     57  O        -38.4880  -20.9320   36.2400 O.2    86  GLY86      -0.2714
     58  N        -38.7980  -22.9530   37.2010 N.am   87  ASP87      -0.1957
     59  CA       -40.0090  -23.2740   36.4530 C.3    87  ASP87       0.1840
     60  C        -41.1580  -22.4040   36.9710 C.2    87  ASP87       0.2622
     61  O        -41.6970  -22.6450   38.0570 O.2    87  ASP87      -0.2715
     62  CB       -40.3290  -24.7640   36.6320 C.3    87  ASP87       0.1450
     63  CG       -41.3980  -25.2690   35.6700 C.2    87  ASP87       0.3671
     64  OD1      -42.2550  -24.4710   35.2380 O.co2  87  ASP87      -0.2456
     65  OD2      -41.3870  -26.4820   35.3540 O.co2  87  ASP87      -0.2456
     66  N        -41.5390  -21.4040   36.1790 N.am   88  GLN88      -0.1963
     67  CA       -42.5550  -20.4250   36.5760 C.3    88  GLN88       0.1733
     68  C        -43.9420  -21.0400   36.6560 C.2    88  GLN88       0.2616
     69  O        -44.8480  -20.4810   37.2790 O.2    88  GLN88      -0.2715
     70  CB       -42.5510  -19.2160   35.6400 C.3    88  GLN88       0.0408
     71  CG       -41.2470  -18.4440   35.6640 C.3    88  GLN88       0.0908
     72  CD       -40.8890  -17.9670   37.0560 C.2    88  GLN88       0.2608
     73  OE1      -41.5650  -17.0980   37.6210 O.2    88  GLN88      -0.2717
     74  NE2      -39.8230  -18.5320   37.6230 N.am   88  GLN88      -0.0878
     75  N        -44.1050  -22.1820   35.9970 N.am   89  LYS89      -0.1977
     76  CA       -45.3620  -22.9240   36.0110 C.3    89  LYS89       0.1596
     77  C        -45.6620  -23.5220   37.3910 C.2    89  LYS89       0.2287
     78  O        -46.8240  -23.7840   37.7260 O.2    89  LYS89      -0.2864
     79  CB       -45.3100  -24.0160   34.9340 C.3    89  LYS89       0.0298
     80  CG       -46.4160  -25.0530   34.9830 C.3    89  LYS89       0.0038
     81  CD       -46.1850  -26.1400   33.9400 C.3    89  LYS89       0.0206
     82  CE       -47.2270  -27.2390   34.0510 C.3    89  LYS89       0.1093
     83  NZ       -47.1350  -27.9030   35.3860 N.3    89  LYS89      -0.1314
     84  N        -40.9630  -22.3560   44.9190 N.3    97  TYR97      -0.1241
     85  CA       -41.4210  -23.2690   43.8780 C.3    97  TYR97       0.1605
     86  C        -41.9830  -24.5600   44.4750 C.2    97  TYR97       0.2264
     87  O        -41.3760  -25.1750   45.3570 O.2    97  TYR97      -0.2867
     88  CB       -40.2690  -23.5430   42.9150 C.3    97  TYR97       0.0534
     89  CG       -39.8170  -22.2730   42.2300 C.ar   97  TYR97      -0.0201
     90  CD1      -38.9370  -21.3970   42.8590 C.ar   97  TYR97      -0.0009
     91  CD2      -40.2990  -21.9260   40.9710 C.ar   97  TYR97      -0.0009
     92  CE1      -38.5310  -20.2170   42.2460 C.ar   97  TYR97       0.0417
     93  CE2      -39.8940  -20.7480   40.3490 C.ar   97  TYR97       0.0417
     94  CZ       -39.0130  -19.9000   40.9930 C.ar   97  TYR97       0.1957
     95  OH       -38.6090  -18.7280   40.3830 O.3    97  TYR97      -0.2866
     96  N        -36.8750  -22.9930   47.6140 N.3   106  LEU106     -0.1245
     97  CA       -35.8950  -22.2100   46.8740 C.3   106  LEU106      0.1561
     98  C        -34.5800  -22.9860   46.8990 C.2   106  LEU106      0.2260
     99  O        -33.5170  -22.4300   47.1990 O.2   106  LEU106     -0.2867
    100  CB       -35.7320  -20.8230   47.5040 C.3   106  LEU106      0.0270
    101  CG       -36.9790  -19.9380   47.4260 C.3   106  LEU106      0.0019
    102  CD1      -36.8540  -18.7080   48.3130 C.3   106  LEU106      0.0001
    103  CD2      -37.2070  -19.5270   45.9750 C.3   106  LEU106      0.0001
    104  N        -32.5470  -24.1790   44.7750 N.3   108  VAL108     -0.1231
    105  CA       -31.4190  -23.8570   43.9060 C.3   108  VAL108      0.1692
    106  C        -30.3420  -23.1130   44.7140 C.2   108  VAL108      0.2591
    107  O        -29.1640  -23.1330   44.3560 O.2   108  VAL108     -0.2718
    108  CB       -31.8350  -23.0790   42.6290 C.3   108  VAL108      0.0266
    109  CG1      -32.0810  -21.6090   42.9360 C.3   108  VAL108      0.0020
    110  CG2      -30.7630  -23.2100   41.5590 C.3   108  VAL108      0.0020
    111  N        -30.7420  -22.4720   45.8100 N.am  109  LEU109     -0.1980
    112  CA       -29.7650  -21.8400   46.6960 C.3   109  LEU109      0.1596
    113  C        -28.8270  -22.8840   47.3200 C.2   109  LEU109      0.2287
    114  O        -27.6390  -22.6160   47.5310 O.2   109  LEU109     -0.2864
    115  CB       -30.4520  -21.0150   47.7930 C.3   109  LEU109      0.0297
    116  CG       -31.3130  -19.8410   47.3040 C.3   109  LEU109      0.0022
    117  CD1      -31.9000  -19.0810   48.4880 C.3   109  LEU109      0.0001
    118  CD2      -30.5550  -18.9000   46.3630 C.3   109  LEU109      0.0001
    119  N        -29.9750  -20.7130   25.3630 N.3   129  TYR129     -0.1241
    120  CA       -30.3460  -19.8290   26.4630 C.3   129  TYR129      0.1605
    121  C        -29.7770  -20.2350   27.8290 C.2   129  TYR129      0.2264
    122  O        -29.9560  -21.3670   28.2820 O.2   129  TYR129     -0.2867
    123  CB       -31.8740  -19.7130   26.5540 C.3   129  TYR129      0.0534
    124  CG       -32.5080  -19.0250   25.3660 C.ar  129  TYR129     -0.0201
    125  CD1      -32.4910  -17.6430   25.2520 C.ar  129  TYR129     -0.0009
    126  CD2      -33.1170  -19.7580   24.3560 C.ar  129  TYR129     -0.0009
    127  CE1      -33.0670  -17.0080   24.1640 C.ar  129  TYR129      0.0417
    128  CE2      -33.6950  -19.1320   23.2700 C.ar  129  TYR129      0.0417
    129  CZ       -33.6620  -17.7570   23.1800 C.ar  129  TYR129      0.1957
    130  OH       -34.2340  -17.1210   22.1030 O.3   129  TYR129     -0.2866
    131  N        -30.5630  -18.2880   31.0790 N.3   131  ILE131     -0.1231
    132  CA       -31.4100  -17.1400   31.4150 C.3   131  ILE131      0.1692
    133  C        -31.9350  -17.2360   32.8460 C.2   131  ILE131      0.2593
    134  O        -32.3060  -18.3240   33.3010 O.2   131  ILE131     -0.2718
    135  CB       -32.6290  -17.0520   30.4590 C.3   131  ILE131      0.0266
    136  CG1      -32.1990  -16.8300   29.0000 C.3   131  ILE131      0.0019
    137  CG2      -33.5770  -15.9470   30.9050 C.3   131  ILE131      0.0020
    138  CD1      -31.6920  -15.4240   28.7020 C.3   131  ILE131      0.0001
    139  N        -31.9580  -16.1120   33.5610 N.am  132  GLY132     -0.1942
    140  CA       -32.5280  -16.0720   34.9000 C.3   132  GLY132      0.2014
    141  C        -31.7270  -16.8890   35.8940 C.2   132  GLY132      0.2639
    142  O        -30.5060  -16.7320   35.9930 O.2   132  GLY132     -0.2714
    143  N        -32.4070  -17.7610   36.6430 N.am  133  GLY133     -0.1954
    144  CA       -31.7060  -18.6530   37.5550 C.3   133  GLY133      0.1869
    145  C        -30.7150  -19.5310   36.8070 C.2   133  GLY133      0.2309
    146  O        -29.6840  -19.9330   37.3510 O.2   133  GLY133     -0.2863
    147  N        -33.8490  -11.9100   34.1600 N.3   155  THR155     -0.1203
    148  CA       -35.2160  -11.4810   33.8620 C.3   155  THR155      0.1994
    149  C        -35.9480  -11.0200   35.1200 C.2   155  THR155      0.2618
    150  O        -37.1150  -10.6360   35.0460 O.2   155  THR155     -0.2717
    151  CB       -36.0550  -12.6180   33.2460 C.3   155  THR155      0.1784
    152  OG1      -36.0600  -13.7400   34.1470 O.3   155  THR155     -0.2211
    153  CG2      -35.4830  -13.0440   31.9070 C.3   155  THR155      0.0376
    154  N        -35.2670  -11.0720   36.2630 N.am  156  GLY156     -0.1956
    155  CA       -35.9060  -10.8010   37.5420 C.3   156  GLY156      0.1869
    156  C        -36.8990   -9.6500   37.5890 C.2   156  GLY156      0.2309
    157  O        -38.0890   -9.8720   37.7850 O.2   156  GLY156     -0.2863
    158  N        -39.9280  -10.4880   35.6310 N.3   159  VAL159     -0.1245
    159  CA       -40.7780  -11.6060   36.0710 C.3   159  VAL159      0.1561
    160  C        -41.0930  -11.5870   37.5510 C.2   159  VAL159      0.2260
    161  O        -41.6690  -12.5380   38.0800 O.2   159  VAL159     -0.2867
    162  CB       -40.1720  -12.9920   35.7750 C.3   159  VAL159      0.0252
    163  CG1      -40.2050  -13.2910   34.3220 C.3   159  VAL159      0.0019
    164  CG2      -38.7570  -13.0890   36.3380 C.3   159  VAL159      0.0019
    165  N        -38.8460  -11.3060   40.2360 N.3   161  SER161     -0.1202
    166  CA       -37.8890  -12.0190   41.0760 C.3   161  SER161      0.2020
    167  C        -36.5820  -11.2450   41.1190 C.2   161  SER161      0.2619
    168  O        -36.4430  -10.2210   40.4520 O.2   161  SER161     -0.2717
    169  CB       -37.6440  -13.4440   40.5610 C.3   161  SER161      0.2103
    170  OG       -36.9090  -14.1980   41.5210 O.3   161  SER161     -0.2182
    171  N        -35.6440  -11.7130   41.9350 N.am  162  PHE162     -0.1961
    172  CA       -34.2730  -11.2100   41.8940 C.3   162  PHE162      0.1771
    173  C        -33.3450  -12.1810   42.6120 C.2   162  PHE162      0.2619
    174  O        -33.7550  -12.8550   43.5550 O.2   162  PHE162     -0.2715
    175  CB       -34.1520   -9.7940   42.4840 C.3   162  PHE162      0.0574
    176  CG       -34.6190   -9.6730   43.9110 C.ar  162  PHE162     -0.0200
    177  CD1      -33.7710   -9.9850   44.9660 C.ar  162  PHE162     -0.0042
    178  CD2      -35.8950   -9.2150   44.1970 C.ar  162  PHE162     -0.0042
    179  CE1      -34.1980   -9.8610   46.2860 C.ar  162  PHE162     -0.0003
    180  CE2      -36.3300   -9.0870   45.5140 C.ar  162  PHE162     -0.0003
    181  CZ       -35.4840   -9.4080   46.5570 C.ar  162  PHE162     -0.0000
    182  N        -32.1040  -12.2700   42.1500 N.am  163  ASP163     -0.1971
    183  CA       -31.0930  -12.9910   42.9030 C.3   163  ASP163      0.1709
    184  C        -30.0880  -11.9540   43.3740 C.2   163  ASP163      0.2293
    185  O        -29.2190  -11.5180   42.6080 O.2   163  ASP163     -0.2864
    186  CB       -30.4270  -14.0750   42.0440 C.3   163  ASP163      0.1436
    187  CG       -29.5050  -14.9740   42.8520 C.2   163  ASP163      0.3671
    188  OD1      -28.8170  -14.4750   43.7810 O.co2 163  ASP163     -0.2456
    189  OD2      -29.4820  -16.1950   42.5770 O.co2 163  ASP163     -0.2456
    190  N        -28.8200   -6.5210   35.2410 N.3   184  TRP184     -0.1241
    191  CA       -29.9520   -6.6770   36.1490 C.3   184  TRP184      0.1605
    192  C        -31.0750   -5.6730   35.9280 C.2   184  TRP184      0.2264
    193  O        -32.2440   -6.0590   35.9350 O.2   184  TRP184     -0.2867
    194  CB       -29.4910   -6.6160   37.6090 C.3   184  TRP184      0.0550
    195  CG       -29.0250   -7.9410   38.1370 C.ar  184  TRP184      0.0003
    196  CD1      -27.7500   -8.2850   38.4990 C.ar  184  TRP184      0.0946
    197  CD2      -29.8390   -9.1100   38.3620 C.ar  184  TRP184      0.0152
    198  NE1      -27.7250   -9.6000   38.9400 N.ar  184  TRP184     -0.2442
    199  CE2      -28.9930  -10.1200   38.8680 C.ar  184  TRP184      0.0810
    200  CE3      -31.1980   -9.3940   38.1850 C.ar  184  TRP184      0.0012
    201  CZ2      -29.4640  -11.3970   39.2000 C.ar  184  TRP184      0.0191
    202  CZ3      -31.6670  -10.6630   38.5210 C.ar  184  TRP184      0.0001
    203  CH2      -30.8000  -11.6480   39.0200 C.ar  184  TRP184      0.0015
    204  N        -31.1820   -9.3960   26.6690 N.3   189  GLN189     -0.1245
    205  CA       -30.4770  -10.6210   26.3120 C.3   189  GLN189      0.1566
    206  C        -29.1800  -10.2660   25.6100 C.2   189  GLN189      0.2260
    207  O        -29.1150   -9.2680   24.8850 O.2   189  GLN189     -0.2867
    208  CB       -31.3440  -11.5330   25.4340 C.3   189  GLN189      0.0367
    209  CG       -32.5110  -12.1620   26.1950 C.3   189  GLN189      0.0905
    210  CD       -33.4150  -13.0140   25.3330 C.2   189  GLN189      0.2608
    211  OE1      -33.2410  -13.1140   24.1120 O.2   189  GLN189     -0.2717
    212  NE2      -34.3820  -13.6640   25.9760 N.am  189  GLN189     -0.0878
@<TRIPOS>BOND
     1    27    25    1
     2   130   129    1
     3    25    26    1
     4    25    24    2
     5   129   128   ar
     6   129   127   ar
     7   128   126   ar
     8    24    23    1
     9   211   210    2
    10   127   125   ar
    11   126   124   ar
    12   207   206    2
    13   125   124   ar
    14    23    22    1
    15   210   212   am
    16   210   209    1
    17   119   120    1
    18   124   123    1
    19   208   209    1
    20   208   205    1
    21   206   205    1
    22   205   204    1
    23     2     5    1
    24     2     1    1
    25     2     3    1
    26    22    21    1
    27   120   123    1
    28   120   121    1
    29     5     6    1
    30     4     3    2
    31     3    10   am
    32    21    18    1
    33   121   122    2
    34    18    17    1
    35    18    19    1
    36    17    12   am
    37     6     7    1
    38    10    11    1
    39     8     7    2
    40   138   136    1
    41     7     9   am
    42    11    12    1
    43    11    14    1
    44    12    13    2
    45   136   135    1
    46    19    20    2
    47    15    14    1
    48    14    16    1
    49   135   137    1
    50   135   132    1
    51    48    49    1
    52    48    45    1
    53   131   132    1
    54   132   133    1
    55    44    45    1
    56    45    46    1
    57   153   151    1
    58    28    29    1
    59   133   134    2
    60   133   139   am
    61    46    47    2
    62    46    50   am
    63   151   148    1
    64   151   152    1
    65    32    29    1
    66    29    30    1
    67   139   140    1
    68   148   147    1
    69   148   149    1
    70    81    82    1
    71    81    80    1
    72    82    83    1
    73    50    51    1
    74   163   162    1
    75    31    30    2
    76    30    33   am
    77   140   141    1
    78    79    80    1
    79    79    76    1
    80   150   149    2
    81   149   154   am
    82    64    63   ar
    83   190   191    1
    84    65    63   ar
    85    51    52    1
    86   158   159    1
    87    70    71    1
    88    70    67    1
    89    53    52    2
    90    71    72    1
    91    63    62    1
    92    33    34    1
    93   162   159    1
    94   162   164    1
    95   141   142    2
    96   141   143   am
    97   192   193    2
    98   192   191    1
    99    75    76    1
   100    75    68   am
   101    76    77    1
   102   159   160    1
   103    52    54   am
   104   191   194    1
   105    66    67    1
   106    66    60   am
   107    57    56    2
   108   154   155    1
   109    59    62    1
   110    59    60    1
   111    59    58    1
   112    67    68    1
   113   143   144    1
   114    68    69    2
   115   145   146    2
   116   145   144    1
   117    34    37    1
   118    34    35    1
   119    60    61    2
   120    56    58   am
   121    56    55    1
   122    72    73    2
   123    72    74   am
   124    54    55    1
   125    77    78    2
   126    40    42   ar
   127    40    38   ar
   128   155   156    1
   129   160   161    2
   130   156   157    2
   131   194   195    1
   132    37    38    1
   133    35    36    2
   134    42    43   ar
   135    38    39   ar
   136   195   197   ar
   137   195   196   ar
   138   200   197   ar
   139   200   202   ar
   140   197   199   ar
   141   196   198   ar
   142   202   203   ar
   143   199   198   ar
   144   199   201   ar
   145    43    41   ar
   146   203   201   ar
   147    39    41   ar
   148   165   166    1
   149    93    91   ar
   150    93    94   ar
   151    95    94    1
   152   168   167    2
   153   169   166    1
   154   169   170    1
   155    91    89   ar
   156    94    92   ar
   157   166   167    1
   158   167   171   am
   159   110   108    1
   160   172   171    1
   161   172   175    1
   162   172   173    1
   163   186   187    1
   164   186   183    1
   165   182   173   am
   166   182   183    1
   167    89    90   ar
   168    89    88    1
   169    92    90   ar
   170   175   176    1
   171   189   187   ar
   172   185   184    2
   173   173   174    2
   174   108   109    1
   175   108   105    1
   176   187   188   ar
   177   183   184    1
   178    88    85    1
   179    85    86    1
   180    85    84    1
   181   105   106    1
   182   105   104    1
   183   176   178   ar
   184   176   177   ar
   185   178   180   ar
   186   107   106    2
   187    86    87    2
   188   106   111   am
   189   177   179   ar
   190   180   181   ar
   191   111   112    1
   192   103   101    1
   193   179   181   ar
   194   118   116    1
   195   112   113    1
   196   112   115    1
   197    97    98    1
   198    97   100    1
   199    97    96    1
   200    98    99    2
   201   116   115    1
   202   116   117    1
   203   113   114    2
   204   101   100    1
   205   101   102    1
