@<TRIPOS>MOLECULE
tmp/4i46B00.pdb
 91 88 0 0 0
SMALL
GASTEIGER

@<TRIPOS>ATOM
      1  N          0.3160    1.3220  -15.4130 N.3    25  GLN25      -0.1231
      2  CA         1.6360    1.8140  -15.7710 C.3    25  GLN25       0.1698
      3  C          2.7370    1.3750  -14.8130 C.2    25  GLN25       0.2592
      4  O          3.8340    1.0420  -15.2570 O.2    25  GLN25      -0.2718
      5  CB         1.6190    3.3410  -15.8290 C.3    25  GLN25       0.0381
      6  CG         1.0000    3.9150  -17.0840 C.3    25  GLN25       0.0905
      7  CD         1.9310    3.8300  -18.2690 C.2    25  GLN25       0.2608
      8  OE1        1.5310    4.0800  -19.4010 O.2    25  GLN25      -0.2717
      9  NE2        3.1880    3.4870  -18.0140 N.am   25  GLN25      -0.0878
     10  N          2.4420    1.3600  -13.5120 N.am   26  PHE26      -0.1976
     11  CA         3.4440    1.0170  -12.5020 C.3    26  PHE26       0.1639
     12  C          3.4160   -0.3480  -11.8420 C.2    26  PHE26       0.2290
     13  O          4.1250   -0.5580  -10.8570 O.2    26  PHE26      -0.2864
     14  CB         3.4380    2.0570  -11.3910 C.3    26  PHE26       0.0560
     15  CG         3.6450    3.4540  -11.8710 C.ar   26  PHE26      -0.0200
     16  CD1        4.5420    3.7230  -12.9020 C.ar   26  PHE26      -0.0042
     17  CD2        2.9770    4.5110  -11.2710 C.ar   26  PHE26      -0.0042
     18  CE1        4.7660    5.0210  -13.3200 C.ar   26  PHE26      -0.0003
     19  CE2        3.1960    5.8130  -11.6830 C.ar   26  PHE26      -0.0003
     20  CZ         4.0910    6.0690  -12.7080 C.ar   26  PHE26      -0.0000
     21  N          6.4430   -2.7070   -0.6930 N.3    72  HIS72      -0.1241
     22  CA         6.2400   -3.0690   -2.0910 C.3    72  HIS72       0.1621
     23  C          6.6150   -4.5450   -2.2060 C.2    72  HIS72       0.2264
     24  O          7.7690   -4.9080   -1.9800 O.2    72  HIS72      -0.2867
     25  CB         7.1440   -2.2440   -3.0110 C.3    72  HIS72       0.0745
     26  CG         6.7960   -2.3560   -4.4670 C.ar   72  HIS72       0.0817
     27  ND1        6.0010   -1.4360   -5.1160 N.ar   72  HIS72      -0.2268
     28  CD2        7.1160   -3.2900   -5.3930 C.ar   72  HIS72       0.1154
     29  CE1        5.8460   -1.7970   -6.3770 C.ar   72  HIS72       0.1986
     30  NE2        6.5120   -2.9190   -6.5720 N.ar   72  HIS72      -0.2212
     31  N         14.5200    6.5390   -4.1180 N.3   207  PHE207     -0.1241
     32  CA        13.4900    7.1550   -4.9390 C.3   207  PHE207      0.1605
     33  C         13.5490    8.6820   -4.8360 C.2   207  PHE207      0.2264
     34  O         13.4540    9.2340   -3.7440 O.2   207  PHE207     -0.2867
     35  CB        12.1220    6.6610   -4.4790 C.3   207  PHE207      0.0534
     36  CG        11.0520    6.8690   -5.4830 C.ar  207  PHE207     -0.0203
     37  CD1       10.8800    5.9680   -6.5330 C.ar  207  PHE207     -0.0042
     38  CD2       10.2550    8.0010   -5.4280 C.ar  207  PHE207     -0.0042
     39  CE1        9.9260    6.1990   -7.5210 C.ar  207  PHE207     -0.0003
     40  CE2        9.3000    8.2450   -6.4050 C.ar  207  PHE207     -0.0003
     41  CZ         9.1310    7.3440   -7.4580 C.ar  207  PHE207     -0.0000
     42  N         10.0890   12.7670   -7.9090 N.3   211  MET211     -0.1245
     43  CA         9.0440   11.9360   -8.4900 C.3   211  MET211      0.1570
     44  C          7.8260   11.7610   -7.5880 C.2   211  MET211      0.2261
     45  O          6.7100   11.5760   -8.0850 O.2   211  MET211     -0.2867
     46  CB         9.6310   10.5950   -8.9290 C.3   211  MET211      0.0387
     47  CG        10.6690   10.7860  -10.0290 C.3   211  MET211      0.0595
     48  SD        11.2660    9.2920  -10.8360 S.3   211  MET211     -0.1393
     49  CE         9.6830    8.6050  -11.4590 C.3   211  MET211      0.0692
     50  N          3.9710   11.7370   -9.3280 N.3   215  THR215     -0.1218
     51  CA         3.0460   10.6160   -9.3510 C.3   215  THR215      0.1862
     52  C          1.6130   10.9570   -8.9500 C.2   215  THR215      0.2287
     53  O          0.6740   10.3050   -9.3880 O.2   215  THR215     -0.2866
     54  CB         3.5840    9.4510   -8.4900 C.3   215  THR215      0.1770
     55  OG1        3.8200    9.8990   -7.1500 O.3   215  THR215     -0.2211
     56  CG2        4.8950    8.9270   -9.0820 C.3   215  THR215      0.0375
     57  N         -1.5150    8.2150   -8.5410 N.3   220  TYR220     -0.1241
     58  CA        -0.7870    7.1280   -7.8990 C.3   220  TYR220      0.1605
     59  C         -0.9460    7.2600   -6.3900 C.2   220  TYR220      0.2264
     60  O         -0.8690    6.2800   -5.6510 O.2   220  TYR220     -0.2867
     61  CB         0.6910    7.1890   -8.2900 C.3   220  TYR220      0.0534
     62  CG         1.4890    6.0010   -7.8210 C.ar  220  TYR220     -0.0201
     63  CD1        1.2080    4.7210   -8.3000 C.ar  220  TYR220     -0.0009
     64  CD2        2.5150    6.1490   -6.8840 C.ar  220  TYR220     -0.0009
     65  CE1        1.9260    3.6160   -7.8660 C.ar  220  TYR220      0.0417
     66  CE2        3.2400    5.0540   -6.4390 C.ar  220  TYR220      0.0417
     67  CZ         2.9450    3.7860   -6.9360 C.ar  220  TYR220      0.1957
     68  OH         3.6750    2.6820   -6.5370 O.3   220  TYR220     -0.2866
     69  N         15.1600    7.0980  -12.0110 N.3   245  ILE245     -0.1245
     70  CA        15.1260    5.6840  -11.6630 C.3   245  ILE245      0.1561
     71  C         15.3130    4.8330  -12.9160 C.2   245  ILE245      0.2260
     72  O         14.8120    5.1720  -13.9920 O.2   245  ILE245     -0.2867
     73  CB        13.7720    5.3020  -11.0120 C.3   245  ILE245      0.0252
     74  CG1       12.6360    5.5900  -11.9890 C.3   245  ILE245      0.0019
     75  CG2       13.5470    6.0840   -9.7360 C.3   245  ILE245      0.0019
     76  CD1       11.3430    5.0100  -11.5580 C.3   245  ILE245      0.0001
     77  N         11.1350    0.6470   -7.7660 N.3   261  PRO261     -0.2102
     78  CA        10.5280   -0.6840   -7.8120 C.3   261  PRO261      0.1504
     79  C         11.1840   -1.5140   -8.9150 C.2   261  PRO261      0.2575
     80  O         10.9710   -2.7200   -9.0050 O.2   261  PRO261     -0.2718
     81  CB         9.0610   -0.3810   -8.1010 C.3   261  PRO261      0.0282
     82  CG         8.8540    0.9410   -7.3940 C.3   261  PRO261      0.0208
     83  CD        10.1030    1.7010   -7.8050 C.3   261  PRO261      0.0893
     84  N         12.0010   -0.8630   -9.7370 N.am  262  LEU262     -0.1980
     85  CA        12.6800   -1.5350  -10.8400 C.3   262  LEU262      0.1596
     86  C         14.0150   -2.1620  -10.4360 C.2   262  LEU262      0.2287
     87  O         14.6730   -2.8100  -11.2540 O.2   262  LEU262     -0.2864
     88  CB        12.9530   -0.5420  -11.9710 C.3   262  LEU262      0.0297
     89  CG        11.8170    0.3290  -12.5170 C.3   262  LEU262      0.0022
     90  CD1       12.4170    1.5000  -13.2770 C.3   262  LEU262      0.0001
     91  CD2       10.8910   -0.4890  -13.4080 C.3   262  LEU262      0.0001
@<TRIPOS>BOND
     1     8     7    2
     2     7     9   am
     3     7     6    1
     4     6     5    1
     5     5     2    1
     6     2     1    1
     7     2     3    1
     8     4     3    2
     9     3    10   am
    10    72    71    2
    11    10    11    1
    12    91    89    1
    13    18    16   ar
    14    18    20   ar
    15    90    89    1
    16    71    70    1
    17    16    15   ar
    18    20    19   ar
    19    89    88    1
    20    11    12    1
    21    11    14    1
    22    69    70    1
    23    74    76    1
    24    74    73    1
    25    88    85    1
    26    15    14    1
    27    15    17   ar
    28    12    13    2
    29    19    17   ar
    30    70    73    1
    31    49    48    1
    32    87    86    2
    33    73    75    1
    34    85    86    1
    35    85    84    1
    36    48    47    1
    37    47    46    1
    38    84    79   am
    39    53    52    2
    40    51    50    1
    41    51    52    1
    42    51    54    1
    43    56    54    1
    44    80    79    2
    45    46    43    1
    46    79    78    1
    47    57    58    1
    48    43    42    1
    49    43    44    1
    50    54    55    1
    51    63    65   ar
    52    63    62   ar
    53    61    58    1
    54    61    62    1
    55    81    78    1
    56    81    82    1
    57    45    44    2
    58    58    59    1
    59    65    67   ar
    60    62    64   ar
    61    78    77    1
    62    83    77    1
    63    83    82    1
    64    39    41   ar
    65    39    37   ar
    66    41    40   ar
    67    67    68    1
    68    67    66   ar
    69    64    66   ar
    70    30    29   ar
    71    30    28   ar
    72    37    36   ar
    73    40    38   ar
    74    59    60    2
    75    29    27   ar
    76    36    38   ar
    77    36    35    1
    78    28    26   ar
    79    27    26   ar
    80    32    33    1
    81    32    35    1
    82    32    31    1
    83    33    34    2
    84    26    25    1
    85    25    22    1
    86    23    22    1
    87    23    24    2
    88    22    21    1
