@<TRIPOS>MOLECULE
tmp/4i46B01.pdb
 95 92 0 0 0
SMALL
GASTEIGER

@<TRIPOS>ATOM
      1  N          0.3160    1.3220  -15.4130 N.3    25  GLN25      -0.1231
      2  CA         1.6360    1.8140  -15.7710 C.3    25  GLN25       0.1698
      3  C          2.7370    1.3750  -14.8130 C.2    25  GLN25       0.2592
      4  O          3.8340    1.0420  -15.2570 O.2    25  GLN25      -0.2718
      5  CB         1.6190    3.3410  -15.8290 C.3    25  GLN25       0.0381
      6  CG         1.0000    3.9150  -17.0840 C.3    25  GLN25       0.0905
      7  CD         1.9310    3.8300  -18.2690 C.2    25  GLN25       0.2608
      8  OE1        1.5310    4.0800  -19.4010 O.2    25  GLN25      -0.2717
      9  NE2        3.1880    3.4870  -18.0140 N.am   25  GLN25      -0.0878
     10  N          2.4420    1.3600  -13.5120 N.am   26  PHE26      -0.1962
     11  CA         3.4440    1.0170  -12.5020 C.3    26  PHE26       0.1771
     12  C          3.4160   -0.3480  -11.8420 C.2    26  PHE26       0.2620
     13  O          4.1250   -0.5580  -10.8570 O.2    26  PHE26      -0.2715
     14  CB         3.4380    2.0570  -11.3910 C.3    26  PHE26       0.0574
     15  CG         3.6450    3.4540  -11.8710 C.ar   26  PHE26      -0.0200
     16  CD1        4.5420    3.7230  -12.9020 C.ar   26  PHE26      -0.0042
     17  CD2        2.9770    4.5110  -11.2710 C.ar   26  PHE26      -0.0042
     18  CE1        4.7660    5.0210  -13.3200 C.ar   26  PHE26      -0.0003
     19  CE2        3.1960    5.8130  -11.6830 C.ar   26  PHE26      -0.0003
     20  CZ         4.0910    6.0690  -12.7080 C.ar   26  PHE26      -0.0000
     21  N          2.5990   -1.2650  -12.3540 N.am   27  THR27      -0.1937
     22  CA         2.5210   -2.6120  -11.7970 C.3    27  THR27       0.2028
     23  C          2.3540   -3.5830  -12.9520 C.2    27  THR27       0.2642
     24  O          2.0240   -3.1640  -14.0590 O.2    27  THR27      -0.2714
     25  CB         1.3280   -2.7650  -10.8300 C.3    27  THR27       0.1808
     26  OG1        0.0950   -2.7200  -11.5620 O.3    27  THR27      -0.2208
     27  CG2        1.3480   -1.6650   -9.7930 C.3    27  THR27       0.0379
     28  N          2.5770   -4.8740  -12.6970 N.am   28  ALA28      -0.1977
     29  CA         2.4650   -5.8970  -13.7380 C.3    28  ALA28       0.1597
     30  C          2.0070   -7.2310  -13.1710 C.2    28  ALA28       0.2287
     31  O          2.1870   -7.4940  -11.9860 O.2    28  ALA28      -0.2864
     32  CB         3.8090   -6.0730  -14.4450 C.3    28  ALA28       0.0319
     33  N          3.2620   -9.9540  -13.9610 N.3    30  LYS30      -0.1231
     34  CA         4.4840  -10.7320  -13.8330 C.3    30  LYS30       0.1693
     35  C          5.6440   -9.8290  -13.4260 C.2    30  LYS30       0.2593
     36  O          5.6300   -8.6260  -13.6820 O.2    30  LYS30      -0.2718
     37  CB         4.8150  -11.4230  -15.1570 C.3    30  LYS30       0.0285
     38  CG         3.9070  -12.6010  -15.4820 C.3    30  LYS30       0.0035
     39  CD         4.3790  -13.3450  -16.7240 C.3    30  LYS30       0.0206
     40  CE         3.4960  -14.5670  -16.9920 C.3    30  LYS30       0.1093
     41  NZ         3.9530  -15.3580  -18.1760 N.3    30  LYS30      -0.1314
     42  N          6.6370  -10.4050  -12.7660 N.am   31  SER31      -0.1938
     43  CA         7.7980   -9.6310  -12.3620 C.3    31  SER31       0.2055
     44  C          8.9050   -9.9800  -13.3380 C.2    31  SER31       0.2643
     45  O          8.6970  -10.7660  -14.2710 O.2    31  SER31      -0.2714
     46  CB         8.2380  -10.0030  -10.9460 C.3    31  SER31       0.2130
     47  OG         8.8940  -11.2560  -10.9260 O.3    31  SER31      -0.2179
     48  N         10.0830   -9.4040  -13.1350 N.am   32  ASP32      -0.1971
     49  CA        11.1940   -9.7090  -14.0280 C.3    32  ASP32       0.1709
     50  C         12.2830  -10.4790  -13.3010 C.2    32  ASP32       0.2293
     51  O         13.4720  -10.3380  -13.5790 O.2    32  ASP32      -0.2864
     52  CB        11.7510   -8.4390  -14.6960 C.3    32  ASP32       0.1436
     53  CG        12.2450   -7.3990  -13.7020 C.2    32  ASP32       0.3671
     54  OD1       12.1450   -7.6080  -12.4730 O.co2  32  ASP32      -0.2456
     55  OD2       12.7400   -6.3510  -14.1650 O.co2  32  ASP32      -0.2456
     56  N          6.4430   -2.7070   -0.6930 N.3    72  HIS72      -0.1241
     57  CA         6.2400   -3.0690   -2.0910 C.3    72  HIS72       0.1621
     58  C          6.6150   -4.5450   -2.2060 C.2    72  HIS72       0.2264
     59  O          7.7690   -4.9080   -1.9800 O.2    72  HIS72      -0.2867
     60  CB         7.1440   -2.2440   -3.0110 C.3    72  HIS72       0.0745
     61  CG         6.7960   -2.3560   -4.4670 C.ar   72  HIS72       0.0817
     62  ND1        6.0010   -1.4360   -5.1160 N.ar   72  HIS72      -0.2268
     63  CD2        7.1160   -3.2900   -5.3930 C.ar   72  HIS72       0.1154
     64  CE1        5.8460   -1.7970   -6.3770 C.ar   72  HIS72       0.1986
     65  NE2        6.5120   -2.9190   -6.5720 N.ar   72  HIS72      -0.2212
     66  N          7.1880   -6.5520   -4.7420 N.3    74  VAL74      -0.1245
     67  CA         8.2560   -6.9430   -5.6490 C.3    74  VAL74       0.1561
     68  C          9.6050   -6.5010   -5.1010 C.2    74  VAL74       0.2260
     69  O         10.5830   -7.2360   -5.1780 O.2    74  VAL74      -0.2867
     70  CB         8.0600   -6.3600   -7.0580 C.3    74  VAL74       0.0252
     71  CG1        9.1550   -6.8800   -7.9810 C.3    74  VAL74       0.0019
     72  CG2        6.6770   -6.7310   -7.5820 C.3    74  VAL74       0.0019
     73  N         11.7230  -10.0160   -4.5240 N.3    78  LEU78      -0.1245
     74  CA        12.7540  -10.3410   -5.4890 C.3    78  LEU78       0.1561
     75  C         14.0970  -10.5140   -4.7720 C.2    78  LEU78       0.2260
     76  O         14.8380  -11.4600   -5.0540 O.2    78  LEU78      -0.2867
     77  CB        12.8270   -9.2850   -6.5960 C.3    78  LEU78       0.0270
     78  CG        12.1720   -9.8180   -7.8850 C.3    78  LEU78       0.0019
     79  CD1       10.7160  -10.2250   -7.5870 C.3    78  LEU78       0.0001
     80  CD2       12.2390   -8.7810   -9.0070 C.3    78  LEU78       0.0001
     81  N         11.1350    0.6470   -7.7660 N.3   261  PRO261     -0.2102
     82  CA        10.5280   -0.6840   -7.8120 C.3   261  PRO261      0.1504
     83  C         11.1840   -1.5140   -8.9150 C.2   261  PRO261      0.2575
     84  O         10.9710   -2.7200   -9.0050 O.2   261  PRO261     -0.2718
     85  CB         9.0610   -0.3810   -8.1010 C.3   261  PRO261      0.0282
     86  CG         8.8540    0.9410   -7.3940 C.3   261  PRO261      0.0208
     87  CD        10.1030    1.7010   -7.8050 C.3   261  PRO261      0.0893
     88  N         12.0010   -0.8630   -9.7370 N.am  262  LEU262     -0.1980
     89  CA        12.6800   -1.5350  -10.8400 C.3   262  LEU262      0.1596
     90  C         14.0150   -2.1620  -10.4360 C.2   262  LEU262      0.2287
     91  O         14.6730   -2.8100  -11.2540 O.2   262  LEU262     -0.2864
     92  CB        12.9530   -0.5420  -11.9710 C.3   262  LEU262      0.0297
     93  CG        11.8170    0.3290  -12.5170 C.3   262  LEU262      0.0022
     94  CD1       12.4170    1.5000  -13.2770 C.3   262  LEU262      0.0001
     95  CD2       10.8910   -0.4890  -13.4080 C.3   262  LEU262      0.0001
@<TRIPOS>BOND
     1     8     7    2
     2     7     9   am
     3     7     6    1
     4    41    40    1
     5     6     5    1
     6    40    39    1
     7    39    38    1
     8     5     2    1
     9     2     1    1
    10     2     3    1
    11    38    37    1
    12     4     3    2
    13    37    34    1
    14     3    10   am
    15    52    49    1
    16    52    53    1
    17    32    29    1
    18    45    44    2
    19    55    53   ar
    20    24    23    2
    21    49    50    1
    22    49    48    1
    23    33    34    1
    24    34    35    1
    25    29    30    1
    26    29    28    1
    27    53    54   ar
    28    36    35    2
    29    51    50    2
    30    10    11    1
    31    35    42   am
    32    95    93    1
    33    44    48   am
    34    44    43    1
    35    18    16   ar
    36    18    20   ar
    37    94    93    1
    38    30    31    2
    39    23    28   am
    40    23    22    1
    41    16    15   ar
    42    42    43    1
    43    20    19   ar
    44    93    92    1
    45    11    12    1
    46    11    14    1
    47    43    46    1
    48    21    12   am
    49    21    22    1
    50    92    89    1
    51    15    14    1
    52    15    17   ar
    53    12    13    2
    54    22    25    1
    55    19    17   ar
    56    26    25    1
    57    91    90    2
    58    46    47    1
    59    89    90    1
    60    89    88    1
    61    25    27    1
    62    88    83   am
    63    80    78    1
    64    84    83    2
    65    83    82    1
    66    85    82    1
    67    85    86    1
    68    71    70    1
    69    78    79    1
    70    78    77    1
    71    82    81    1
    72    87    81    1
    73    87    86    1
    74    72    70    1
    75    70    67    1
    76    77    74    1
    77    65    64   ar
    78    65    63   ar
    79    64    62   ar
    80    67    68    1
    81    67    66    1
    82    74    75    1
    83    74    73    1
    84    63    61   ar
    85    69    68    2
    86    62    61   ar
    87    76    75    2
    88    61    60    1
    89    60    57    1
    90    58    57    1
    91    58    59    2
    92    57    56    1
