@<TRIPOS>MOLECULE
tmp/4i4cA01.pdb
 129 123 0 0 0
SMALL
GASTEIGER

@<TRIPOS>ATOM
      1  N         13.5070   24.2740   91.3330 N.3    40  ARG40      -0.1245
      2  CA        14.3960   23.1970   90.9090 C.3    40  ARG40       0.1563
      3  C         15.8180   23.7280   90.6490 C.2    40  ARG40       0.2260
      4  O         16.3970   23.4560   89.5910 O.2    40  ARG40      -0.2867
      5  CB        13.8630   22.5940   89.6130 C.3    40  ARG40       0.0307
      6  CG        12.3720   22.2710   89.6280 C.3    40  ARG40       0.0489
      7  CD        12.1290   20.7930   89.8060 C.3    40  ARG40       0.2205
      8  NE        10.7460   20.5120   90.1990 N.pl3  40  ARG40      -0.0865
      9  CZ         9.7880   20.1080   89.3680 C.cat  40  ARG40       0.5346
     10  NH1       10.0500   19.9300   88.0800 N.pl3  40  ARG40       0.1354
     11  NH2        8.5630   19.8800   89.8290 N.pl3  40  ARG40       0.1354
     12  N          9.1130   14.8730   82.3120 N.3   188  GLY188     -0.1210
     13  CA         7.8300   14.8080   82.9910 C.3   188  GLY188      0.1956
     14  C          6.8680   15.9120   82.5910 C.2   188  GLY188      0.2612
     15  O          7.1600   16.6840   81.6820 O.2   188  GLY188     -0.2717
     16  N          5.7340   15.9970   83.2890 N.am  189  LEU189     -0.1965
     17  CA         4.6280   16.8820   82.8990 C.3   189  LEU189      0.1728
     18  C          4.9010   18.3970   82.9640 C.2   189  LEU189      0.2616
     19  O          4.1360   19.1760   82.4030 O.2   189  LEU189     -0.2715
     20  CB         3.3620   16.5500   83.7030 C.3   189  LEU189      0.0311
     21  CG         2.7650   15.1610   83.4410 C.3   189  LEU189      0.0022
     22  CD1        1.6480   14.8610   84.4340 C.3   189  LEU189      0.0001
     23  CD2        2.2420   15.0530   82.0070 C.3   189  LEU189      0.0001
     24  N          5.9730   18.8140   83.6320 N.am  190  ASP190     -0.1971
     25  CA         6.3110   20.2420   83.6900 C.3   190  ASP190      0.1709
     26  C          7.6330   20.5880   83.0000 C.2   190  ASP190      0.2293
     27  O          8.2130   21.6560   83.2350 O.2   190  ASP190     -0.2864
     28  CB         6.2560   20.7950   85.1260 C.3   190  ASP190      0.1436
     29  CG         7.1680   20.0520   86.0850 C.2   190  ASP190      0.3671
     30  OD1        8.2040   19.5150   85.6590 O.co2 190  ASP190     -0.2456
     31  OD2        6.8470   20.0160   87.2900 O.co2 190  ASP190     -0.2456
     32  N         10.8170   11.3220   85.4920 N.3   259  ARG259     -0.1231
     33  CA         9.4990   11.5690   86.0750 C.3   259  ARG259      0.1694
     34  C          8.4320   10.7680   85.3380 C.2   259  ARG259      0.2592
     35  O          8.6550    9.6150   84.9900 O.2   259  ARG259     -0.2718
     36  CB         9.1420   13.0710   86.0480 C.3   259  ARG259      0.0321
     37  CG        10.1730   13.9880   86.6410 C.3   259  ARG259      0.0489
     38  CD        10.6080   13.4830   87.9740 C.3   259  ARG259      0.2205
     39  NE        10.0840   14.2840   89.0690 N.pl3 259  ARG259     -0.0865
     40  CZ        10.0940   13.8960   90.3410 C.cat 259  ARG259      0.5346
     41  NH1       10.5920   12.6980   90.6860 N.pl3 259  ARG259      0.1354
     42  NH2        9.5930   14.7050   91.2660 N.pl3 259  ARG259      0.1354
     43  N          7.2880   11.3920   85.0690 N.am  260  PHE260     -0.1976
     44  CA         6.1700   10.7020   84.4280 C.3   260  PHE260      0.1639
     45  C          6.5790   10.1730   83.0610 C.2   260  PHE260      0.2290
     46  O          6.0260    9.1790   82.5880 O.2   260  PHE260     -0.2864
     47  CB         4.9540   11.6220   84.3000 C.3   260  PHE260      0.0560
     48  CG         3.6600   10.8970   84.0170 C.ar  260  PHE260     -0.0200
     49  CD1        3.4670    9.6000   84.4450 C.ar  260  PHE260     -0.0042
     50  CD2        2.6440   11.5150   83.3140 C.ar  260  PHE260     -0.0042
     51  CE1        2.2800    8.9390   84.1850 C.ar  260  PHE260     -0.0003
     52  CE2        1.4630   10.8540   83.0420 C.ar  260  PHE260     -0.0003
     53  CZ         1.2830    9.5660   83.4810 C.ar  260  PHE260     -0.0000
     54  N          7.0590    8.1950   88.7840 N.3   285  PRO285     -0.2116
     55  CA         5.9320    7.8590   89.6700 C.3   285  PRO285      0.1372
     56  C          5.2470    6.5840   89.1950 C.2   285  PRO285      0.2244
     57  O          4.1550    6.6490   88.6140 O.2   285  PRO285     -0.2868
     58  CB         4.9820    9.0540   89.4970 C.3   285  PRO285      0.0268
     59  CG         5.2570    9.5450   88.1090 C.3   285  PRO285      0.0207
     60  CD         6.7340    9.2970   87.8600 C.3   285  PRO285      0.0892
     61  N          2.5950    7.0490   94.5960 N.3   289  ILE289     -0.1231
     62  CA         1.9120    8.3340   94.7100 C.3   289  ILE289      0.1692
     63  C          0.5510    8.3240   93.9990 C.2   289  ILE289      0.2592
     64  O         -0.4320    8.8420   94.5300 O.2   289  ILE289     -0.2718
     65  CB         2.7980    9.5250   94.2330 C.3   289  ILE289      0.0266
     66  CG1        2.0290   10.8400   94.3070 C.3   289  ILE289      0.0019
     67  CG2        3.3010    9.3230   92.8180 C.3   289  ILE289      0.0020
     68  CD1        1.7760   11.3140   95.7190 C.3   289  ILE289      0.0001
     69  N          0.4950    7.7190   92.8140 N.am  290  PHE290     -0.1976
     70  CA        -0.7360    7.6990   92.0260 C.3   290  PHE290      0.1639
     71  C         -1.8540    6.9680   92.7530 C.2   290  PHE290      0.2290
     72  O         -3.0350    7.3020   92.6200 O.2   290  PHE290     -0.2864
     73  CB        -0.4840    7.0480   90.6650 C.3   290  PHE290      0.0560
     74  CG         0.2340    7.9410   89.7000 C.ar  290  PHE290     -0.0200
     75  CD1        0.2160    9.3150   89.8670 C.ar  290  PHE290     -0.0042
     76  CD2        0.9290    7.4130   88.6340 C.ar  290  PHE290     -0.0042
     77  CE1        0.8710   10.1350   88.9880 C.ar  290  PHE290     -0.0003
     78  CE2        1.5900    8.2480   87.7410 C.ar  290  PHE290     -0.0003
     79  CZ         1.5600    9.6070   87.9240 C.ar  290  PHE290     -0.0000
     80  N         -2.0430   12.7720   97.3880 N.3   296  LEU296     -0.1245
     81  CA        -2.3120   13.6640   96.2620 C.3   296  LEU296      0.1561
     82  C         -3.0370   14.9290   96.7210 C.2   296  LEU296      0.2260
     83  O         -2.7640   16.0300   96.2290 O.2   296  LEU296     -0.2867
     84  CB        -3.1110   12.9310   95.1750 C.3   296  LEU296      0.0270
     85  CG        -2.3200   11.8020   94.5000 C.3   296  LEU296      0.0019
     86  CD1       -3.2190   10.9000   93.6740 C.3   296  LEU296      0.0001
     87  CD2       -1.2210   12.3910   93.6340 C.3   296  LEU296      0.0001
     88  N         -0.5290   17.6160   98.2620 N.3   299  MET299     -0.1245
     89  CA         0.4840   18.2000   97.3850 C.3   299  MET299      0.1570
     90  C          0.3810   19.7200   97.2500 C.2   299  MET299      0.2261
     91  O         -0.7190   20.2640   97.2550 O.2   299  MET299     -0.2867
     92  CB         0.3320   17.6140   95.9860 C.3   299  MET299      0.0387
     93  CG         0.7460   16.1860   95.8770 C.3   299  MET299      0.0595
     94  SD         0.9060   15.8080   94.1420 S.3   299  MET299     -0.1393
     95  CE        -0.7600   16.1450   93.5490 C.3   299  MET299      0.0692
     96  N          1.5820   21.4860   91.7980 N.3   303  TYR303     -0.1241
     97  CA         1.3890   20.1440   91.2170 C.3   303  TYR303      0.1605
     98  C         -0.0570   19.9070   90.7930 C.2   303  TYR303      0.2264
     99  O         -0.3220   19.3750   89.7050 O.2   303  TYR303     -0.2867
    100  CB         1.8980   19.0320   92.1600 C.3   303  TYR303      0.0534
    101  CG         3.3980   19.1380   92.4230 C.ar  303  TYR303     -0.0201
    102  CD1        4.3200   18.5990   91.5240 C.ar  303  TYR303     -0.0009
    103  CD2        3.8930   19.8010   93.5490 C.ar  303  TYR303     -0.0009
    104  CE1        5.6880   18.7060   91.7410 C.ar  303  TYR303      0.0417
    105  CE2        5.2720   19.9080   93.7790 C.ar  303  TYR303      0.0417
    106  CZ         6.1590   19.3550   92.8650 C.ar  303  TYR303      0.1957
    107  OH         7.5220   19.4470   93.0610 O.3   303  TYR303     -0.2866
    108  N         -0.6530   21.9450   87.6120 N.3   306  VAL306     -0.1231
    109  CA        -0.1320   21.2250   86.4510 C.3   306  VAL306      0.1692
    110  C         -1.0430   20.0510   86.0390 C.2   306  VAL306      0.2591
    111  O         -1.3110   19.8520   84.8510 O.2   306  VAL306     -0.2718
    112  CB         1.2940   20.6950   86.6980 C.3   306  VAL306      0.0266
    113  CG1        1.6900   19.6770   85.6260 C.3   306  VAL306      0.0020
    114  CG2        2.2790   21.8410   86.7320 C.3   306  VAL306      0.0020
    115  N         -1.5130   19.2920   87.0230 N.am  307  LEU307     -0.1980
    116  CA        -2.3900   18.1590   86.7620 C.3   307  LEU307      0.1596
    117  C         -3.7190   18.5850   86.1280 C.2   307  LEU307      0.2287
    118  O         -4.1610   17.9910   85.1390 O.2   307  LEU307     -0.2864
    119  CB        -2.6110   17.3470   88.0370 C.3   307  LEU307      0.0297
    120  CG        -1.3550   16.5850   88.4660 C.3   307  LEU307      0.0022
    121  CD1       -1.5380   15.9970   89.8320 C.3   307  LEU307      0.0001
    122  CD2       -1.0430   15.5010   87.4390 C.3   307  LEU307      0.0001
    123  N          8.0910   11.0440   95.3820 N.3   355  VAL355     -0.1245
    124  CA         7.3800   10.8400   94.1270 C.3   355  VAL355      0.1561
    125  C          7.7730    9.4990   93.5210 C.2   355  VAL355      0.2260
    126  O          6.9800    8.8740   92.8210 O.2   355  VAL355     -0.2867
    127  CB         7.6760   11.9850   93.1240 C.3   355  VAL355      0.0252
    128  CG1        7.1290   11.6660   91.7460 C.3   355  VAL355      0.0019
    129  CG2        7.1040   13.2890   93.6320 C.3   355  VAL355      0.0019
@<TRIPOS>BOND
     1    15    14    2
     2    23    21    1
     3    12    13    1
     4    19    18    2
     5    46    45    2
     6    14    13    1
     7    14    16   am
     8    17    18    1
     9    17    16    1
    10    17    20    1
    11    18    24   am
    12    26    27    2
    13    26    25    1
    14    52    50   ar
    15    52    53   ar
    16    45    44    1
    17    50    48   ar
    18    21    20    1
    19    21    22    1
    20    53    51   ar
    21    24    25    1
    22    25    28    1
    23    48    47    1
    24    48    49   ar
    25    51    49   ar
    26    47    44    1
    27    44    43    1
    28   111   110    2
    29    35    34    2
    30    43    34   am
    31    28    29    1
    32   118   117    2
    33    34    33    1
    34    32    33    1
    35   113   112    1
    36    30    29   ar
    37   110   109    1
    38   110   115   am
    39    36    33    1
    40    36    37    1
    41    29    31   ar
    42   117   116    1
    43   109   112    1
    44   109   108    1
    45    37    38    1
    46   112   114    1
    47   116   115    1
    48   116   119    1
    49   122   120    1
    50    78    79   ar
    51    78    76   ar
    52    60    59    1
    53    60    54    1
    54    79    77   ar
    55    38    39    1
    56   119   120    1
    57    10     9    1
    58    59    58    1
    59   120   121    1
    60    57    56    2
    61    76    74   ar
    62    54    55    1
    63    77    75   ar
    64    39    40    2
    65    56    55    1
    66     9    11    1
    67     9     8    2
    68    58    55    1
    69     4     3    2
    70     5     6    1
    71     5     2    1
    72     6     7    1
    73    74    75   ar
    74    74    73    1
    75    99    98    2
    76     7     8    1
    77    40    41    1
    78    40    42    1
    79     3     2    1
    80    73    70    1
    81    98    97    1
    82     2     1    1
    83    97    96    1
    84    97   100    1
    85   102   104   ar
    86   102   101   ar
    87   104   106   ar
    88   128   127    1
    89    70    71    1
    90    70    69    1
    91   100   101    1
    92   101   103   ar
    93    72    71    2
    94    69    63   am
    95    67    65    1
    96   126   125    2
    97   106   107    1
    98   106   105   ar
    99   127   129    1
   100   127   124    1
   101   125   124    1
   102    95    94    1
   103   103   105   ar
   104    87    85    1
   105    86    85    1
   106    63    64    2
   107    63    62    1
   108   124   123    1
   109    94    93    1
   110    65    66    1
   111    65    62    1
   112    66    68    1
   113    85    84    1
   114    61    62    1
   115    84    81    1
   116    93    92    1
   117    92    89    1
   118    83    82    2
   119    81    82    1
   120    81    80    1
   121    90    91    2
   122    90    89    1
   123    89    88    1
