@<TRIPOS>MOLECULE
tmp/4i4cA00.pdb
 177 167 0 0 0
SMALL
GASTEIGER

@<TRIPOS>ATOM
      1  N         13.5070   24.2740   91.3330 N.3    40  ARG40      -0.1245
      2  CA        14.3960   23.1970   90.9090 C.3    40  ARG40       0.1563
      3  C         15.8180   23.7280   90.6490 C.2    40  ARG40       0.2260
      4  O         16.3970   23.4560   89.5910 O.2    40  ARG40      -0.2867
      5  CB        13.8630   22.5940   89.6130 C.3    40  ARG40       0.0307
      6  CG        12.3720   22.2710   89.6280 C.3    40  ARG40       0.0489
      7  CD        12.1290   20.7930   89.8060 C.3    40  ARG40       0.2205
      8  NE        10.7460   20.5120   90.1990 N.pl3  40  ARG40      -0.0865
      9  CZ         9.7880   20.1080   89.3680 C.cat  40  ARG40       0.5346
     10  NH1       10.0500   19.9300   88.0800 N.pl3  40  ARG40       0.1354
     11  NH2        8.5630   19.8800   89.8290 N.pl3  40  ARG40       0.1354
     12  N         18.3730   21.1280   89.5540 N.3    43  GLN43      -0.1245
     13  CA        17.9850   20.5650   88.2570 C.3    43  GLN43       0.1566
     14  C         18.3210   21.5360   87.1270 C.2    43  GLN43       0.2260
     15  O         18.8850   21.1630   86.1080 O.2    43  GLN43      -0.2867
     16  CB        16.4950   20.2350   88.2240 C.3    43  GLN43       0.0367
     17  CG        16.0520   19.5270   86.9530 C.3    43  GLN43       0.0905
     18  CD        14.5440   19.5820   86.7370 C.2    43  GLN43       0.2608
     19  OE1       13.7770   19.0420   87.5240 O.2    43  GLN43      -0.2717
     20  NE2       14.1200   20.2440   85.6660 N.am   43  GLN43      -0.0878
     21  N         22.0820   21.6780   86.5720 N.3    46  TRP46      -0.1227
     22  CA        22.3780   20.4390   85.8510 C.3    46  TRP46       0.1737
     23  C         22.0460   20.5530   84.3530 C.2    46  TRP46       0.2595
     24  O         22.8450   20.1870   83.4930 O.2    46  TRP46      -0.2718
     25  CB        21.5800   19.3040   86.4840 C.3    46  TRP46       0.0564
     26  CG        21.9600   17.9340   86.0430 C.ar   46  TRP46       0.0003
     27  CD1       23.2020   17.4980   85.6730 C.ar   46  TRP46       0.0946
     28  CD2       21.0830   16.8020   85.9290 C.ar   46  TRP46       0.0152
     29  NE1       23.1500   16.1660   85.3330 N.ar   46  TRP46      -0.2442
     30  CE2       21.8640   15.7130   85.4890 C.ar   46  TRP46       0.0810
     31  CE3       19.7120   16.6050   86.1570 C.ar   46  TRP46       0.0012
     32  CZ2       21.3180   14.4420   85.2720 C.ar   46  TRP46       0.0191
     33  CZ3       19.1700   15.3370   85.9400 C.ar   46  TRP46       0.0001
     34  CH2       19.9740   14.2760   85.5020 C.ar   46  TRP46       0.0015
     35  N         20.8650   21.0760   84.0480 N.am   47  GLN47      -0.1979
     36  CA        20.4410   21.2870   82.6650 C.3    47  GLN47       0.1601
     37  C         21.2210   22.3770   81.9130 C.2    47  GLN47       0.2287
     38  O         21.1770   22.4360   80.6820 O.2    47  GLN47      -0.2864
     39  CB        18.9370   21.5880   82.6180 C.3    47  GLN47       0.0394
     40  CG        18.1010   20.4180   83.0700 C.3    47  GLN47       0.0908
     41  CD        16.6260   20.7210   83.1550 C.2    47  GLN47       0.2608
     42  OE1       16.1640   21.3020   84.1260 O.2    47  GLN47      -0.2717
     43  NE2       15.8710   20.3020   82.1430 N.am   47  GLN47      -0.0878
     44  N         10.7880   13.7070   79.2540 N.3   187  ALA187     -0.1245
     45  CA        10.7600   14.2080   80.6320 C.3   187  ALA187      0.1562
     46  C          9.3300   14.2110   81.1770 C.2   187  ALA187      0.2260
     47  O          8.4360   13.6230   80.5690 O.2   187  ALA187     -0.2867
     48  CB        11.3830   15.5920   80.7220 C.3   187  ALA187      0.0290
     49  N          8.1050   19.6790   82.1490 N.3   191  SER191     -0.1217
     50  CA         9.2860   19.9630   81.3390 C.3   191  SER191      0.1889
     51  C          8.8580   20.0930   79.8830 C.2   191  SER191      0.2288
     52  O          7.7540   19.6930   79.5170 O.2   191  SER191     -0.2866
     53  CB        10.3100   18.8200   81.4680 C.3   191  SER191      0.2089
     54  OG        10.9960   18.8500   82.7160 O.3   191  SER191     -0.2183
     55  N         14.3700   20.6170   76.9000 N.3   195  ASP195     -0.1225
     56  CA        15.0870   20.8860   78.1520 C.3   195  ASP195      0.1805
     57  C         16.2150   19.8900   78.4260 C.2   195  ASP195      0.2597
     58  O         16.7370   19.8540   79.5330 O.2   195  ASP195     -0.2718
     59  CB        14.1330   20.8800   79.3690 C.3   195  ASP195      0.1424
     60  CG        13.0820   21.9810   79.3170 C.2   195  ASP195      0.3668
     61  OD1       13.1750   22.8510   78.4290 O.co2 195  ASP195     -0.2456
     62  OD2       12.1610   21.9700   80.1690 O.co2 195  ASP195     -0.2456
     63  N         16.6120   19.1050   77.4250 N.am  196  MET196     -0.1979
     64  CA        17.5570   18.0030   77.6630 C.3   196  MET196      0.1605
     65  C         18.7560   17.9850   76.7230 C.2   196  MET196      0.2287
     66  O         19.3620   16.9300   76.5060 O.2   196  MET196     -0.2864
     67  CB        16.8180   16.6600   77.5770 C.3   196  MET196      0.0413
     68  CG        15.7690   16.4910   78.6660 C.3   196  MET196      0.0598
     69  SD        14.6290   15.1230   78.3810 S.3   196  MET196     -0.1393
     70  CE        13.7630   15.6690   76.8990 C.3   196  MET196      0.0692
     71  N         21.7690   18.9520   77.1540 N.3   198  ARG198     -0.1231
     72  CA        23.0100   18.4660   77.7640 C.3   198  ARG198      0.1694
     73  C         23.0380   16.9430   77.9320 C.2   198  ARG198      0.2591
     74  O         24.1070   16.3430   78.0870 O.2   198  ARG198     -0.2718
     75  CB        23.2760   19.1730   79.0990 C.3   198  ARG198      0.0321
     76  CG        23.4010   20.6890   78.9510 C.3   198  ARG198      0.0489
     77  CD        24.5470   21.2830   79.7740 C.3   198  ARG198      0.2205
     78  NE        24.8250   22.6650   79.3630 N.pl3 198  ARG198     -0.0865
     79  CZ        25.7170   23.4720   79.9380 C.cat 198  ARG198      0.5346
     80  NH1       26.4380   23.0460   80.9710 N.pl3 198  ARG198      0.1354
     81  NH2       25.8850   24.7110   79.4800 N.pl3 198  ARG198      0.1354
     82  N         21.8660   16.3180   77.9120 N.am  199  LEU199     -0.1980
     83  CA        21.8120   14.8540   77.9540 C.3   199  LEU199      0.1596
     84  C         22.5160   14.3190   76.7140 C.2   199  LEU199      0.2287
     85  O         23.3520   13.4170   76.8040 O.2   199  LEU199     -0.2864
     86  CB        20.3730   14.3600   77.9900 C.3   199  LEU199      0.0297
     87  CG        20.2030   12.8520   77.9300 C.3   199  LEU199      0.0022
     88  CD1       21.0090   12.2140   79.0590 C.3   199  LEU199      0.0001
     89  CD2       18.7180   12.5350   78.0470 C.3   199  LEU199      0.0001
     90  N         26.7260   13.5180   77.1620 N.3   203  HIS203     -0.1241
     91  CA        26.6300   12.0960   77.4780 C.3   203  HIS203      0.1621
     92  C         26.4030   11.1820   76.2680 C.2   203  HIS203      0.2264
     93  O         27.2790   10.3980   75.9070 O.2   203  HIS203     -0.2867
     94  CB        25.5690   11.8580   78.5560 C.3   203  HIS203      0.0745
     95  CG        25.8730   12.5460   79.8520 C.ar  203  HIS203      0.0817
     96  ND1       25.7040   13.9020   80.0300 N.ar  203  HIS203     -0.2268
     97  CD2       26.3510   12.0700   81.0260 C.ar  203  HIS203      0.1154
     98  CE1       26.0600   14.2320   81.2580 C.ar  203  HIS203      0.1986
     99  NE2       26.4550   13.1380   81.8850 N.ar  203  HIS203     -0.2212
    100  N         12.3310   10.3920   82.3950 N.3   258  PHE258     -0.1227
    101  CA        12.4150   11.0950   83.6740 C.3   258  PHE258      0.1736
    102  C         11.0130   11.3910   84.1800 C.2   258  PHE258      0.2595
    103  O         10.1270   11.7190   83.3890 O.2   258  PHE258     -0.2718
    104  CB        13.1400   12.4300   83.4910 C.3   258  PHE258      0.0547
    105  CG        14.5160   12.3060   82.8960 C.ar  258  PHE258     -0.0202
    106  CD1       15.6230   12.1080   83.7090 C.ar  258  PHE258     -0.0042
    107  CD2       14.7050   12.4250   81.5250 C.ar  258  PHE258     -0.0042
    108  CE1       16.9050   12.0150   83.1560 C.ar  258  PHE258     -0.0003
    109  CE2       15.9790   12.3360   80.9670 C.ar  258  PHE258     -0.0003
    110  CZ        17.0760   12.1320   81.7910 C.ar  258  PHE258     -0.0000
    111  N         10.8170   11.3220   85.4920 N.am  259  ARG259     -0.1980
    112  CA         9.4990   11.5690   86.0750 C.3   259  ARG259      0.1597
    113  C          8.4320   10.7680   85.3380 C.2   259  ARG259      0.2287
    114  O          8.6550    9.6150   84.9900 O.2   259  ARG259     -0.2864
    115  CB         9.1420   13.0710   86.0480 C.3   259  ARG259      0.0334
    116  CG        10.1730   13.9880   86.6410 C.3   259  ARG259      0.0492
    117  CD        10.6080   13.4830   87.9740 C.3   259  ARG259      0.2205
    118  NE        10.0840   14.2840   89.0690 N.pl3 259  ARG259     -0.0865
    119  CZ        10.0940   13.8960   90.3410 C.cat 259  ARG259      0.5346
    120  NH1       10.5920   12.6980   90.6860 N.pl3 259  ARG259      0.1354
    121  NH2        9.5930   14.7050   91.2660 N.pl3 259  ARG259      0.1354
    122  N         14.3670    7.6020   85.6480 N.3   282  LEU282     -0.1231
    123  CA        14.8140    8.2660   86.8630 C.3   282  LEU282      0.1693
    124  C         13.6630    9.0550   87.4630 C.2   282  LEU282      0.2592
    125  O         13.0340    9.8590   86.7730 O.2   282  LEU282     -0.2718
    126  CB        16.0160    9.1780   86.5750 C.3   282  LEU282      0.0284
    127  CG        16.5770   10.0100   87.7390 C.3   282  LEU282      0.0019
    128  CD1       16.8730    9.1830   88.9860 C.3   282  LEU282      0.0001
    129  CD2       17.8290   10.7790   87.3060 C.3   282  LEU282      0.0001
    130  N         13.3920    8.8350   88.7470 N.am  283  GLY283     -0.1957
    131  CA        12.3640    9.6000   89.4490 C.3   283  GLY283      0.1869
    132  C         10.9310    9.3980   88.9600 C.2   283  GLY283      0.2309
    133  O         10.0920   10.2900   89.1000 O.2   283  GLY283     -0.2863
    134  N         16.3530    9.0680   93.5160 N.3   350  LEU350     -0.1245
    135  CA        17.1920    9.5300   94.6070 C.3   350  LEU350      0.1561
    136  C         16.5850    9.1210   95.9460 C.2   350  LEU350      0.2260
    137  O         15.3640    9.0390   96.0840 O.2   350  LEU350     -0.2867
    138  CB        17.4030   11.0510   94.5280 C.3   350  LEU350      0.0270
    139  CG        18.4850   11.5870   93.5810 C.3   350  LEU350      0.0019
    140  CD1       18.3550   11.0640   92.1680 C.3   350  LEU350      0.0001
    141  CD2       18.4940   13.1210   93.5800 C.3   350  LEU350      0.0001
    142  N         13.0010   10.1750   97.5640 N.3   353  ASP353     -0.1239
    143  CA        12.1460   10.8340   96.5860 C.3   353  ASP353      0.1674
    144  C         10.7270   10.3510   96.8460 C.2   353  ASP353      0.2266
    145  O         10.4080    9.1970   96.5650 O.2   353  ASP353     -0.2867
    146  CB        12.5690   10.4690   95.1560 C.3   353  ASP353      0.1410
    147  CG        11.7180   11.1610   94.0940 C.2   353  ASP353      0.3668
    148  OD1       10.7380   11.8490   94.4510 O.co2 353  ASP353     -0.2456
    149  OD2       12.0190   11.0080   92.8940 O.co2 353  ASP353     -0.2456
    150  N         22.4980   16.7000   95.9850 N.3   381  ILE381     -0.1245
    151  CA        21.5460   16.2950   94.9590 C.3   381  ILE381      0.1561
    152  C         22.2390   16.2050   93.5990 C.2   381  ILE381      0.2260
    153  O         21.9770   15.2810   92.8170 O.2   381  ILE381     -0.2867
    154  CB        20.3040   17.2280   94.8840 C.3   381  ILE381      0.0252
    155  CG1       19.4000   17.0330   96.0950 C.3   381  ILE381      0.0019
    156  CG2       19.5210   16.9720   93.6290 C.3   381  ILE381      0.0019
    157  CD1       19.9100   17.7140   97.3710 C.3   381  ILE381      0.0001
    158  N         22.2270   13.2280   90.8960 N.3   385  TYR385     -0.1241
    159  CA        21.8970   13.3460   89.4770 C.3   385  TYR385      0.1605
    160  C         23.0250   12.7900   88.6170 C.2   385  TYR385      0.2264
    161  O         22.7930   12.0020   87.6890 O.2   385  TYR385     -0.2867
    162  CB        21.6420   14.8100   89.0790 C.3   385  TYR385      0.0534
    163  CG        20.3160   15.4100   89.5270 C.ar  385  TYR385     -0.0201
    164  CD1       19.2410   14.6040   89.8950 C.ar  385  TYR385     -0.0009
    165  CD2       20.1380   16.7970   89.5590 C.ar  385  TYR385     -0.0009
    166  CE1       18.0260   15.1630   90.3000 C.ar  385  TYR385      0.0417
    167  CE2       18.9300   17.3660   89.9640 C.ar  385  TYR385      0.0417
    168  CZ        17.8790   16.5430   90.3280 C.ar  385  TYR385      0.1957
    169  OH        16.6840   17.0980   90.7300 O.3   385  TYR385     -0.2866
    170  N         22.9940    9.4880   86.0900 N.3   389  LEU389     -0.1245
    171  CA        23.2360    9.6570   84.6720 C.3   389  LEU389      0.1561
    172  C         24.4310    8.8450   84.2050 C.2   389  LEU389      0.2260
    173  O         24.4570    8.3670   83.0660 O.2   389  LEU389     -0.2867
    174  CB        23.4640   11.1360   84.3550 C.3   389  LEU389      0.0270
    175  CG        22.7470   11.5680   83.0870 C.3   389  LEU389      0.0019
    176  CD1       21.2460   11.3750   83.2700 C.3   389  LEU389      0.0001
    177  CD2       23.0810   13.0100   82.7440 C.3   389  LEU389      0.0001
@<TRIPOS>BOND
     1    93    92    2
     2    92    91    1
     3    66    65    2
     4    84    85    2
     5    84    83    1
     6    65    64    1
     7    70    69    1
     8    55    56    1
     9    71    72    1
    10    90    91    1
    11    63    64    1
    12    63    57   am
    13    91    94    1
    14    67    64    1
    15    67    68    1
    16    72    73    1
    17    72    75    1
    18    82    73   am
    19    82    83    1
    20    87    86    1
    21    87    89    1
    22    87    88    1
    23    73    74    2
    24    83    86    1
    25    56    57    1
    26    56    59    1
    27    69    68    1
    28    57    58    2
    29    61    60   ar
    30    94    95    1
    31    76    75    1
    32    76    77    1
    33    44    45    1
    34    60    59    1
    35    60    62   ar
    36    78    77    1
    37    78    79    2
    38    81    79    1
    39    52    51    2
    40    95    96   ar
    41    95    97   ar
    42    51    50    1
    43    79    80    1
    44    96    98   ar
    45    47    46    2
    46    45    48    1
    47    45    46    1
    48    38    37    2
    49   109   107   ar
    50   109   110   ar
    51    97    99   ar
    52    98    99   ar
    53    50    53    1
    54    50    49    1
    55    53    54    1
    56   107   105   ar
    57   110   108   ar
    58    37    36    1
    59    43    41   am
    60   100   101    1
    61    39    36    1
    62    39    40    1
    63    36    35    1
    64   177   175    1
    65   105   104    1
    66   105   106   ar
    67   173   172    2
    68    40    41    1
    69   175   176    1
    70   175   174    1
    71    41    42    2
    72   108   106   ar
    73   103   102    2
    74   104   101    1
    75    24    23    2
    76   101   102    1
    77    35    23   am
    78   102   111   am
    79   172   171    1
    80    23    22    1
    81   174   171    1
    82   171   170    1
    83   114   113    2
    84    32    30   ar
    85    32    34   ar
    86    29    30   ar
    87    29    27   ar
    88   113   112    1
    89    30    28   ar
    90   111   112    1
    91    34    33   ar
    92   122   123    1
    93    20    18   am
    94    27    26   ar
    95    22    25    1
    96    22    21    1
    97    28    26   ar
    98    28    31   ar
    99    33    31   ar
   100    26    25    1
   101   115   112    1
   102   115   116    1
   103    15    14    2
   104   126   123    1
   105   126   127    1
   106   116   117    1
   107    18    17    1
   108    18    19    2
   109   125   124    2
   110   123   124    1
   111    17    16    1
   112    14    13    1
   113   129   127    1
   114   124   130   am
   115   161   160    2
   116   127   128    1
   117   117   118    1
   118    10     9    1
   119    16    13    1
   120    13    12    1
   121   160   159    1
   122   130   131    1
   123   132   133    2
   124   132   131    1
   125   118   119    2
   126   162   159    1
   127   162   163    1
   128     9    11    1
   129     9     8    2
   130   159   158    1
   131   163   165   ar
   132   163   164   ar
   133   165   167   ar
   134     4     3    2
   135     5     6    1
   136     5     2    1
   137     6     7    1
   138     7     8    1
   139   164   166   ar
   140   167   168   ar
   141   166   168   ar
   142   168   169    1
   143   119   120    1
   144   119   121    1
   145     3     2    1
   146     2     1    1
   147   140   139    1
   148   153   152    2
   149   149   147   ar
   150   134   135    1
   151   141   139    1
   152   139   138    1
   153   152   151    1
   154   156   154    1
   155   147   148   ar
   156   147   146    1
   157   138   135    1
   158   135   136    1
   159   154   151    1
   160   154   155    1
   161   151   150    1
   162   146   143    1
   163   136   137    2
   164   155   157    1
   165   145   144    2
   166   143   144    1
   167   143   142    1
