@<TRIPOS>MOLECULE
tmp/4i4eA00.pdb
 192 180 0 0 0
SMALL
GASTEIGER

@<TRIPOS>ATOM
      1  N          3.0180    4.2860   37.2330 N.3    13  ARG13      -0.1245
      2  CA         4.3050    3.6410   37.4570 C.3    13  ARG13       0.1563
      3  C          5.2510    3.7950   36.2710 C.2    13  ARG13       0.2260
      4  O          4.8150    3.9330   35.1250 O.2    13  ARG13      -0.2867
      5  CB         4.1080    2.1500   37.7860 C.3    13  ARG13       0.0307
      6  CG         3.7230    1.2760   36.6000 C.3    13  ARG13       0.0489
      7  CD         3.3350   -0.1270   37.0460 C.3    13  ARG13       0.2205
      8  NE         3.1620   -1.0310   35.9080 N.pl3  13  ARG13      -0.0865
      9  CZ         4.1520   -1.6620   35.2710 C.cat  13  ARG13       0.5346
     10  NH1        5.4240   -1.5070   35.6370 N.pl3  13  ARG13       0.1354
     11  NH2        3.8670   -2.4580   34.2500 N.pl3  13  ARG13       0.1354
     12  N          7.3910    2.4910   33.4890 N.3    15  ILE15      -0.1231
     13  CA         7.2960    1.2830   32.6630 C.3    15  ILE15       0.1692
     14  C          8.5170    1.0850   31.7660 C.2    15  ILE15       0.2593
     15  O          8.6420    0.0600   31.1000 O.2    15  ILE15      -0.2718
     16  CB         6.0140    1.2810   31.7910 C.3    15  ILE15       0.0266
     17  CG1        6.0240    2.4350   30.7710 C.3    15  ILE15       0.0019
     18  CG2        4.7730    1.3080   32.6780 C.3    15  ILE15       0.0020
     19  CD1        4.7220    2.6280   30.0290 C.3    15  ILE15       0.0001
     20  N          9.4230    2.0510   31.7530 N.am   16  GLY16      -0.1942
     21  CA        10.5900    1.9650   30.9060 C.3    16  GLY16       0.2014
     22  C         11.5300    3.1250   31.1180 C.2    16  GLY16       0.2638
     23  O         11.2400    4.0480   31.8870 O.2    16  GLY16      -0.2714
     24  N         12.6690    3.0560   30.4400 N.am   17  GLU17      -0.1977
     25  CA        13.6800    4.1000   30.4750 C.3    17  GLU17       0.1602
     26  C         13.8340    4.6270   29.0540 C.2    17  GLU17       0.2287
     27  O         13.8620    3.8490   28.0990 O.2    17  GLU17      -0.2864
     28  CB        15.0120    3.5400   30.9960 C.3    17  GLU17       0.0415
     29  CG        16.1820    4.5180   30.9550 C.3    17  GLU17       0.1163
     30  CD        17.4570    3.9430   31.5530 C.2    17  GLU17       0.3649
     31  OE1       17.4840    3.6790   32.7740 O.co2  17  GLU17      -0.2457
     32  OE2       18.4440    3.7680   30.8030 O.co2  17  GLU17      -0.2457
     33  N          9.9500    6.5760   31.3810 N.3    23  VAL23      -0.1245
     34  CA         8.6530    6.5350   30.7320 C.3    23  VAL23       0.1561
     35  C          7.6960    5.9300   31.7340 C.2    23  VAL23       0.2260
     36  O          8.0110    4.9120   32.3770 O.2    23  VAL23      -0.2867
     37  CB         8.6800    5.6720   29.4480 C.3    23  VAL23       0.0252
     38  CG1        7.2970    5.5840   28.8220 C.3    23  VAL23       0.0019
     39  CG2        9.6830    6.2400   28.4590 C.3    23  VAL23       0.0019
     40  N          3.4360    4.8700   32.6110 N.3    25  GLN25      -0.1245
     41  CA         2.0770    4.7900   32.1360 C.3    25  GLN25       0.1566
     42  C          1.3270    5.7920   32.9780 C.2    25  GLN25       0.2260
     43  O          1.8390    6.2670   33.9930 O.2    25  GLN25      -0.2867
     44  CB         1.4820    3.3890   32.2110 C.3    25  GLN25       0.0367
     45  CG         1.1560    2.8700   33.5890 C.3    25  GLN25       0.0905
     46  CD         0.3660    1.5680   33.5340 C.2    25  GLN25       0.2608
     47  OE1       -0.2550    1.2420   32.5190 O.2    25  GLN25      -0.2717
     48  NE2        0.3770    0.8280   34.6310 N.am   25  GLN25      -0.0878
     49  N          0.9390    6.6520   27.6990 N.3    38  ALA38      -0.1245
     50  CA         2.3490    6.6230   28.0180 C.3    38  ALA38       0.1562
     51  C          2.8230    8.0660   28.1380 C.2    38  ALA38       0.2260
     52  O          2.4260    8.9340   27.3570 O.2    38  ALA38      -0.2867
     53  CB         3.1340    5.9000   26.9350 C.3    38  ALA38       0.0290
     54  N          6.3080   10.2600   28.4870 N.3    40  LYS40      -0.1245
     55  CA         7.7420   10.3440   28.4010 C.3    40  LYS40       0.1561
     56  C          8.1530   11.5580   29.2050 C.2    40  LYS40       0.2260
     57  O          7.6080   12.6420   28.9920 O.2    40  LYS40      -0.2867
     58  CB         8.2010   10.4950   26.9510 C.3    40  LYS40       0.0271
     59  CG         7.7390    9.3600   26.0640 C.3    40  LYS40       0.0035
     60  CD         8.2800    9.5220   24.6570 C.3    40  LYS40       0.0206
     61  CE         9.7550    9.1710   24.5780 C.3    40  LYS40       0.1093
     62  NZ         9.9700    7.7780   24.1080 N.3    40  LYS40      -0.1314
     63  N         10.6880   15.0800   19.0010 N.3    57  GLU57      -0.1245
     64  CA        10.0200   13.8000   18.7720 C.3    57  GLU57       0.1567
     65  C          8.5250   14.0330   18.6290 C.2    57  GLU57       0.2260
     66  O          7.8770   13.4120   17.7940 O.2    57  GLU57      -0.2867
     67  CB        10.2860   12.7910   19.9050 C.3    57  GLU57       0.0388
     68  CG         9.5940   11.4340   19.6950 C.3    57  GLU57       0.1160
     69  CD         9.7660   10.4750   20.8650 C.2    57  GLU57       0.3649
     70  OE1       10.1950   10.9250   21.9500 O.co2  57  GLU57      -0.2457
     71  OE2        9.4690    9.2680   20.7050 O.co2  57  GLU57      -0.2457
     72  N          2.7240    4.7900   16.5280 N.3    70  VAL70      -0.1245
     73  CA         2.3200    5.3200   17.8320 C.3    70  VAL70       0.1561
     74  C          1.8430    6.7550   17.6740 C.2    70  VAL70       0.2260
     75  O          2.5110    7.5700   17.0530 O.2    70  VAL70      -0.2867
     76  CB         3.4540    5.1950   18.8690 C.3    70  VAL70       0.0252
     77  CG1        4.5980    6.1380   18.5530 C.3    70  VAL70       0.0019
     78  CG2        2.9200    5.4400   20.2740 C.3    70  VAL70       0.0019
     79  N          1.6260   10.0670   24.9010 N.3    85  MET85      -0.1230
     80  CA         1.3820    9.1890   23.7330 C.3    85  MET85       0.1702
     81  C          0.3680    8.0870   24.0490 C.2    85  MET85       0.2592
     82  O          0.1600    7.7360   25.2060 O.2    85  MET85      -0.2718
     83  CB         2.6710    8.5100   23.3120 C.3    85  MET85       0.0401
     84  CG         3.8430    9.4490   23.1800 C.3    85  MET85       0.0596
     85  SD         5.2150    8.4950   22.5490 S.3    85  MET85      -0.1393
     86  CE         4.9970    8.7580   20.7930 C.3    85  MET85       0.0692
     87  N         -0.2510    7.4820   23.0300 N.am   86  GLU86      -0.1966
     88  CA        -1.0900    6.3320   23.2990 C.3    86  GLU86       0.1733
     89  C         -0.2230    5.2680   23.9550 C.2    86  GLU86       0.2616
     90  O          0.9540    5.1220   23.5980 O.2    86  GLU86      -0.2715
     91  CB        -1.7340    5.7810   22.0140 C.3    86  GLU86       0.0429
     92  CG        -0.7780    5.0370   21.1010 C.3    86  GLU86       0.1163
     93  CD        -1.4430    4.5090   19.8390 C.2    86  GLU86       0.3649
     94  OE1       -1.1430    5.0440   18.7590 O.co2  86  GLU86      -0.2457
     95  OE2       -2.2520    3.5630   19.9330 O.co2  86  GLU86      -0.2457
     96  N         -0.7810    4.5590   24.9260 N.am   87  LEU87      -0.1963
     97  CA        -0.0740    3.4760   25.5860 C.3    87  LEU87       0.1728
     98  C         -0.1570    2.2250   24.7170 C.2    87  LEU87       0.2616
     99  O         -1.2340    1.8440   24.2770 O.2    87  LEU87      -0.2715
    100  CB        -0.6980    3.1550   26.9410 C.3    87  LEU87       0.0311
    101  CG        -0.0050    2.0630   27.7570 C.3    87  LEU87       0.0022
    102  CD1        1.4130    2.4770   28.1100 C.3    87  LEU87       0.0001
    103  CD2       -0.7980    1.7390   29.0090 C.3    87  LEU87       0.0001
    104  N          0.9920    1.6070   24.4820 N.am   88  CYS88      -0.1954
    105  CA         1.0630    0.2710   23.8830 C.3    88  CYS88       0.1843
    106  C          1.2510   -0.6350   25.0770 C.2    88  CYS88       0.2626
    107  O          2.3560   -0.7880   25.6090 O.2    88  CYS88      -0.2714
    108  CB         2.2050    0.1850   22.8880 C.3    88  CYS88       0.0997
    109  SG         1.9250    1.2630   21.4670 S.3    88  CYS88      -0.0797
    110  N          0.1220   -1.1650   25.5330 N.am   89  THR89      -0.1936
    111  CA        -0.0080   -1.8530   26.8190 C.3    89  THR89       0.2028
    112  C          0.9070   -3.0580   27.0030 C.2    89  THR89       0.2642
    113  O          1.3340   -3.3530   28.1010 O.2    89  THR89      -0.2714
    114  CB        -1.4740   -2.2920   27.0110 C.3    89  THR89       0.1808
    115  OG1       -2.3380   -1.1660   26.7850 O.3    89  THR89      -0.2208
    116  CG2       -1.7110   -2.8340   28.4040 C.3    89  THR89       0.0379
    117  N          1.2370   -3.7580   25.9280 N.am   90  LEU90      -0.1963
    118  CA         2.0230   -4.9770   26.0610 C.3    90  LEU90       0.1728
    119  C          3.5260   -4.7520   25.8810 C.2    90  LEU90       0.2617
    120  O          4.2970   -5.7090   25.8360 O.2    90  LEU90      -0.2715
    121  CB         1.4750   -6.0580   25.1260 C.3    90  LEU90       0.0311
    122  CG         0.0040   -6.4320   25.3430 C.3    90  LEU90       0.0022
    123  CD1       -0.4280   -7.4860   24.3380 C.3    90  LEU90       0.0001
    124  CD2       -0.2620   -6.9020   26.7710 C.3    90  LEU90       0.0001
    125  N          3.9160   -3.4890   25.7470 N.am   91  GLY91      -0.1940
    126  CA         5.3160   -3.0910   25.8320 C.3    91  GLY91       0.2014
    127  C          6.1750   -3.3840   24.6160 C.2    91  GLY91       0.2638
    128  O          5.7000   -3.4130   23.4880 O.2    91  GLY91      -0.2714
    129  N          7.4620   -3.5640   24.8600 N.am   92  GLU92      -0.1977
    130  CA         8.4390   -3.7200   23.7790 C.3    92  GLU92       0.1602
    131  C          8.2810   -5.0410   23.0510 C.2    92  GLU92       0.2287
    132  O          8.0960   -6.0770   23.6610 O.2    92  GLU92      -0.2864
    133  CB         9.8530   -3.5960   24.3560 C.3    92  GLU92       0.0415
    134  CG        10.1500   -2.1880   24.8500 C.3    92  GLU92       0.1163
    135  CD        11.4280   -2.0700   25.6550 C.2    92  GLU92       0.3649
    136  OE1       11.5900   -1.0320   26.3380 O.co2  92  GLU92      -0.2457
    137  OE2       12.2570   -3.0050   25.6290 O.co2  92  GLU92      -0.2457
    138  N         10.8740   -8.1740   23.9950 N.3    95  SER95      -0.1202
    139  CA        10.5290   -8.8640   25.2420 C.3    95  SER95       0.2020
    140  C          9.2600   -9.6910   25.0710 C.2    95  SER95       0.2618
    141  O          9.1790  -10.8250   25.5480 O.2    95  SER95      -0.2717
    142  CB        10.3480   -7.8640   26.3870 C.3    95  SER95       0.2103
    143  OG        11.5820   -7.2710   26.7350 O.3    95  SER95      -0.2182
    144  N          8.2810   -9.1170   24.3680 N.am   96  PHE96      -0.1975
    145  CA         7.0080   -9.7990   24.1190 C.3    96  PHE96       0.1639
    146  C          7.2110  -11.1060   23.3680 C.2    96  PHE96       0.2290
    147  O          6.6410  -12.1390   23.7160 O.2    96  PHE96      -0.2864
    148  CB         6.0850   -8.8790   23.3100 C.3    96  PHE96       0.0560
    149  CG         4.7220   -9.4550   23.0140 C.ar   96  PHE96      -0.0200
    150  CD1        3.7320   -9.4970   23.9890 C.ar   96  PHE96      -0.0042
    151  CD2        4.4130   -9.9200   21.7380 C.ar   96  PHE96      -0.0042
    152  CE1        2.4740  -10.0220   23.6970 C.ar   96  PHE96      -0.0003
    153  CE2        3.1590  -10.4350   21.4470 C.ar   96  PHE96      -0.0003
    154  CZ         2.1970  -10.4950   22.4260 C.ar   96  PHE96      -0.0000
    155  N          9.1430  -14.0260   25.5370 N.3    99  VAL99      -0.1231
    156  CA         8.3660  -14.7830   26.5370 C.3    99  VAL99       0.1692
    157  C          7.2450  -15.6150   25.9010 C.2    99  VAL99       0.2591
    158  O          6.6730  -16.4780   26.5600 O.2    99  VAL99      -0.2718
    159  CB         7.8090  -13.8780   27.6610 C.3    99  VAL99       0.0266
    160  CG1        8.9220  -13.0440   28.2950 C.3    99  VAL99       0.0020
    161  CG2        6.6890  -12.9800   27.1770 C.3    99  VAL99       0.0020
    162  N          6.9410  -15.3670   24.6260 N.am  100  ARG100     -0.1980
    163  CA         5.8910  -16.0930   23.9090 C.3   100  ARG100      0.1597
    164  C          6.4570  -16.8930   22.7620 C.2   100  ARG100      0.2287
    165  O          5.7580  -17.2400   21.8060 O.2   100  ARG100     -0.2864
    166  CB         4.8240  -15.1160   23.4120 C.3   100  ARG100      0.0334
    167  CG         4.1390  -14.3420   24.5270 C.3   100  ARG100      0.0492
    168  CD         3.0120  -13.4720   23.9930 C.3   100  ARG100      0.2205
    169  NE         1.8550  -14.2540   23.5340 N.pl3 100  ARG100     -0.0865
    170  CZ         0.6600  -14.3060   24.1250 C.cat 100  ARG100      0.5346
    171  NH1       -0.2970  -15.0560   23.5850 N.pl3 100  ARG100      0.1354
    172  NH2        0.4030  -13.6290   25.2410 N.pl3 100  ARG100      0.1354
    173  N          6.5240   -1.5130   19.3260 N.3   139  LEU139     -0.1245
    174  CA         5.7500   -1.7040   20.5500 C.3   139  LEU139      0.1561
    175  C          4.5160   -2.5280   20.2540 C.2   139  LEU139      0.2260
    176  O          4.0620   -2.6040   19.1070 O.2   139  LEU139     -0.2867
    177  CB         5.3500   -0.3500   21.1150 C.3   139  LEU139      0.0270
    178  CG         6.5030    0.5400   21.5890 C.3   139  LEU139      0.0019
    179  CD1        6.0270    1.9710   21.7440 C.3   139  LEU139      0.0001
    180  CD2        7.1410    0.0140   22.8670 C.3   139  LEU139      0.0001
    181  N          7.3840    2.7320   16.9070 N.3   149  GLY149     -0.1210
    182  CA         7.5290    3.7020   17.9870 C.3   149  GLY149      0.1956
    183  C          8.5090    4.7950   17.6220 C.2   149  GLY149      0.2611
    184  O          8.1540    5.7050   16.8990 O.2   149  GLY149     -0.2717
    185  N          9.7510    4.6440   18.0890 N.am  150  ASP150     -0.1973
    186  CA        10.8390    5.6610   18.0890 C.3   150  ASP150      0.1709
    187  C         10.5830    7.0660   17.4750 C.2   150  ASP150      0.2293
    188  O          9.8950    7.8720   18.0920 O.2   150  ASP150     -0.2864
    189  CB        12.1490    5.0230   17.5610 C.3   150  ASP150      0.1436
    190  CG        13.4070    5.5990   18.2260 C.2   150  ASP150      0.3671
    191  OD1       13.3460    5.9900   19.4140 O.co2 150  ASP150     -0.2456
    192  OD2       14.4690    5.6300   17.5640 O.co2 150  ASP150     -0.2456
@<TRIPOS>BOND
     1    72    73    1
     2   184   183    2
     3   181   182    1
     4    75    74    2
     5   187   186    1
     6   187   188    2
     7   189   186    1
     8   189   190    1
     9   192   190   ar
    10   183   182    1
    11   183   185   am
    12    74    73    1
    13    66    65    2
    14    73    76    1
    15   186   185    1
    16   190   191   ar
    17    77    76    1
    18    65    64    1
    19    94    93   ar
    20    64    63    1
    21    64    67    1
    22    76    78    1
    23   176   175    2
    24   173   174    1
    25    68    67    1
    26    68    69    1
    27    93    95   ar
    28    93    92    1
    29   175   174    1
    30   174   177    1
    31    71    69   ar
    32    86    85    1
    33    69    70   ar
    34    92    91    1
    35   177   178    1
    36   153   151   ar
    37   153   154   ar
    38   109   108    1
    39   178   179    1
    40   178   180    1
    41   151   149   ar
    42   165   164    2
    43    91    88    1
    44   154   152   ar
    45    85    84    1
    46   164   163    1
    47   108   105    1
    48   149   148    1
    49   149   150   ar
    50    87    88    1
    51    87    81   am
    52   131   132    2
    53   131   130    1
    54    84    83    1
    55    88    89    1
    56   148   145    1
    57    83    80    1
    58   146   147    2
    59   146   145    1
    60   166   163    1
    61   166   167    1
    62   128   127    2
    63   169   168    1
    64   169   170    2
    65   171   170    1
    66    90    89    2
    67   152   150   ar
    68    80    81    1
    69    80    79    1
    70   130   133    1
    71   130   129    1
    72   105   104    1
    73   105   106    1
    74   163   162    1
    75    89    96   am
    76   168   167    1
    77   138   139    1
    78    81    82    2
    79    62    61    1
    80   145   144    1
    81   170   172    1
    82    99    98    2
    83   123   122    1
    84   133   134    1
    85   144   140   am
    86   104    98   am
    87    61    60    1
    88   127   129   am
    89   127   126    1
    90   162   157   am
    91    60    59    1
    92    98    97    1
    93   134   135    1
    94    96    97    1
    95   140   139    1
    96   140   141    2
    97   106   110   am
    98   106   107    2
    99   121   122    1
   100   121   118    1
   101   139   142    1
   102   122   124    1
   103   110   111    1
   104   155   156    1
   105    97   100    1
   106   137   135   ar
   107   135   136   ar
   108   125   126    1
   109   125   119   am
   110   120   119    2
   111   119   118    1
   112   157   156    1
   113   157   158    2
   114   117   118    1
   115   117   112   am
   116    59    58    1
   117   142   143    1
   118   156   159    1
   119   115   114    1
   120   111   112    1
   121   111   114    1
   122    53    50    1
   123   100   101    1
   124    58    55    1
   125   112   113    2
   126   114   116    1
   127   161   159    1
   128    52    51    2
   129   159   160    1
   130    49    50    1
   131   101   102    1
   132   101   103    1
   133    50    51    1
   134    27    26    2
   135    55    54    1
   136    55    56    1
   137    39    37    1
   138    38    37    1
   139    57    56    2
   140    26    25    1
   141    37    34    1
   142    19    17    1
   143    24    25    1
   144    24    22   am
   145    25    28    1
   146    34    33    1
   147    34    35    1
   148    17    16    1
   149    32    30   ar
   150    21    22    1
   151    21    20    1
   152    29    28    1
   153    29    30    1
   154    15    14    2
   155    22    23    2
   156    30    31   ar
   157    35    36    2
   158    20    14   am
   159    14    13    1
   160    16    13    1
   161    16    18    1
   162    41    44    1
   163    41    40    1
   164    41    42    1
   165    44    45    1
   166    47    46    2
   167    13    12    1
   168    42    43    2
   169    46    45    1
   170    46    48   am
   171    11     9    1
   172     4     3    2
   173     9    10    1
   174     9     8    2
   175     8     7    1
   176     3     2    1
   177     6     7    1
   178     6     5    1
   179     1     2    1
   180     2     5    1
