@<TRIPOS>MOLECULE
tmp/4i4fA00.pdb
 208 196 0 0 0
SMALL
GASTEIGER

@<TRIPOS>ATOM
      1  N        -11.9250   10.6340  -31.8300 N.3    37  LYS37      -0.1245
      2  CA       -13.2290   10.8010  -31.2160 C.3    37  LYS37       0.1561
      3  C        -13.8860   11.9710  -31.9060 C.2    37  LYS37       0.2260
      4  O        -13.2490   13.0120  -32.1030 O.2    37  LYS37      -0.2867
      5  CB       -13.1160   11.1290  -29.7370 C.3    37  LYS37       0.0271
      6  CG       -12.4240   10.1070  -28.8540 C.3    37  LYS37       0.0035
      7  CD       -12.5760   10.5880  -27.4210 C.3    37  LYS37       0.0206
      8  CE       -12.2950    9.5220  -26.4040 C.3    37  LYS37       0.1093
      9  NZ       -12.6110   10.0470  -25.0480 N.3    37  LYS37      -0.1314
     10  N        -11.4120   16.3350  -20.3630 N.3    54  GLU54      -0.1231
     11  CA       -10.3820   15.3500  -19.9500 C.3    54  GLU54       0.1699
     12  C         -9.2160   15.2700  -20.9000 C.2    54  GLU54       0.2592
     13  O         -8.0870   14.9970  -20.4650 O.2    54  GLU54      -0.2718
     14  CB       -10.9690   13.9480  -19.7280 C.3    54  GLU54       0.0402
     15  CG       -11.7120   13.8460  -18.3950 C.3    54  GLU54       0.1161
     16  CD       -12.5640   12.5990  -18.2750 C.2    54  GLU54       0.3649
     17  OE1      -13.2030   12.2210  -19.2810 O.co2  54  GLU54      -0.2457
     18  OE2      -12.6100   12.0180  -17.1670 O.co2  54  GLU54      -0.2457
     19  N         -9.4680   15.4880  -22.1880 N.am   55  ALA55      -0.1980
     20  CA        -8.3730   15.6150  -23.1600 C.3    55  ALA55       0.1597
     21  C         -7.3840   16.6920  -22.7170 C.2    55  ALA55       0.2287
     22  O         -6.1730   16.5620  -22.9210 O.2    55  ALA55      -0.2864
     23  CB        -8.9030   15.9210  -24.5610 C.3    55  ALA55       0.0319
     24  N         -5.8520   15.4140  -19.1400 N.3    58  MET58      -0.1245
     25  CA        -4.9940   14.2420  -19.2930 C.3    58  MET58       0.1570
     26  C         -3.8930   14.3990  -20.3450 C.2    58  MET58       0.2261
     27  O         -3.1580   13.4510  -20.6060 O.2    58  MET58      -0.2867
     28  CB        -5.8610   13.0290  -19.6570 C.3    58  MET58       0.0387
     29  CG        -6.9460   12.7070  -18.6460 C.3    58  MET58       0.0595
     30  SD        -8.0030   11.3230  -19.1200 S.3    58  MET58      -0.1393
     31  CE        -7.0140    9.9520  -18.4850 C.3    58  MET58       0.0692
     32  N         -2.3530    3.1820  -20.5850 N.3    66  ILE66      -0.1231
     33  CA        -3.4200    4.1420  -20.7440 C.3    66  ILE66       0.1692
     34  C         -3.3520    4.6860  -22.1640 C.2    66  ILE66       0.2591
     35  O         -2.2750    5.0780  -22.6170 O.2    66  ILE66      -0.2718
     36  CB        -3.2940    5.3360  -19.7750 C.3    66  ILE66       0.0266
     37  CG1       -3.2280    4.8480  -18.3330 C.3    66  ILE66       0.0019
     38  CG2       -4.4760    6.2730  -19.9890 C.3    66  ILE66       0.0020
     39  CD1       -3.0860    5.9490  -17.3030 C.3    66  ILE66       0.0001
     40  N         -4.4940    4.7120  -22.8550 N.am   67  VAL67      -0.1980
     41  CA        -4.5550    5.2410  -24.2270 C.3    67  VAL67       0.1595
     42  C         -3.9880    6.6450  -24.2200 C.2    67  VAL67       0.2287
     43  O         -4.4330    7.4780  -23.4210 O.2    67  VAL67      -0.2864
     44  CB        -6.0070    5.3020  -24.7370 C.3    67  VAL67       0.0276
     45  CG1       -6.0950    6.1550  -25.9790 C.3    67  VAL67       0.0022
     46  CG2       -6.5510    3.9040  -25.0120 C.3    67  VAL67       0.0022
     47  N         -3.2800   10.4330  -25.5050 N.3    69  LEU69      -0.1245
     48  CA        -3.8790   11.5190  -26.2680 C.3    69  LEU69       0.1561
     49  C         -2.7770   12.1390  -27.1380 C.2    69  LEU69       0.2260
     50  O         -1.6670   12.3980  -26.6670 O.2    69  LEU69      -0.2867
     51  CB        -4.4790   12.5660  -25.3170 C.3    69  LEU69       0.0270
     52  CG        -5.7280   12.1120  -24.5850 C.3    69  LEU69       0.0019
     53  CD1       -5.8500   12.8450  -23.2560 C.3    69  LEU69       0.0001
     54  CD2       -6.9610   12.3360  -25.4450 C.3    69  LEU69       0.0001
     55  N         -6.1930   10.2960  -30.7360 N.3    82  MET82      -0.1245
     56  CA        -5.5340    9.4580  -29.7800 C.3    82  MET82       0.1570
     57  C         -4.9630    8.2110  -30.4250 C.2    82  MET82       0.2261
     58  O         -5.2330    7.8960  -31.5930 O.2    82  MET82      -0.2867
     59  CB        -6.5170    9.1050  -28.6640 C.3    82  MET82       0.0387
     60  CG        -7.7170    8.3100  -29.1050 C.3    82  MET82       0.0595
     61  SD        -9.0590    8.2550  -27.8930 S.3    82  MET82      -0.1393
     62  CE       -10.1970    7.3720  -28.9500 C.3    82  MET82       0.0692
     63  N         -3.1490   -3.2510  -15.9580 N.3   113  LEU113     -0.1245
     64  CA        -4.2050   -2.3470  -15.5770 C.3   113  LEU113      0.1561
     65  C         -3.9830   -1.7630  -14.1700 C.2   113  LEU113      0.2260
     66  O         -4.1840   -0.5780  -13.9630 O.2   113  LEU113     -0.2867
     67  CB        -5.5600   -3.0530  -15.6810 C.3   113  LEU113      0.0270
     68  CG        -5.9910   -3.4810  -17.0970 C.3   113  LEU113      0.0019
     69  CD1       -7.3560   -4.1750  -17.1540 C.3   113  LEU113      0.0001
     70  CD2       -6.0370   -2.2790  -18.0250 C.3   113  LEU113      0.0001
     71  N         -3.8620    2.1720  -13.0460 N.3   117  LEU117     -0.1245
     72  CA        -4.7710    2.7430  -12.0610 C.3   117  LEU117      0.1561
     73  C         -3.9600    3.4050  -10.9410 C.2   117  LEU117      0.2260
     74  O         -4.3230    4.5000  -10.4920 O.2   117  LEU117     -0.2867
     75  CB        -5.7320    1.6720  -11.5320 C.3   117  LEU117      0.0270
     76  CG        -6.6870    1.1870  -12.6480 C.3   117  LEU117      0.0019
     77  CD1       -7.4390   -0.1140  -12.3390 C.3   117  LEU117      0.0001
     78  CD2       -7.6550    2.3020  -12.9350 C.3   117  LEU117      0.0001
     79  N         -2.7810    6.7850  -12.3300 N.3   120  LEU120     -0.1245
     80  CA        -3.8080    7.8100  -12.3620 C.3   120  LEU120      0.1561
     81  C         -4.0220    8.3630  -10.9690 C.2   120  LEU120      0.2260
     82  O         -4.1450    9.5710  -10.7930 O.2   120  LEU120     -0.2867
     83  CB        -5.1270    7.2680  -12.9500 C.3   120  LEU120      0.0270
     84  CG        -5.1580    6.9390  -14.4570 C.3   120  LEU120      0.0019
     85  CD1       -6.4970    6.2850  -14.8300 C.3   120  LEU120      0.0001
     86  CD2       -4.9220    8.1710  -15.3030 C.3   120  LEU120      0.0001
     87  N         -6.0040   11.9810  -10.4140 N.3   125  PHE125     -0.1241
     88  CA        -7.0490   11.9650  -11.4170 C.3   125  PHE125      0.1605
     89  C         -8.2260   11.1810  -10.8700 C.2   125  PHE125      0.2264
     90  O         -8.0600   10.0700  -10.3800 O.2   125  PHE125     -0.2867
     91  CB        -6.5350   11.3190  -12.7020 C.3   125  PHE125      0.0534
     92  CG        -7.5140   11.3890  -13.8280 C.ar  125  PHE125     -0.0203
     93  CD1       -8.2070   10.2610  -14.2350 C.ar  125  PHE125     -0.0042
     94  CD2       -7.7830   12.6050  -14.4520 C.ar  125  PHE125     -0.0042
     95  CE1       -9.1090   10.3300  -15.2830 C.ar  125  PHE125     -0.0003
     96  CE2       -8.7070   12.6870  -15.4820 C.ar  125  PHE125     -0.0003
     97  CZ        -9.3750   11.5440  -15.8930 C.ar  125  PHE125     -0.0000
     98  N        -11.8140    9.7750  -12.1430 N.3   127  HIS127     -0.1241
     99  CA       -12.5910    9.5310  -13.3470 C.3   127  HIS127      0.1621
    100  C        -14.0410    9.3530  -12.9850 C.2   127  HIS127      0.2264
    101  O        -14.4400    8.3660  -12.3560 O.2   127  HIS127     -0.2867
    102  CB       -12.0650    8.3410  -14.1180 C.3   127  HIS127      0.0745
    103  CG       -12.8750    8.0280  -15.3330 C.ar  127  HIS127      0.0817
    104  ND1      -12.9800    8.8840  -16.4130 N.ar  127  HIS127     -0.2268
    105  CD2      -13.5700    6.9230  -15.6610 C.ar  127  HIS127      0.1154
    106  CE1      -13.7580    8.3310  -17.3280 C.ar  127  HIS127      0.1986
    107  NE2      -14.1390    7.1440  -16.8890 N.ar  127  HIS127     -0.2212
    108  N        -16.0900    3.6170  -18.7480 N.3   133  ARG133     -0.1231
    109  CA       -14.8190    2.9270  -18.5050 C.3   133  ARG133      0.1694
    110  C        -14.7190    1.6870  -19.3600 C.2   133  ARG133      0.2592
    111  O        -15.6720    0.9080  -19.4510 O.2   133  ARG133     -0.2718
    112  CB       -14.6220    2.5650  -17.0430 C.3   133  ARG133      0.0321
    113  CG       -14.4980    3.7760  -16.1540 C.3   133  ARG133      0.0489
    114  CD       -14.5100    3.3930  -14.7000 C.3   133  ARG133      0.2205
    115  NE       -14.1810    4.5490  -13.8660 N.pl3 133  ARG133     -0.0865
    116  CZ       -13.9770    4.5100  -12.5590 C.cat 133  ARG133      0.5346
    117  NH1      -14.1060    3.3790  -11.8640 N.pl3 133  ARG133      0.1354
    118  NH2      -13.6520    5.6370  -11.9390 N.pl3 133  ARG133      0.1354
    119  N        -13.5690    1.5210  -19.9970 N.am  134  ASN134     -0.1960
    120  CA       -13.3420    0.3950  -20.8920 C.3   134  ASN134      0.1819
    121  C        -11.8500    0.0690  -20.9890 C.2   134  ASN134      0.2621
    122  O        -10.9840    0.8630  -20.5800 O.2   134  ASN134     -0.2715
    123  CB       -13.9570    0.7030  -22.2440 C.3   134  ASN134      0.1195
    124  CG       -14.2240   -0.5330  -23.0680 C.2   134  ASN134      0.2630
    125  OD1      -14.1860   -1.6480  -22.5760 O.2   134  ASN134     -0.2716
    126  ND2      -14.4430   -0.3280  -24.3620 N.am  134  ASN134     -0.0877
    127  N        -11.5580   -1.1340  -21.4490 N.am  135  VAL135     -0.1977
    128  CA       -10.1960   -1.5670  -21.6240 C.3   135  VAL135      0.1596
    129  C        -10.0530   -1.9950  -23.0800 C.2   135  VAL135      0.2287
    130  O        -10.8800   -2.7430  -23.6380 O.2   135  VAL135     -0.2864
    131  CB        -9.8070   -2.6850  -20.6370 C.3   135  VAL135      0.0276
    132  CG1       -8.3640   -3.1550  -20.8370 C.3   135  VAL135      0.0022
    133  CG2      -10.0480   -2.2070  -19.2040 C.3   135  VAL135      0.0022
    134  N         -6.2140    1.3530  -20.5770 N.3   145  LEU145     -0.1231
    135  CA        -7.4140    2.0250  -20.1250 C.3   145  LEU145      0.1693
    136  C         -7.9180    3.0390  -21.1530 C.2   145  LEU145      0.2593
    137  O         -7.1300    3.8490  -21.6580 O.2   145  LEU145     -0.2718
    138  CB        -7.1230    2.7990  -18.8320 C.3   145  LEU145      0.0284
    139  CG        -6.6450    2.0760  -17.5780 C.3   145  LEU145      0.0019
    140  CD1       -6.5400    3.1160  -16.4550 C.3   145  LEU145      0.0001
    141  CD2       -7.5450    0.8990  -17.1890 C.3   145  LEU145      0.0001
    142  N         -9.2150    2.9850  -21.4680 N.am  146  GLY146     -0.1942
    143  CA        -9.8740    3.9860  -22.2710 C.3   146  GLY146      0.2014
    144  C        -11.2430    4.3730  -21.7300 C.2   146  GLY146      0.2639
    145  O        -11.6780    3.8860  -20.6830 O.2   146  GLY146     -0.2714
    146  N        -11.9190    5.2680  -22.4370 N.am  147  ASP147     -0.1957
    147  CA       -13.2670    5.6800  -22.0730 C.3   147  ASP147      0.1840
    148  C        -14.2100    5.6530  -23.2680 C.2   147  ASP147      0.2622
    149  O        -15.1780    6.4220  -23.3440 O.2   147  ASP147     -0.2715
    150  CB       -13.2680    7.0580  -21.4200 C.3   147  ASP147      0.1450
    151  CG       -12.9040    8.1780  -22.3910 C.2   147  ASP147      0.3671
    152  OD1      -12.3600    7.8950  -23.4870 O.co2 147  ASP147     -0.2456
    153  OD2      -13.1740    9.3470  -22.0290 O.co2 147  ASP147     -0.2456
    154  N        -13.9320    4.7520  -24.1930 N.am  148  PHE148     -0.1974
    155  CA       -14.7390    4.5750  -25.3850 C.3   148  PHE148      0.1639
    156  C        -14.7130    3.0950  -25.7400 C.2   148  PHE148      0.2290
    157  O        -13.8430    2.3280  -25.2930 O.2   148  PHE148     -0.2864
    158  CB       -14.1530    5.4050  -26.5640 C.3   148  PHE148      0.0560
    159  CG       -12.7180    5.0800  -26.8540 C.ar  148  PHE148     -0.0200
    160  CD1      -12.3950    4.0900  -27.7650 C.ar  148  PHE148     -0.0042
    161  CD2      -11.7000    5.6700  -26.1200 C.ar  148  PHE148     -0.0042
    162  CE1      -11.0810    3.7460  -27.9800 C.ar  148  PHE148     -0.0003
    163  CE2      -10.3750    5.3290  -26.3280 C.ar  148  PHE148     -0.0003
    164  CZ       -10.0670    4.3690  -27.2780 C.ar  148  PHE148     -0.0000
    165  N        -13.2080    2.6420   -6.6610 N.3   173  ASP173     -0.1239
    166  CA       -12.4900    2.2340   -7.8860 C.3   173  ASP173      0.1674
    167  C        -11.8090    0.8690   -7.6980 C.2   173  ASP173      0.2266
    168  O        -11.7390    0.0650   -8.6210 O.2   173  ASP173     -0.2867
    169  CB       -11.4490    3.2660   -8.2710 C.3   173  ASP173      0.1410
    170  CG       -12.0460    4.5440   -8.8230 C.2   173  ASP173      0.3668
    171  OD1      -11.3060    5.5540   -8.7700 O.co2 173  ASP173     -0.2456
    172  OD2      -13.2230    4.5450   -9.2800 O.co2 173  ASP173     -0.2456
    173  N        -14.4790   -1.8530   -8.1760 N.3   176  MET176     -0.1230
    174  CA       -14.7300   -2.0080   -9.5850 C.3   176  MET176      0.1702
    175  C        -13.6110   -2.7270  -10.3130 C.2   176  MET176      0.2592
    176  O        -13.8720   -3.5990  -11.1350 O.2   176  MET176     -0.2718
    177  CB       -15.0470   -0.6530  -10.2340 C.3   176  MET176      0.0401
    178  CG       -15.5180   -0.8380  -11.6530 C.3   176  MET176      0.0596
    179  SD       -16.1660    0.6640  -12.4460 S.3   176  MET176     -0.1393
    180  CE       -17.6100    1.0080  -11.4750 C.3   176  MET176      0.0692
    181  N        -12.3560   -2.4750   -9.9070 N.am  177  PHE177     -0.1976
    182  CA       -11.2610   -3.1620  -10.5110 C.3   177  PHE177      0.1639
    183  C        -11.2950   -4.6390  -10.1670 C.2   177  PHE177      0.2290
    184  O        -10.8990   -5.4710  -10.9950 O.2   177  PHE177     -0.2864
    185  CB        -9.9200   -2.5290  -10.1030 C.3   177  PHE177      0.0560
    186  CG        -8.7360   -3.2160  -10.6910 C.ar  177  PHE177     -0.0200
    187  CD1       -7.7270   -3.7510   -9.8570 C.ar  177  PHE177     -0.0042
    188  CD2       -8.6010   -3.3460  -12.0530 C.ar  177  PHE177     -0.0042
    189  CE1       -6.6570   -4.4180  -10.4060 C.ar  177  PHE177     -0.0003
    190  CE2       -7.5240   -4.0330  -12.6000 C.ar  177  PHE177     -0.0003
    191  CZ        -6.5500   -4.5480  -11.7710 C.ar  177  PHE177     -0.0000
    192  N        -13.5380   -6.0320  -12.6960 N.3   180  CYS180     -0.1235
    193  CA       -12.7200   -6.1030  -13.9260 C.3   180  CYS180      0.1677
    194  C        -11.8120   -7.3390  -13.9950 C.2   180  CYS180      0.2270
    195  O        -11.8390   -8.0890  -14.9880 O.2   180  CYS180     -0.2867
    196  CB       -11.8460   -4.8590  -14.0080 C.3   180  CYS180      0.0956
    197  SG       -10.8650   -4.7720  -15.5370 S.3   180  CYS180     -0.0801
    198  N         -4.3560    0.5200   -4.6500 N.3   238  PHE238     -0.1241
    199  CA        -3.8170    0.1240   -5.9690 C.3   238  PHE238      0.1605
    200  C         -2.3360   -0.2550   -5.9140 C.2   238  PHE238      0.2264
    201  O         -1.9340   -1.1920   -6.5840 O.2   238  PHE238     -0.2867
    202  CB        -4.1040    1.1830   -7.0550 C.3   238  PHE238      0.0534
    203  CG        -5.5170    1.1470   -7.5710 C.ar  238  PHE238     -0.0203
    204  CD1       -5.9990    0.0080   -8.2150 C.ar  238  PHE238     -0.0042
    205  CD2       -6.3550    2.2640   -7.4470 C.ar  238  PHE238     -0.0042
    206  CE1       -7.2900   -0.0450   -8.6940 C.ar  238  PHE238     -0.0003
    207  CE2       -7.6560    2.2040   -7.9300 C.ar  238  PHE238     -0.0003
    208  CZ        -8.1090    1.0630   -8.5560 C.ar  238  PHE238     -0.0000
@<TRIPOS>BOND
     1     4     3    2
     2     3     2    1
     3     1     2    1
     4    58    57    2
     5     2     5    1
     6    55    56    1
     7    57    56    1
     8    56    59    1
     9     5     6    1
    10    60    59    1
    11    60    61    1
    12    62    61    1
    13     6     7    1
    14   162   160   ar
    15   162   164   ar
    16   160   159   ar
    17     7     8    1
    18   164   163   ar
    19    49    50    2
    20    49    48    1
    21   159   158    1
    22   159   161   ar
    23   158   155    1
    24     8     9    1
    25   163   161   ar
    26    48    47    1
    27    48    51    1
    28    45    44    1
    29   156   155    1
    30   156   157    2
    31    54    52    1
    32   155   154    1
    33    51    52    1
    34    46    44    1
    35    44    41    1
    36    52    53    1
    37    23    20    1
    38   126   124   am
    39    41    42    1
    40    41    40    1
    41    42    43    2
    42   154   148   am
    43   130   129    2
    44   152   151   ar
    45   149   148    2
    46   148   147    1
    47    20    21    1
    48    20    19    1
    49   129   128    1
    50   124   125    2
    51   124   123    1
    52    22    21    2
    53    40    34   am
    54    35    34    2
    55   146   147    1
    56   146   144   am
    57   151   153   ar
    58   151   150    1
    59   143   144    1
    60   143   142    1
    61   123   120    1
    62    19    12   am
    63    34    33    1
    64   147   150    1
    65   144   145    2
    66   137   136    2
    67   128   127    1
    68   128   131    1
    69   142   136   am
    70   127   121   am
    71   136   135    1
    72   121   120    1
    73   121   122    2
    74    12    13    2
    75    12    11    1
    76   120   119    1
    77   132   131    1
    78    33    32    1
    79    33    36    1
    80   131   133    1
    81    27    26    2
    82   134   135    1
    83    10    11    1
    84    26    25    1
    85   135   138    1
    86   119   110   am
    87    38    36    1
    88    11    14    1
    89    36    37    1
    90    14    15    1
    91    28    25    1
    92    28    29    1
    93   111   110    2
    94   110   109    1
    95    25    24    1
    96    17    16   ar
    97    30    29    1
    98    30    31    1
    99   138   139    1
   100   108   109    1
   101   109   112    1
   102    15    16    1
   103    37    39    1
   104    16    18   ar
   105    70    68    1
   106   139   141    1
   107   139   140    1
   108   106   107   ar
   109   106   104   ar
   110    69    68    1
   111    68    67    1
   112   112   113    1
   113   107   105   ar
   114   104   103   ar
   115   113   114    1
   116    63    64    1
   117    97    96   ar
   118    97    95   ar
   119    67    64    1
   120   105   103   ar
   121    64    65    1
   122   197   196    1
   123    96    94   ar
   124   103   102    1
   125    86    84    1
   126    95    93   ar
   127   195   194    2
   128    85    84    1
   129   114   115    1
   130    84    83    1
   131    94    92   ar
   132    93    92   ar
   133    65    66    2
   134   102    99    1
   135   196   193    1
   136   194   193    1
   137   193   192    1
   138   115   116    2
   139    92    91    1
   140    99   100    1
   141    99    98    1
   142    71    72    1
   143   100   101    2
   144    83    80    1
   145    78    76    1
   146    91    88    1
   147    76    77    1
   148    76    75    1
   149   190   188   ar
   150   190   191   ar
   151   116   118    1
   152   116   117    1
   153   179   178    1
   154   179   180    1
   155    80    79    1
   156    80    81    1
   157    72    75    1
   158    72    73    1
   159   188   186   ar
   160   191   189   ar
   161   178   177    1
   162    88    89    1
   163    88    87    1
   164   176   175    2
   165   184   183    2
   166    81    82    2
   167    73    74    2
   168    89    90    2
   169   186   185    1
   170   186   187   ar
   171   182   183    1
   172   182   185    1
   173   182   181    1
   174   189   187   ar
   175   175   181   am
   176   175   174    1
   177   177   174    1
   178   174   173    1
   179   172   170   ar
   180   170   171   ar
   181   170   169    1
   182   206   208   ar
   183   206   204   ar
   184   168   167    2
   185   208   207   ar
   186   169   166    1
   187   204   203   ar
   188   207   205   ar
   189   166   167    1
   190   166   165    1
   191   203   205   ar
   192   203   202    1
   193   202   199    1
   194   201   200    2
   195   199   200    1
   196   199   198    1
