@<TRIPOS>MOLECULE
tmp/4i4kB01.pdb
 177 173 0 0 0
SMALL
GASTEIGER

@<TRIPOS>ATOM
      1  N         19.7210   97.6930    0.0990 N.3    13  PRO13      -0.2116
      2  CA        21.0540   97.9900    0.6360 C.3    13  PRO13       0.1372
      3  C         21.4490   99.4450    0.5020 C.2    13  PRO13       0.2244
      4  O         22.0680   99.9830    1.4200 O.2    13  PRO13      -0.2868
      5  CB        21.9860   97.1200   -0.2150 C.3    13  PRO13       0.0268
      6  CG        21.1520   96.0240   -0.6530 C.3    13  PRO13       0.0207
      7  CD        19.7800   96.5890   -0.8760 C.3    13  PRO13       0.0892
      8  N         20.1010  101.2740    3.4490 N.3    16  ILE16      -0.1231
      9  CA        20.8350  100.8960    4.6550 C.3    16  ILE16       0.1692
     10  C         22.1920  101.5990    4.7000 C.2    16  ILE16       0.2591
     11  O         22.5880  102.1170    5.7420 O.2    16  ILE16      -0.2718
     12  CB        20.9910   99.3600    4.7520 C.3    16  ILE16       0.0266
     13  CG1       19.6290   98.7230    5.0670 C.3    16  ILE16       0.0019
     14  CG2       22.0080   98.9820    5.8560 C.3    16  ILE16       0.0020
     15  CD1       19.1020   99.0710    6.4810 C.3    16  ILE16       0.0001
     16  N         22.8940  101.6180    3.5640 N.am   17  VAL17      -0.1980
     17  CA        24.1880  102.2910    3.4660 C.3    17  VAL17       0.1595
     18  C         24.0410  103.7950    3.7560 C.2    17  VAL17       0.2287
     19  O         24.8580  104.3940    4.4690 O.2    17  VAL17      -0.2864
     20  CB        24.8350  102.0950    2.0740 C.3    17  VAL17       0.0276
     21  CG1       26.0930  102.9460    1.9330 C.3    17  VAL17       0.0022
     22  CG2       25.1480  100.6350    1.8360 C.3    17  VAL17       0.0022
     23  N         23.4380  104.3070    7.4400 N.3    20  TRP20      -0.1241
     24  CA        24.6780  104.0430    8.1680 C.3    20  TRP20       0.1605
     25  C         25.6380  105.2070    8.0530 C.2    20  TRP20       0.2264
     26  O         26.2960  105.5770    9.0290 O.2    20  TRP20      -0.2867
     27  CB        25.3510  102.7890    7.6260 C.3    20  TRP20       0.0550
     28  CG        26.4220  102.2380    8.5110 C.ar   20  TRP20       0.0003
     29  CD1       27.6850  102.7320    8.7040 C.ar   20  TRP20       0.0946
     30  CD2       26.3230  101.0590    9.2950 C.ar   20  TRP20       0.0152
     31  NE1       28.3800  101.9200    9.5750 N.ar   20  TRP20      -0.2442
     32  CE2       27.5610  100.8890    9.9600 C.ar   20  TRP20       0.0810
     33  CE3       25.3040  100.1270    9.5070 C.ar   20  TRP20       0.0012
     34  CZ2       27.8080   99.8140   10.8150 C.ar   20  TRP20       0.0191
     35  CZ3       25.5330   99.0740   10.3680 C.ar   20  TRP20       0.0001
     36  CH2       26.7920   98.9160   11.0090 C.ar   20  TRP20       0.0015
     37  N         17.5080  103.4950    9.3450 N.3    28  PHE28      -0.1241
     38  CA        17.9710  102.1160    9.2550 C.3    28  PHE28       0.1605
     39  C         16.8060  101.1570    9.5380 C.2    28  PHE28       0.2264
     40  O         16.5120  100.2430    8.7300 O.2    28  PHE28      -0.2867
     41  CB        19.1640  101.9020   10.1960 C.3    28  PHE28       0.0534
     42  CG        19.7760  100.5290   10.1200 C.ar   28  PHE28      -0.0203
     43  CD1       19.1600   99.4540   10.7290 C.ar   28  PHE28      -0.0042
     44  CD2       21.0000  100.3350    9.5140 C.ar   28  PHE28      -0.0042
     45  CE1       19.7210   98.2020   10.6840 C.ar   28  PHE28      -0.0003
     46  CE2       21.5870   99.0710    9.4690 C.ar   28  PHE28      -0.0003
     47  CZ        20.9490   98.0020   10.0600 C.ar   28  PHE28      -0.0000
     48  N         23.0980   88.8110   13.4500 N.3    39  LEU39      -0.1245
     49  CA        24.5310   89.0390   13.2320 C.3    39  LEU39       0.1561
     50  C         25.2330   88.0620   14.1290 C.2    39  LEU39       0.2260
     51  O         24.6190   87.4990   15.0100 O.2    39  LEU39      -0.2867
     52  CB        24.9540   90.4510   13.6730 C.3    39  LEU39       0.0270
     53  CG        24.0670   91.6160   13.2520 C.3    39  LEU39       0.0019
     54  CD1       24.5880   92.8770   13.9360 C.3    39  LEU39       0.0001
     55  CD2       24.1160   91.7500   11.7100 C.3    39  LEU39       0.0001
     56  N         29.7570  101.1000   16.3440 N.3    61  TYR61      -0.1241
     57  CA        29.7130  101.4420   14.9180 C.3    61  TYR61       0.1605
     58  C         29.9890  102.9040   14.6720 C.2    61  TYR61       0.2264
     59  O         29.9220  103.3720   13.5270 O.2    61  TYR61      -0.2867
     60  CB        28.3660  101.0730   14.2940 C.3    61  TYR61       0.0534
     61  CG        28.0210   99.5960   14.3880 C.ar   61  TYR61      -0.0201
     62  CD1       29.0140   98.6240   14.4310 C.ar   61  TYR61      -0.0009
     63  CD2       26.6900   99.1780   14.4320 C.ar   61  TYR61      -0.0009
     64  CE1       28.6820   97.2590   14.5300 C.ar   61  TYR61       0.0417
     65  CE2       26.3530   97.8180   14.5290 C.ar   61  TYR61       0.0417
     66  CZ        27.3430   96.8730   14.5790 C.ar   61  TYR61       0.1957
     67  OH        26.9940   95.5290   14.6620 O.3    61  TYR61      -0.2866
     68  N         30.0530  101.4590    5.5660 N.3    66  VAL66      -0.1231
     69  CA        29.6660  100.1460    5.0250 C.3    66  VAL66       0.1692
     70  C         30.0910  100.0620    3.5760 C.2    66  VAL66       0.2592
     71  O         29.9590  101.0480    2.8460 O.2    66  VAL66      -0.2718
     72  CB        28.1200   99.9870    5.0360 C.3    66  VAL66       0.0266
     73  CG1       27.6650   98.8070    4.1480 C.3    66  VAL66       0.0020
     74  CG2       27.6100   99.8320    6.4410 C.3    66  VAL66       0.0020
     75  N         30.6110   98.9040    3.1500 N.am   67  ILE67      -0.1966
     76  CA        30.9070   98.6990    1.7390 C.3    67  ILE67       0.1727
     77  C         30.2670   97.3840    1.3300 C.2    67  ILE67       0.2617
     78  O         29.9980   96.5290    2.1870 O.2    67  ILE67      -0.2715
     79  CB        32.4290   98.6310    1.4400 C.3    67  ILE67       0.0290
     80  CG1       33.0550   97.3680    2.0670 C.3    67  ILE67       0.0022
     81  CG2       33.1310   99.9050    1.9020 C.3    67  ILE67       0.0023
     82  CD1       34.5670   97.1980    1.6850 C.3    67  ILE67       0.0001
     83  N         29.9960   97.2120    0.0360 N.am   68  GLY68      -0.1940
     84  CA        29.3840   95.9680   -0.3880 C.3    68  GLY68       0.2014
     85  C         29.1400   95.8670   -1.8780 C.2    68  GLY68       0.2640
     86  O         29.0820   96.8650   -2.5970 O.2    68  GLY68      -0.2714
     87  N         29.0470   94.6240   -2.3390 N.am   69  SER69      -0.1936
     88  CA        28.7820   94.3390   -3.7420 C.3    69  SER69       0.2040
     89  C         27.9270   93.0780   -3.7890 C.2    69  SER69       0.2485
     90  O         28.1140   92.1680   -2.9660 O.2    69  SER69      -0.2729
     91  CB        30.1100   94.1020   -4.4630 C.3    69  SER69       0.2129
     92  OG        29.9500   94.1120   -5.8650 O.3    69  SER69      -0.2179
     93  N         26.9940   92.9930   -4.7530 N.am   70  PRO70      -0.2726
     94  CA        26.1020   91.8340   -4.8330 C.3    70  PRO70       0.1402
     95  C         26.7890   90.6000   -5.4040 C.2    70  PRO70       0.2269
     96  O         27.6180   90.7310   -6.3180 O.2    70  PRO70      -0.2865
     97  CB        24.9870   92.3180   -5.7750 C.3    70  PRO70       0.0296
     98  CG        25.6190   93.3940   -6.6030 C.3    70  PRO70       0.0237
     99  CD        26.6040   94.0710   -5.6820 C.3    70  PRO70       0.0939
    100  N         25.0130   89.6490   -0.6330 N.3    85  THR85      -0.1203
    101  CA        26.1100   90.5720   -0.9100 C.3    85  THR85       0.1994
    102  C         27.3420   90.1620   -0.1080 C.2    85  THR85       0.2618
    103  O         27.2500   89.3270    0.8070 O.2    85  THR85      -0.2717
    104  CB        25.7450   92.0250   -0.4800 C.3    85  THR85       0.1784
    105  OG1       25.4970   92.0670    0.9450 O.3    85  THR85      -0.2211
    106  CG2       24.5140   92.5230   -1.2450 C.3    85  THR85       0.0376
    107  N         28.4960   90.6920   -0.4890 N.am   86  GLU86      -0.1965
    108  CA        29.7010   90.6000    0.3350 C.3    86  GLU86       0.1733
    109  C         30.2900   91.9950    0.5610 C.2    86  GLU86       0.2617
    110  O         30.1330   92.8930   -0.2790 O.2    86  GLU86      -0.2715
    111  CB        30.7400   89.6910   -0.3130 C.3    86  GLU86       0.0429
    112  CG        31.2520   90.2040   -1.6320 C.3    86  GLU86       0.1163
    113  CD        32.2620   89.2500   -2.2230 C.2    86  GLU86       0.3649
    114  OE1       32.5180   89.3100   -3.4500 O.co2  86  GLU86      -0.2457
    115  OE2       32.7970   88.4400   -1.4360 O.co2  86  GLU86      -0.2457
    116  N         30.9580   92.2020    1.6910 N.am   87  GLY87      -0.1940
    117  CA        31.5190   93.5200    1.9790 C.3    87  GLY87       0.2014
    118  C         31.7390   93.5940    3.4640 C.2    87  GLY87       0.2639
    119  O         32.3150   92.6890    4.0420 O.2    87  GLY87      -0.2714
    120  N         31.2710   94.6680    4.0820 N.am   88  GLY88      -0.1939
    121  CA        31.3450   94.7610    5.5250 C.3    88  GLY88       0.2014
    122  C         31.5480   96.1700    6.0190 C.2    88  GLY88       0.2638
    123  O         31.1660   97.1450    5.3600 O.2    88  GLY88      -0.2714
    124  N         32.1510   96.2610    7.1980 N.am   89  ILE89      -0.1977
    125  CA        32.2650   97.5110    7.9210 C.3    89  ILE89       0.1596
    126  C         33.7230   97.9190    8.0270 C.2    89  ILE89       0.2287
    127  O         34.5570   97.1190    8.4460 O.2    89  ILE89      -0.2864
    128  CB        31.7150   97.3270    9.3560 C.3    89  ILE89       0.0276
    129  CG1       30.3000   96.7500    9.3220 C.3    89  ILE89       0.0022
    130  CG2       31.7470   98.6240   10.1170 C.3    89  ILE89       0.0022
    131  CD1       29.3270   97.5420    8.4910 C.3    89  ILE89       0.0001
    132  N         32.0810   90.4160    5.8110 N.3   103  VAL103     -0.1245
    133  CA        30.9270   89.5420    5.9130 C.3   103  VAL103      0.1561
    134  C         30.2990   89.2210    4.5550 C.2   103  VAL103      0.2260
    135  O         30.5370   89.9140    3.5700 O.2   103  VAL103     -0.2867
    136  CB        29.7920   90.1620    6.7830 C.3   103  VAL103      0.0252
    137  CG1       30.3160   90.5550    8.1830 C.3   103  VAL103      0.0019
    138  CG2       29.1310   91.3750    6.0730 C.3   103  VAL103      0.0019
    139  N         26.2260   88.8970    3.4830 N.3   105  ALA105     -0.1245
    140  CA        24.9250   89.2380    4.0340 C.3   105  ALA105      0.1562
    141  C         23.8080   88.7950    3.1100 C.2   105  ALA105      0.2260
    142  O         23.9180   88.8890    1.8870 O.2   105  ALA105     -0.2867
    143  CB        24.8010   90.7550    4.2320 C.3   105  ALA105      0.0290
    144  N         19.7070   89.4360    2.2310 N.3   107  TRP107     -0.1241
    145  CA        18.6910   90.4740    2.3080 C.3   107  TRP107      0.1605
    146  C         17.4150   89.8710    1.7220 C.2   107  TRP107      0.2264
    147  O         17.3070   89.6980    0.5110 O.2   107  TRP107     -0.2867
    148  CB        19.1100   91.6840    1.4480 C.3   107  TRP107      0.0550
    149  CG        20.5060   92.2190    1.6970 C.ar  107  TRP107      0.0003
    150  CD1       21.6720   91.6210    1.3680 C.ar  107  TRP107      0.0946
    151  CD2       20.8510   93.4760    2.2910 C.ar  107  TRP107      0.0152
    152  NE1       22.7460   92.4170    1.7260 N.ar  107  TRP107     -0.2442
    153  CE2       22.2590   93.5690    2.2870 C.ar  107  TRP107      0.0810
    154  CE3       20.1030   94.5510    2.7900 C.ar  107  TRP107      0.0012
    155  CZ2       22.9360   94.6750    2.7820 C.ar  107  TRP107      0.0191
    156  CZ3       20.7830   95.6510    3.3020 C.ar  107  TRP107      0.0001
    157  CH2       22.1820   95.7040    3.2930 C.ar  107  TRP107      0.0015
    158  N         17.4770   90.3250    7.5120 N.3   121  TYR121     -0.1241
    159  CA        18.8540   90.6000    7.1750 C.3   121  TYR121      0.1605
    160  C         19.6820   89.6550    8.0250 C.2   121  TYR121      0.2264
    161  O         19.3980   89.5160    9.2210 O.2   121  TYR121     -0.2867
    162  CB        19.2350   92.0470    7.5880 C.3   121  TYR121      0.0534
    163  CG        20.7160   92.3080    7.4030 C.ar  121  TYR121     -0.0201
    164  CD1       21.1990   92.8050    6.2060 C.ar  121  TYR121     -0.0009
    165  CD2       21.6300   92.0340    8.4130 C.ar  121  TYR121     -0.0009
    166  CE1       22.5550   93.0310    6.0130 C.ar  121  TYR121      0.0417
    167  CE2       23.0000   92.2380    8.2230 C.ar  121  TYR121      0.0417
    168  CZ        23.4480   92.7450    7.0240 C.ar  121  TYR121      0.1957
    169  OH        24.8020   92.9500    6.8220 O.3   121  TYR121     -0.2866
    170  N         24.0680   88.4930    8.6110 N.3   123  ASN123     -0.1240
    171  CA        25.4140   88.3990    8.0890 C.3   123  ASN123      0.1653
    172  C         26.2330   87.3590    8.8330 C.2   123  ASN123      0.2266
    173  O         25.8770   86.9710    9.9710 O.2   123  ASN123     -0.2867
    174  CB        26.0810   89.7710    7.8300 C.3   123  ASN123      0.1155
    175  CG        26.5130   90.5090    9.0900 C.2   123  ASN123      0.2627
    176  OD1       26.9170   89.9080   10.0780 O.2   123  ASN123     -0.2716
    177  ND2       26.4910   91.8390    9.0300 N.am  123  ASN123     -0.0877
@<TRIPOS>BOND
     1    98    97    1
     2    98    99    1
     3    96    95    2
     4    92    91    1
     5    97    94    1
     6    99    93    1
     7    95    94    1
     8    94    93    1
     9    93    89   am
    10    91    88    1
    11    89    88    1
    12    89    90    2
    13    88    87    1
    14   114   113   ar
    15    86    85    2
    16    87    85   am
    17   113   112    1
    18   113   115   ar
    19    85    84    1
    20   112   111    1
    21   106   104    1
    22   101   100    1
    23   101   104    1
    24   101   102    1
    25     7     6    1
    26     7     1    1
    27     6     5    1
    28   107   102   am
    29   107   108    1
    30   104   105    1
    31    84    83    1
    32   111   108    1
    33   110   109    2
    34     5     2    1
    35   102   103    2
    36    83    77   am
    37     1     2    1
    38   108   109    1
    39     3     2    1
    40     3     4    2
    41   147   146    2
    42   109   116   am
    43    77    76    1
    44    77    78    2
    45   150   149   ar
    46   150   152   ar
    47    79    76    1
    48    79    81    1
    49    79    80    1
    50   148   149    1
    51   148   145    1
    52    82    80    1
    53   116   117    1
    54   149   151   ar
    55   146   145    1
    56   152   153   ar
    57    76    75    1
    58    22    20    1
    59   142   141    2
    60    21    20    1
    61   117   118    1
    62    20    17    1
    63   144   145    1
    64   153   151   ar
    65   153   155   ar
    66   151   154   ar
    67   155   157   ar
    68   154   156   ar
    69    71    70    2
    70   141   140    1
    71    75    70   am
    72   157   156   ar
    73     8     9    1
    74   118   119    2
    75   118   120   am
    76    17    16    1
    77    17    18    1
    78   139   140    1
    79    16    10   am
    80   135   134    2
    81    70    69    1
    82    18    19    2
    83   140   143    1
    84   120   121    1
    85    73    72    1
    86   134   133    1
    87     9    10    1
    88     9    12    1
    89    10    11    2
    90    12    13    1
    91    12    14    1
    92    69    72    1
    93    69    68    1
    94    72    74    1
    95    13    15    1
    96   123   122    2
    97   121   122    1
    98   132   133    1
    99   133   136    1
   100   166   164   ar
   101   166   168   ar
   102   122   124   am
   103   138   136    1
   104   164   163   ar
   105   136   137    1
   106   169   168    1
   107   168   167   ar
   108   159   158    1
   109   159   162    1
   110   159   160    1
   111   124   125    1
   112   163   162    1
   113   163   165   ar
   114    23    24    1
   115    27    24    1
   116    27    28    1
   117   174   171    1
   118   174   175    1
   119   125   126    1
   120   125   128    1
   121   160   161    2
   122   126   127    2
   123    25    24    1
   124    25    26    2
   125   171   170    1
   126   171   172    1
   127   167   165   ar
   128   131   129    1
   129    28    29   ar
   130    28    30   ar
   131    29    31   ar
   132    40    39    2
   133   172   173    2
   134   177   175   am
   135   175   176    2
   136    38    37    1
   137    38    39    1
   138    38    41    1
   139    30    33   ar
   140    30    32   ar
   141   129   128    1
   142   128   130    1
   143    46    44   ar
   144    46    47   ar
   145    33    35   ar
   146    44    42   ar
   147    31    32   ar
   148    32    34   ar
   149    47    45   ar
   150    42    41    1
   151    42    43   ar
   152    35    36   ar
   153    45    43   ar
   154    34    36   ar
   155    55    53    1
   156    49    48    1
   157    49    52    1
   158    49    50    1
   159    53    52    1
   160    53    54    1
   161    59    58    2
   162    50    51    2
   163    60    61    1
   164    60    57    1
   165    61    62   ar
   166    61    63   ar
   167    62    64   ar
   168    63    65   ar
   169    65    66   ar
   170    64    66   ar
   171    66    67    1
   172    58    57    1
   173    57    56    1
