@<TRIPOS>MOLECULE
tmp/4i4kA01.pdb
 164 160 0 0 0
SMALL
GASTEIGER

@<TRIPOS>ATOM
      1  N         14.4720   71.0340    9.5520 N.3    20  PRO20      -0.2116
      2  CA        15.6900   70.7860   10.3240 C.3    20  PRO20       0.1372
      3  C         15.8600   69.3250   10.7430 C.2    20  PRO20       0.2244
      4  O         16.9980   68.8720   10.8090 O.2    20  PRO20      -0.2868
      5  CB        15.5290   71.7060   11.5350 C.3    20  PRO20       0.0268
      6  CG        14.7760   72.8970   10.9420 C.3    20  PRO20       0.0207
      7  CD        13.7870   72.2680    9.9850 C.3    20  PRO20       0.0892
      8  N         17.7830   67.4230    8.1930 N.3    23  ILE23      -0.1245
      9  CA        19.2050   67.7550    8.2550 C.3    23  ILE23       0.1561
     10  C         19.8570   67.0720    9.4610 C.2    23  ILE23       0.2260
     11  O         20.9620   66.5560    9.3520 O.2    23  ILE23      -0.2867
     12  CB        19.4260   69.2890    8.3350 C.3    23  ILE23       0.0252
     13  CG1       19.0330   69.9520    7.0020 C.3    23  ILE23       0.0019
     14  CG2       20.8720   69.5830    8.6890 C.3    23  ILE23       0.0019
     15  CD1       19.8900   69.4870    5.7740 C.3    23  ILE23       0.0001
     16  N         22.8190   64.3730    9.1430 N.3    27  TRP27      -0.1241
     17  CA        24.0730   64.6410    9.8170 C.3    27  TRP27       0.1605
     18  C         24.4880   63.5180   10.7610 C.2    27  TRP27       0.2264
     19  O         25.6780   63.2070   10.8670 O.2    27  TRP27      -0.2867
     20  CB        23.9150   65.9110   10.6370 C.3    27  TRP27       0.0550
     21  CG        25.2000   66.5050   11.1040 C.ar   27  TRP27       0.0003
     22  CD1       26.0440   66.0260   12.0700 C.ar   27  TRP27       0.0946
     23  CD2       25.7710   67.7160   10.6320 C.ar   27  TRP27       0.0152
     24  NE1       27.1230   66.8710   12.2120 N.ar   27  TRP27      -0.2442
     25  CE2       26.9770   67.9200   11.3450 C.ar   27  TRP27       0.0810
     26  CE3       25.3850   68.6560    9.6680 C.ar   27  TRP27       0.0012
     27  CZ2       27.7930   69.0300   11.1330 C.ar   27  TRP27       0.0191
     28  CZ3       26.2070   69.7450    9.4490 C.ar   27  TRP27       0.0001
     29  CH2       27.3970   69.9230   10.1750 C.ar   27  TRP27       0.0015
     30  N         21.6590   65.2320    3.0200 N.3    35  PHE35      -0.1241
     31  CA        21.7990   66.6160    3.4430 C.3    35  PHE35       0.1605
     32  C         21.4840   67.5320    2.2530 C.2    35  PHE35       0.2264
     33  O         20.6550   68.4550    2.3500 O.2    35  PHE35      -0.2867
     34  CB        23.2190   66.8450    3.9800 C.3    35  PHE35       0.0534
     35  CG        23.4740   68.2530    4.4860 C.ar   35  PHE35      -0.0203
     36  CD1       23.6810   69.2950    3.6050 C.ar   35  PHE35      -0.0042
     37  CD2       23.5270   68.5130    5.8670 C.ar   35  PHE35      -0.0042
     38  CE1       23.9280   70.5850    4.0630 C.ar   35  PHE35      -0.0003
     39  CE2       23.7800   69.7920    6.3480 C.ar   35  PHE35      -0.0003
     40  CZ        23.9840   70.8430    5.4510 C.ar   35  PHE35      -0.0000
     41  N         27.9560   80.0720    5.6920 N.3    46  LEU46      -0.1231
     42  CA        28.4370   79.8690    7.0560 C.3    46  LEU46       0.1678
     43  C         29.5590   80.8580    7.2710 C.2    46  LEU46       0.2434
     44  O         30.0840   81.4240    6.3030 O.2    46  LEU46      -0.2733
     45  CB        29.0210   78.4540    7.2320 C.3    46  LEU46       0.0284
     46  CG        28.2290   77.2810    6.6680 C.3    46  LEU46       0.0019
     47  CD1       29.0870   76.0330    6.8900 C.3    46  LEU46       0.0001
     48  CD2       26.8540   77.1360    7.3400 C.3    46  LEU46       0.0001
     49  N         29.9560   81.0920    8.5340 N.am   47  PRO47      -0.2729
     50  CA        31.2170   81.8210    8.6400 C.3    47  PRO47       0.1401
     51  C         32.2930   81.1360    7.8220 C.2    47  PRO47       0.2269
     52  O         32.5410   79.9330    7.9370 O.2    47  PRO47      -0.2865
     53  CB        31.5550   81.7330   10.1290 C.3    47  PRO47       0.0296
     54  CG        30.1830   81.6010   10.7680 C.3    47  PRO47       0.0237
     55  CD        29.4510   80.6780    9.8550 C.3    47  PRO47       0.0939
     56  N         33.6970   67.8660   10.5170 N.3    68  TYR68      -0.1241
     57  CA        32.4340   67.5120   11.1610 C.3    68  TYR68       0.1605
     58  C         32.3670   66.0430   11.5230 C.2    68  TYR68       0.2264
     59  O         31.3280   65.5650   11.9830 O.2    68  TYR68      -0.2867
     60  CB        31.2290   67.8430   10.2810 C.3    68  TYR68       0.0534
     61  CG        31.1210   69.3080    9.8790 C.ar   68  TYR68      -0.0201
     62  CD1       31.5700   70.3220   10.7170 C.ar   68  TYR68      -0.0009
     63  CD2       30.5440   69.6680    8.6740 C.ar   68  TYR68      -0.0009
     64  CE1       31.4680   71.6640   10.3330 C.ar   68  TYR68       0.0417
     65  CE2       30.4410   71.0050    8.2750 C.ar   68  TYR68       0.0417
     66  CZ        30.8940   71.9970    9.1130 C.ar   68  TYR68       0.1957
     67  OH        30.8010   73.3290    8.7260 O.3    68  TYR68      -0.2866
     68  N         24.1390   67.4290   15.4620 N.3    73  VAL73      -0.1231
     69  CA        23.4560   68.7260   15.3640 C.3    73  VAL73       0.1692
     70  C         22.3370   68.7760   16.3690 C.2    73  VAL73       0.2592
     71  O         21.6260   67.7830   16.5700 O.2    73  VAL73      -0.2718
     72  CB        22.7490   68.8380   13.9810 C.3    73  VAL73       0.0266
     73  CG1       21.8000   70.0520   13.9370 C.3    73  VAL73       0.0020
     74  CG2       23.7350   68.8970   12.8980 C.3    73  VAL73       0.0020
     75  N         22.1590   69.9380   17.0120 N.am   74  ILE74      -0.1966
     76  CA        20.9990   70.1720   17.8820 C.3    74  ILE74       0.1727
     77  C         20.3660   71.5010   17.4810 C.2    74  ILE74       0.2616
     78  O         20.9820   72.3470   16.8260 O.2    74  ILE74      -0.2715
     79  CB        21.3830   70.2420   19.4050 C.3    74  ILE74       0.0290
     80  CG1       22.3010   71.4430   19.6610 C.3    74  ILE74       0.0022
     81  CG2       22.0740   68.9730   19.8640 C.3    74  ILE74       0.0023
     82  CD1       22.6170   71.6520   21.1620 C.3    74  ILE74       0.0001
     83  N         19.1010   71.7040   17.8370 N.am   75  GLY75      -0.1955
     84  CA        18.5020   72.9750   17.5000 C.3    75  GLY75       0.1869
     85  C         17.0430   73.0120   17.9000 C.2    75  GLY75       0.2309
     86  O         16.4350   71.9730   18.1490 O.2    75  GLY75      -0.2863
     87  N         16.2300   79.2500   13.7250 N.3    92  THR92      -0.1203
     88  CA        16.4680   78.3040   14.8270 C.3    92  THR92       0.1994
     89  C         17.7100   78.7100   15.6110 C.2    92  THR92       0.2618
     90  O         18.4960   79.5460   15.1470 O.2    92  THR92      -0.2717
     91  CB        16.7090   76.8470   14.2820 C.3    92  THR92       0.1784
     92  OG1       17.8830   76.8180   13.4430 O.3    92  THR92      -0.2211
     93  CG2       15.4900   76.3420   13.4890 C.3    92  THR92       0.0376
     94  N         17.8840   78.1420   16.8090 N.am   93  GLU93      -0.1965
     95  CA        19.1670   78.2650   17.4760 C.3    93  GLU93       0.1733
     96  C         19.6550   76.8820   17.9010 C.2    93  GLU93       0.2617
     97  O         18.8630   75.9850   18.1190 O.2    93  GLU93      -0.2715
     98  CB        19.0520   79.1580   18.6960 C.3    93  GLU93       0.0429
     99  CG        18.1460   78.5850   19.7620 C.3    93  GLU93       0.1163
    100  CD        18.0100   79.5430   20.9260 C.2    93  GLU93       0.3649
    101  OE1       18.8140   80.4910   20.9850 O.co2  93  GLU93      -0.2457
    102  OE2       17.1060   79.3600   21.7560 O.co2  93  GLU93      -0.2457
    103  N         20.9670   76.6970   17.9780 N.am   94  GLY94      -0.1940
    104  CA        21.5160   75.4090   18.3450 C.3    94  GLY94       0.2014
    105  C         22.9460   75.3500   17.8560 C.2    94  GLY94       0.2639
    106  O         23.7180   76.2550   18.1170 O.2    94  GLY94      -0.2714
    107  N         23.2950   74.2760   17.1600 N.am   95  GLY95      -0.1939
    108  CA        24.6520   74.1640   16.6630 C.3    95  GLY95       0.2014
    109  C         25.1990   72.7580   16.5980 C.2    95  GLY95       0.2638
    110  O         24.4460   71.7770   16.5450 O.2    95  GLY95      -0.2714
    111  N         26.5220   72.6760   16.6110 N.am   96  ILE96      -0.1977
    112  CA        27.2170   71.4260   16.3900 C.3    96  ILE96       0.1596
    113  C         27.9430   71.0220   17.6660 C.2    96  ILE96       0.2287
    114  O         28.6010   71.8450   18.3010 O.2    96  ILE96      -0.2864
    115  CB        28.1950   71.5740   15.2030 C.3    96  ILE96       0.0276
    116  CG1       28.9490   70.2800   14.9320 C.3    96  ILE96       0.0022
    117  CG2       29.1820   72.7130   15.4210 C.3    96  ILE96       0.0022
    118  CD1       29.9510   70.4380   13.8280 C.3    96  ILE96       0.0001
    119  N         25.1730   78.4500   17.1060 N.3   110  VAL110     -0.1245
    120  CA        24.7740   79.3630   16.0370 C.3   110  VAL110      0.1561
    121  C         23.2810   79.7140   16.0740 C.2   110  VAL110      0.2260
    122  O         22.4820   79.0550   16.7700 O.2   110  VAL110     -0.2867
    123  CB        25.0780   78.7470   14.6210 C.3   110  VAL110      0.0252
    124  CG1       26.5180   78.3100   14.5260 C.3   110  VAL110      0.0019
    125  CG2       24.1040   77.5680   14.3270 C.3   110  VAL110      0.0019
    126  N         20.3880   80.0810   12.9550 N.3   112  ALA112     -0.1245
    127  CA        20.3520   79.7310   11.5330 C.3   112  ALA112      0.1562
    128  C         19.0330   80.1420   10.9400 C.2   112  ALA112      0.2260
    129  O         18.0090   80.0540   11.6010 O.2   112  ALA112     -0.2867
    130  CB        20.5290   78.2260   11.3230 C.3   112  ALA112      0.0290
    131  N         16.4040   79.4280    7.6970 N.3   114  TRP114     -0.1241
    132  CA        16.0110   78.3950    6.7780 C.3   114  TRP114      0.1605
    133  C         14.9390   79.0330    5.9100 C.2   114  TRP114      0.2264
    134  O         13.7700   79.1470    6.3190 O.2   114  TRP114     -0.2867
    135  CB        15.4170   77.2040    7.5350 C.3   114  TRP114      0.0550
    136  CG        16.2750   76.6850    8.6380 C.ar  114  TRP114      0.0003
    137  CD1       16.5610   77.3090    9.8210 C.ar  114  TRP114      0.0946
    138  CD2       16.8860   75.4010    8.7020 C.ar  114  TRP114      0.0152
    139  NE1       17.3710   76.4940   10.6060 N.ar  114  TRP114     -0.2442
    140  CE2       17.5830   75.3230    9.9300 C.ar  114  TRP114      0.0810
    141  CE3       16.9510   74.3140    7.8280 C.ar  114  TRP114      0.0012
    142  CZ2       18.3030   74.1820   10.3170 C.ar  114  TRP114      0.0191
    143  CZ3       17.6800   73.2040    8.2010 C.ar  114  TRP114      0.0001
    144  CH2       18.3520   73.1430    9.4350 C.ar  114  TRP114      0.0015
    145  N         20.1580   78.5830    3.3050 N.3   128  TYR128     -0.1241
    146  CA        20.4550   78.3210    4.7000 C.3   128  TYR128      0.1605
    147  C         21.5930   79.2480    5.0420 C.2   128  TYR128      0.2264
    148  O         22.5450   79.3520    4.2530 O.2   128  TYR128     -0.2867
    149  CB        20.9160   76.8700    4.8830 C.3   128  TYR128      0.0534
    150  CG        21.4200   76.5970    6.2910 C.ar  128  TYR128     -0.0201
    151  CD1       20.5770   76.0790    7.2610 C.ar  128  TYR128     -0.0009
    152  CD2       22.7320   76.9090    6.6550 C.ar  128  TYR128     -0.0009
    153  CE1       21.0450   75.8430    8.5570 C.ar  128  TYR128      0.0417
    154  CE2       23.2100   76.6770    7.9430 C.ar  128  TYR128      0.0417
    155  CZ        22.3540   76.1700    8.8950 C.ar  128  TYR128      0.1957
    156  OH        22.8300   75.9460   10.1910 O.3   128  TYR128     -0.2866
    157  N         24.0470   80.4460    8.6880 N.3   130  ASN130     -0.1240
    158  CA        24.1430   80.5400   10.1210 C.3   130  ASN130      0.1653
    159  C         25.1990   81.5520   10.5300 C.2   130  ASN130      0.2266
    160  O         26.0830   81.9020    9.7300 O.2   130  ASN130     -0.2867
    161  CB        24.2570   79.1600   10.8100 C.3   130  ASN130      0.1155
    162  CG        25.6150   78.4640   10.6310 C.2   130  ASN130      0.2627
    163  OD1       26.6770   79.0990   10.5420 O.2   130  ASN130     -0.2716
    164  ND2       25.5920   77.1080   10.6770 N.am  130  ASN130     -0.0877
@<TRIPOS>BOND
     1    32    33    2
     2    32    31    1
     3    30    31    1
     4   145   146    1
     5    31    34    1
     6    36    38   ar
     7    36    35   ar
     8    34    35    1
     9    38    40   ar
    10   148   147    2
    11    35    37   ar
    12   146   149    1
    13   146   147    1
    14   149   150    1
    15    40    39   ar
    16    41    42    1
    17    15    13    1
    18    37    39   ar
    19   133   134    2
    20   133   132    1
    21   150   152   ar
    22   150   151   ar
    23    44    43    2
    24   152   154   ar
    25    46    47    1
    26    46    45    1
    27    46    48    1
    28   132   135    1
    29   132   131    1
    30    13    12    1
    31    42    45    1
    32    42    43    1
    33   151   153   ar
    34    43    49   am
    35   135   136    1
    36    51    52    2
    37    51    50    1
    38   141   143   ar
    39   141   138   ar
    40   154   155   ar
    41     8     9    1
    42   143   144   ar
    43     9    12    1
    44     9    10    1
    45    65    63   ar
    46    65    66   ar
    47    12    14    1
    48    49    50    1
    49    49    55    1
    50   153   155   ar
    51   136   138   ar
    52   136   137   ar
    53    50    53    1
    54    63    61   ar
    55   157   158    1
    56   138   140   ar
    57    67    66    1
    58   155   156    1
    59    66    64   ar
    60    16    17    1
    61    11    10    2
    62   144   142   ar
    63    28    26   ar
    64    28    29   ar
    65     1     7    1
    66     1     2    1
    67    26    23   ar
    68   160   159    2
    69    17    20    1
    70    17    18    1
    71   137   139   ar
    72    55    54    1
    73    61    60    1
    74    61    62   ar
    75   140   142   ar
    76   140   139   ar
    77     7     6    1
    78   158   159    1
    79   158   161    1
    80    53    54    1
    81    29    27   ar
    82    60    57    1
    83     2     3    1
    84     2     5    1
    85    64    62   ar
    86    56    57    1
    87   163   162    2
    88   162   164   am
    89   162   161    1
    90    23    21   ar
    91    23    25   ar
    92    20    21    1
    93     3     4    2
    94    18    19    2
    95   128   127    1
    96   128   129    2
    97     6     5    1
    98    21    22   ar
    99    27    25   ar
   100    57    58    1
   101   130   127    1
   102    25    24   ar
   103    58    59    2
   104   127   126    1
   105    22    24   ar
   106    74    72    1
   107    92    91    1
   108    93    91    1
   109    87    88    1
   110   118   116    1
   111    73    72    1
   112    72    69    1
   113    91    88    1
   114   125   123    1
   115   124   123    1
   116   123   120    1
   117    88    89    1
   118   116   115    1
   119    90    89    2
   120   115   117    1
   121   115   112    1
   122    69    68    1
   123    69    70    1
   124    89    94   am
   125   120   121    1
   126   120   119    1
   127   121   122    2
   128    70    71    2
   129    70    75   am
   130   112   111    1
   131   112   113    1
   132   110   109    2
   133   109   111   am
   134   109   108    1
   135   108   107    1
   136    94    95    1
   137    78    77    2
   138    75    76    1
   139   107   105   am
   140    95    96    1
   141    95    98    1
   142    77    83   am
   143    77    76    1
   144    84    83    1
   145    84    85    1
   146   113   114    2
   147   105   106    2
   148   105   104    1
   149    76    79    1
   150    85    86    2
   151    96   103   am
   152    96    97    2
   153   103   104    1
   154    98    99    1
   155    79    80    1
   156    79    81    1
   157    80    82    1
   158    99   100    1
   159   100   101   ar
   160   100   102   ar
