@<TRIPOS>MOLECULE
tmp/4i4sB00.pdb
 94 93 0 0 0
SMALL
GASTEIGER

@<TRIPOS>ATOM
      1  N         31.7120   -0.5170   73.0950 N.3   119  TYR119     -0.1241
      2  CA        32.9490   -1.2430   72.8500 C.3   119  TYR119      0.1605
      3  C         33.8010   -1.3360   74.1110 C.2   119  TYR119      0.2264
      4  O         33.6730   -0.5240   75.0330 O.2   119  TYR119     -0.2867
      5  CB        33.7530   -0.5990   71.7090 C.3   119  TYR119      0.0534
      6  CG        34.3720    0.7170   72.0950 C.ar  119  TYR119     -0.0201
      7  CD1       35.6100    0.7660   72.7360 C.ar  119  TYR119     -0.0009
      8  CD2       33.7170    1.9180   71.8320 C.ar  119  TYR119     -0.0009
      9  CE1       36.1730    1.9720   73.1170 C.ar  119  TYR119      0.0417
     10  CE2       34.2770    3.1320   72.1960 C.ar  119  TYR119      0.0417
     11  CZ        35.5010    3.1540   72.8390 C.ar  119  TYR119      0.1957
     12  OH        36.0490    4.3530   73.2120 O.3   119  TYR119     -0.2866
     13  N         38.0050   -2.1440   74.9460 N.3   121  ARG121     -0.1245
     14  CA        39.3590   -2.4220   74.4770 C.3   121  ARG121      0.1563
     15  C         40.3780   -2.0570   75.5550 C.2   121  ARG121      0.2260
     16  O         40.0440   -1.3790   76.5320 O.2   121  ARG121     -0.2867
     17  CB        39.6380   -1.6930   73.1520 C.3   121  ARG121      0.0307
     18  CG        39.6360   -0.1810   73.2650 C.3   121  ARG121      0.0489
     19  CD        39.5950    0.4930   71.9080 C.3   121  ARG121      0.2205
     20  NE        39.5980    1.9400   72.1050 N.pl3 121  ARG121     -0.0865
     21  CZ        39.0110    2.8280   71.3080 C.cat 121  ARG121      0.5346
     22  NH1       39.0770    4.1170   71.6170 N.pl3 121  ARG121      0.1354
     23  NH2       38.3740    2.4480   70.2090 N.pl3 121  ARG121      0.1354
     24  N         43.3200    2.0840   72.1970 N.3   124  PRO124     -0.2102
     25  CA        43.6630    3.3700   72.8100 C.3   124  PRO124      0.1504
     26  C         42.5510    3.8940   73.7110 C.2   124  PRO124      0.2576
     27  O         41.4810    3.2860   73.8000 O.2   124  PRO124     -0.2718
     28  CB        43.8480    4.3060   71.5990 C.3   124  PRO124      0.0282
     29  CG        43.7840    3.4380   70.3830 C.3   124  PRO124      0.0208
     30  CD        42.9810    2.2450   70.7740 C.3   124  PRO124      0.0893
     31  N         42.8150    5.0110   74.3830 N.am  125  ASP125     -0.1961
     32  CA        41.7980    5.6950   75.1680 C.3   125  ASP125      0.1825
     33  C         40.8120    6.4030   74.2310 C.2   125  ASP125      0.2464
     34  O         41.1960    6.8280   73.1440 O.2   125  ASP125     -0.2730
     35  CB        42.4480    6.7080   76.1180 C.3   125  ASP125      0.1450
     36  CG        43.1950    6.0490   77.2810 C.2   125  ASP125      0.3671
     37  OD1       42.9410    4.8700   77.5940 O.co2 125  ASP125     -0.2456
     38  OD2       44.0440    6.7270   77.8930 O.co2 125  ASP125     -0.2456
     39  N         39.5300    6.5040   74.6270 N.am  126  PRO126     -0.2727
     40  CA        38.9260    5.8970   75.8140 C.3   126  PRO126      0.1402
     41  C         38.7750    4.3940   75.6220 C.2   126  PRO126      0.2269
     42  O         38.4160    3.9360   74.5320 O.2   126  PRO126     -0.2865
     43  CB        37.5460    6.5660   75.9000 C.3   126  PRO126      0.0296
     44  CG        37.6050    7.7470   74.9860 C.3   126  PRO126      0.0237
     45  CD        38.5730    7.3610   73.9090 C.3   126  PRO126      0.0939
     46  N         31.1040    4.3370   73.4040 N.3   130  ASN130     -0.1225
     47  CA        30.2680    3.9760   72.2680 C.3   130  ASN130      0.1785
     48  C         30.8850    4.4420   70.9540 C.2   130  ASN130      0.2597
     49  O         31.8310    5.2370   70.9520 O.2   130  ASN130     -0.2718
     50  CB        28.8020    4.4250   72.4560 C.3   130  ASN130      0.1169
     51  CG        28.6360    5.9350   72.5340 C.2   130  ASN130      0.2627
     52  OD1       29.5300    6.7020   72.1830 O.2   130  ASN130     -0.2716
     53  ND2       27.4630    6.3680   72.9920 N.am  130  ASN130     -0.0877
     54  N         30.3550    3.9410   69.8430 N.am  131  TYR131     -0.1976
     55  CA        30.9860    4.1330   68.5460 C.3   131  TYR131      0.1639
     56  C         29.9890    3.9280   67.4140 C.2   131  TYR131      0.2290
     57  O         29.1810    2.9940   67.4490 O.2   131  TYR131     -0.2864
     58  CB        32.1610    3.1530   68.4070 C.3   131  TYR131      0.0560
     59  CG        32.7780    3.0890   67.0240 C.ar  131  TYR131     -0.0198
     60  CD1       33.7270    4.0290   66.6100 C.ar  131  TYR131     -0.0009
     61  CD2       32.4150    2.0820   66.1300 C.ar  131  TYR131     -0.0009
     62  CE1       34.2870    3.9660   65.3400 C.ar  131  TYR131      0.0417
     63  CE2       32.9710    2.0070   64.8640 C.ar  131  TYR131      0.0417
     64  CZ        33.9030    2.9470   64.4730 C.ar  131  TYR131      0.1957
     65  OH        34.4450    2.8600   63.2150 O.3   131  TYR131     -0.2866
     66  N         33.8240   -3.9260   64.4470 N.3   136  TYR136     -0.1241
     67  CA        35.0740   -4.3690   65.0560 C.3   136  TYR136      0.1605
     68  C         34.7560   -5.3470   66.1670 C.2   136  TYR136      0.2264
     69  O         33.7000   -5.2550   66.7950 O.2   136  TYR136     -0.2867
     70  CB        35.8670   -3.1800   65.6060 C.3   136  TYR136      0.0534
     71  CG        36.3460   -2.2510   64.5200 C.ar  136  TYR136     -0.0201
     72  CD1       37.4520   -2.5790   63.7340 C.ar  136  TYR136     -0.0009
     73  CD2       35.6790   -1.0550   64.2590 C.ar  136  TYR136     -0.0009
     74  CE1       37.8840   -1.7360   62.7240 C.ar  136  TYR136      0.0417
     75  CE2       36.1060   -0.2020   63.2530 C.ar  136  TYR136      0.0417
     76  CZ        37.2090   -0.5490   62.4890 C.ar  136  TYR136      0.1957
     77  OH        37.6460    0.2860   61.4860 O.3   136  TYR136     -0.2866
     78  N         35.9060   -5.6290   69.0930 N.3   138  ASP138     -0.1225
     79  CA        35.8380   -5.0540   70.4390 C.3   138  ASP138      0.1805
     80  C         34.4370   -4.5530   70.8010 C.2   138  ASP138      0.2597
     81  O         34.2090   -4.0870   71.9160 O.2   138  ASP138     -0.2718
     82  CB        36.9270   -3.9870   70.6630 C.3   138  ASP138      0.1424
     83  CG        36.7320   -2.7250   69.8270 C.2   138  ASP138      0.3668
     84  OD1       35.6910   -2.5560   69.1600 O.co2 138  ASP138     -0.2456
     85  OD2       37.6530   -1.8830   69.8640 O.co2 138  ASP138     -0.2456
     86  N         33.5080   -4.6870   69.8560 N.am  139  GLN139     -0.1979
     87  CA        32.1050   -4.3270   70.0560 C.3   139  GLN139      0.1601
     88  C         31.2440   -5.5320   70.4480 C.2   139  GLN139      0.2287
     89  O         30.0230   -5.4180   70.5440 O.2   139  GLN139     -0.2864
     90  CB        31.5410   -3.6910   68.7830 C.3   139  GLN139      0.0394
     91  CG        32.3610   -2.5120   68.2800 C.3   139  GLN139      0.0908
     92  CD        32.1050   -2.1680   66.8260 C.2   139  GLN139      0.2608
     93  OE1       31.3110   -2.8150   66.1430 O.2   139  GLN139     -0.2717
     94  NE2       32.7840   -1.1380   66.3440 N.am  139  GLN139     -0.0878
@<TRIPOS>BOND
     1    77    76    1
     2    76    74   ar
     3    76    75   ar
     4    74    72   ar
     5    65    64    1
     6    75    73   ar
     7    72    71   ar
     8    73    71   ar
     9    66    67    1
    10    64    63   ar
    11    64    62   ar
    12    71    70    1
    13    63    61   ar
    14    67    70    1
    15    67    68    1
    16    62    60   ar
    17    61    59   ar
    18    93    92    2
    19    68    69    2
    20    94    92   am
    21    60    59   ar
    22    92    91    1
    23    59    58    1
    24    56    57    2
    25    56    55    1
    26    91    90    1
    27    58    55    1
    28    55    54    1
    29    90    87    1
    30    78    79    1
    31    84    83   ar
    32    83    85   ar
    33    83    82    1
    34    54    48   am
    35    86    87    1
    36    86    80   am
    37    87    88    1
    38    23    21    1
    39    29    30    1
    40    29    28    1
    41    79    82    1
    42    79    80    1
    43    88    89    2
    44    30    24    1
    45    80    81    2
    46    49    48    2
    47    48    47    1
    48    21    22    1
    49    21    20    2
    50    28    25    1
    51     5     6    1
    52     5     2    1
    53     8     6   ar
    54     8    10   ar
    55    19    20    1
    56    19    18    1
    57     6     7   ar
    58    52    51    2
    59    10    11   ar
    60    24    25    1
    61    47    50    1
    62    47    46    1
    63    50    51    1
    64    51    53   am
    65     7     9   ar
    66    25    26    1
    67    11     9   ar
    68    11    12    1
    69     2     1    1
    70     2     3    1
    71    34    33    2
    72    17    18    1
    73    17    14    1
    74    26    27    2
    75    26    31   am
    76    45    39    1
    77    45    44    1
    78     3     4    2
    79    33    39   am
    80    33    32    1
    81    31    32    1
    82    14    13    1
    83    14    15    1
    84    42    41    2
    85    39    40    1
    86    44    43    1
    87    32    35    1
    88    15    16    2
    89    41    40    1
    90    40    43    1
    91    35    36    1
    92    36    37   ar
    93    36    38   ar
