@<TRIPOS>MOLECULE
tmp/4i4tA00.pdb
 200 187 0 0 0
SMALL
GASTEIGER

@<TRIPOS>ATOM
      1  N         29.0890   80.5520   48.6490 N.3    10  GLY10      -0.1210
      2  CA        28.0760   79.6480   48.1360 C.3    10  GLY10       0.1956
      3  C         26.7330   80.3380   48.0370 C.2    10  GLY10       0.2612
      4  O         26.5890   81.4800   48.4690 O.2    10  GLY10      -0.2717
      5  N         25.7250   79.6560   47.5190 N.am   11  GLN11      -0.1965
      6  CA        24.4310   80.2760   47.3100 C.3    11  GLN11       0.1733
      7  C         23.8140   80.8650   48.5780 C.2    11  GLN11       0.2616
      8  O         23.4050   82.0110   48.5930 O.2    11  GLN11      -0.2715
      9  CB        23.4380   79.2980   46.6940 C.3    11  GLN11       0.0408
     10  CG        22.0610   79.9050   46.5520 C.3    11  GLN11       0.0908
     11  CD        21.0800   79.0140   45.8430 C.2    11  GLN11       0.2608
     12  OE1       21.1780   78.7980   44.6560 O.2    11  GLN11      -0.2717
     13  NE2       20.1230   78.5150   46.5710 N.am   11  GLN11      -0.0878
     14  N         23.7160   80.0630   49.6210 N.am   12  ALA12      -0.1977
     15  CA        23.1050   80.5380   50.8730 C.3    12  ALA12       0.1597
     16  C         23.8770   81.7350   51.4030 C.2    12  ALA12       0.2287
     17  O         23.2840   82.7400   51.7950 O.2    12  ALA12      -0.2864
     18  CB        23.0880   79.4310   51.9260 C.3    12  ALA12       0.0319
     19  N         23.2100   84.8350   49.0880 N.3    15  GLN15      -0.1231
     20  CA        21.8380   85.3660   49.1270 C.3    15  GLN15       0.1698
     21  C         21.5410   86.0130   50.4830 C.2    15  GLN15       0.2592
     22  O         20.8780   87.0520   50.5530 O.2    15  GLN15      -0.2718
     23  CB        20.8000   84.2830   48.7740 C.3    15  GLN15       0.0381
     24  CG        20.9450   83.8260   47.2990 C.3    15  GLN15       0.0905
     25  CD        19.7970   82.9800   46.7480 C.2    15  GLN15       0.2608
     26  OE1       19.4810   83.0850   45.5670 O.2    15  GLN15      -0.2717
     27  NE2       19.2040   82.1190   47.5720 N.am   15  GLN15      -0.0878
     28  N         22.0560   85.4260   51.5570 N.am   16  ILE16      -0.1980
     29  CA        21.8430   85.9990   52.8720 C.3    16  ILE16       0.1595
     30  C         22.6330   87.3100   52.9830 C.2    16  ILE16       0.2287
     31  O         22.1350   88.3210   53.5190 O.2    16  ILE16      -0.2864
     32  CB        22.2370   85.0030   53.9810 C.3    16  ILE16       0.0276
     33  CG1       21.2060   83.8800   54.0610 C.3    16  ILE16       0.0022
     34  CG2       22.3330   85.7110   55.3310 C.3    16  ILE16       0.0022
     35  CD1       21.6930   82.6600   54.8640 C.3    16  ILE16       0.0001
     36  N         31.4090   82.1890   44.8740 N.3    69  ASP69      -0.1239
     37  CA        30.5910   81.0170   44.5640 C.3    69  ASP69       0.1674
     38  C         31.2530   80.3030   43.3910 C.2    69  ASP69       0.2266
     39  O         31.9540   80.9320   42.5980 O.2    69  ASP69      -0.2867
     40  CB        29.1410   81.4130   44.2370 C.3    69  ASP69       0.1410
     41  CG        28.1610   80.2390   44.3770 C.2    69  ASP69       0.3668
     42  OD1       26.9450   80.4090   44.0770 O.co2  69  ASP69      -0.2456
     43  OD2       28.6100   79.1470   44.7950 O.co2  69  ASP69      -0.2456
     44  N         29.8220   78.6710   40.9470 N.3    71  GLU71      -0.1245
     45  CA        29.1130   78.8650   39.6820 C.3    71  GLU71       0.1567
     46  C         28.5740   80.2950   39.6950 C.2    71  GLU71       0.2260
     47  O         28.5790   80.9360   40.7350 O.2    71  GLU71      -0.2867
     48  CB        28.0030   77.8300   39.5110 C.3    71  GLU71       0.0388
     49  CG        26.9960   77.7840   40.6570 C.3    71  GLU71       0.1160
     50  CD        25.6720   78.4480   40.3250 C.2    71  GLU71       0.3649
     51  OE1       24.7760   78.4550   41.1970 O.co2  71  GLU71      -0.2457
     52  OE2       25.5140   78.9490   39.1940 O.co2  71  GLU71      -0.2457
     53  N         29.9790   74.1300   39.7780 N.3    98  ASP98      -0.1225
     54  CA        29.9140   74.1630   41.2200 C.3    98  ASP98       0.1805
     55  C         30.3640   72.8490   41.8330 C.2    98  ASP98       0.2598
     56  O         30.8400   71.9470   41.1240 O.2    98  ASP98      -0.2718
     57  CB        28.5040   74.5660   41.6970 C.3    98  ASP98       0.1424
     58  CG        27.4350   73.5630   41.3200 C.2    98  ASP98       0.3668
     59  OD1       27.7350   72.3370   41.2020 O.co2  98  ASP98      -0.2456
     60  OD2       26.2740   74.0020   41.1490 O.co2  98  ASP98      -0.2456
     61  N         30.2230   72.7540   43.1530 N.am   99  ALA99      -0.1966
     62  CA        30.7340   71.6090   43.9010 C.3    99  ALA99       0.1728
     63  C         29.7210   70.4610   43.9680 C.2    99  ALA99       0.2616
     64  O         29.9410   69.4900   44.6840 O.2    99  ALA99      -0.2715
     65  CB        31.1390   72.0470   45.3110 C.3    99  ALA99       0.0334
     66  N         28.6080   70.5900   43.2490 N.am  100  ALA100     -0.1963
     67  CA        27.6370   69.4950   43.1160 C.3   100  ALA100      0.1728
     68  C         27.2450   68.8690   44.4770 C.2   100  ALA100      0.2616
     69  O         27.1480   67.6440   44.6140 O.2   100  ALA100     -0.2715
     70  CB        28.1890   68.4310   42.1390 C.3   100  ALA100      0.0334
     71  N         26.9650   69.7170   45.4480 N.am  101  ASN101     -0.1972
     72  CA        26.6320   69.2990   46.8280 C.3   101  ASN101      0.1688
     73  C         27.6150   68.3250   47.4530 C.2   101  ASN101      0.2292
     74  O         27.2560   67.4970   48.2550 O.2   101  ASN101     -0.2864
     75  CB        25.2360   68.7040   46.8500 C.3   101  ASN101      0.1181
     76  CG        24.1710   69.7520   46.6580 C.2   101  ASN101      0.2629
     77  OD1       24.2980   70.8500   47.1620 O.2   101  ASN101     -0.2716
     78  ND2       23.1410   69.4320   45.9110 N.am  101  ASN101     -0.0877
     79  N         26.2530   77.9990   53.9530 N.3   140  SER140     -0.1217
     80  CA        25.4800   76.8380   54.3620 C.3   140  SER140      0.1889
     81  C         26.4100   75.7200   54.8280 C.2   140  SER140      0.2288
     82  O         27.6020   75.6720   54.4780 O.2   140  SER140     -0.2866
     83  CB        24.6230   76.3020   53.2160 C.3   140  SER140      0.2089
     84  OG        25.4600   75.8540   52.1680 O.3   140  SER140     -0.2183
     85  N         25.2450   72.6580   54.1450 N.3   142  GLY142     -0.1210
     86  CA        24.8070   71.5710   53.2810 C.3   142  GLY142      0.1956
     87  C         25.3340   71.5800   51.8410 C.2   142  GLY142      0.2612
     88  O         25.4430   70.5280   51.2070 O.2   142  GLY142     -0.2717
     89  N         25.6250   72.7650   51.3220 N.am  143  GLY143     -0.1942
     90  CA        26.1390   72.8920   49.9740 C.3   143  GLY143      0.2014
     91  C         27.5830   72.4350   49.8820 C.2   143  GLY143      0.2639
     92  O         28.3160   72.4170   50.8710 O.2   143  GLY143     -0.2714
     93  N         28.0030   72.0520   48.6800 N.am  144  GLY144     -0.1939
     94  CA        29.3820   71.6720   48.4590 C.3   144  GLY144      0.2014
     95  C         30.3380   72.8400   48.5990 C.2   144  GLY144      0.2640
     96  O         31.4530   72.6530   49.0720 O.2   144  GLY144     -0.2714
     97  N         29.9150   74.0320   48.1650 N.am  145  THR145     -0.1936
     98  CA        30.7650   75.2250   48.2650 C.3   145  THR145      0.2028
     99  C         30.7140   75.7530   49.6940 C.2   145  THR145      0.2642
    100  O         31.7510   75.9390   50.3260 O.2   145  THR145     -0.2714
    101  CB        30.3580   76.3110   47.2440 C.3   145  THR145      0.1808
    102  OG1       30.5140   75.7740   45.9150 O.3   145  THR145     -0.2208
    103  CG2       31.2310   77.5570   47.3850 C.3   145  THR145      0.0379
    104  N         29.5130   75.9410   50.2180 N.am  146  GLY146     -0.1954
    105  CA        29.3610   76.4130   51.5970 C.3   146  GLY146      0.1869
    106  C         30.0880   75.5600   52.6200 C.2   146  GLY146      0.2309
    107  O         30.6320   76.0810   53.5990 O.2   146  GLY146     -0.2863
    108  N         24.2420   78.0930   57.9990 N.3   171  ILE171     -0.1245
    109  CA        22.8860   77.6020   57.7990 C.3   171  ILE171      0.1561
    110  C         22.8330   76.0920   57.9230 C.2   171  ILE171      0.2260
    111  O         23.3750   75.3540   57.0930 O.2   171  ILE171     -0.2867
    112  CB        22.3050   78.0120   56.4400 C.3   171  ILE171      0.0252
    113  CG1       22.3960   79.5340   56.2710 C.3   171  ILE171      0.0019
    114  CG2       20.8540   77.5350   56.3220 C.3   171  ILE171      0.0019
    115  CD1       21.8150   80.3230   57.4700 C.3   171  ILE171      0.0001
    116  N         21.0810   72.4030   57.9460 N.3   173  PRO173     -0.2102
    117  CA        20.1650   71.8400   56.9420 C.3   173  PRO173      0.1504
    118  C         18.8270   71.3420   57.4700 C.2   173  PRO173      0.2575
    119  O         18.7300   70.7220   58.5470 O.2   173  PRO173     -0.2718
    120  CB        20.9700   70.6610   56.3590 C.3   173  PRO173      0.0282
    121  CG        21.8400   70.2240   57.5210 C.3   173  PRO173      0.0208
    122  CD        22.2180   71.5120   58.2270 C.3   173  PRO173      0.0893
    123  N         17.8020   71.5910   56.6610 N.am  174  ALA174     -0.1980
    124  CA        16.4270   71.2120   56.9560 C.3   174  ALA174      0.1597
    125  C         15.7860   70.6520   55.6890 C.2   174  ALA174      0.2287
    126  O         15.6950   71.3420   54.6850 O.2   174  ALA174     -0.2864
    127  CB        15.6380   72.4280   57.4340 C.3   174  ALA174      0.0319
    128  N         13.4740   72.5120   53.0360 N.3   177  VAL177     -0.1231
    129  CA        14.0070   73.2880   51.9320 C.3   177  VAL177      0.1692
    130  C         15.3420   72.7960   51.3840 C.2   177  VAL177      0.2593
    131  O         15.9130   73.4410   50.5330 O.2   177  VAL177     -0.2718
    132  CB        14.1560   74.7740   52.3010 C.3   177  VAL177      0.0266
    133  CG1       12.8010   75.4030   52.5390 C.3   177  VAL177      0.0020
    134  CG2       15.0490   74.9430   53.5080 C.3   177  VAL177      0.0020
    135  N         15.8330   71.6600   51.8440 N.am  178  SER178     -0.1938
    136  CA        17.1530   71.2040   51.4180 C.3   178  SER178      0.2055
    137  C         17.1310   70.6340   50.0270 C.2   178  SER178      0.2643
    138  O         16.1060   70.2330   49.5260 O.2   178  SER178     -0.2714
    139  CB        17.7390   70.1610   52.3840 C.3   178  SER178      0.2130
    140  OG        17.2480   68.8610   52.0640 O.3   178  SER178     -0.2179
    141  N         18.3040   70.6080   49.4180 N.am  179  THR179     -0.1950
    142  CA        18.4500   70.2250   48.0290 C.3   179  THR179      0.1897
    143  C         19.3930   69.0430   47.8220 C.2   179  THR179      0.2313
    144  O         19.7290   68.7290   46.6840 O.2   179  THR179     -0.2863
    145  CB        18.9750   71.4100   47.2140 C.3   179  THR179      0.1794
    146  OG1       19.9520   72.1090   47.9800 O.3   179  THR179     -0.2208
    147  CG2       17.8580   72.3620   46.8810 C.3   179  THR179      0.0378
    148  N         23.5450   66.1980   52.7600 N.3   183  GLU183     -0.1245
    149  CA        23.8390   67.3700   53.5670 C.3   183  GLU183      0.1567
    150  C         24.3700   67.0570   54.9690 C.2   183  GLU183      0.2260
    151  O         25.2120   67.7790   55.4540 O.2   183  GLU183     -0.2867
    152  CB        22.6620   68.3490   53.5840 C.3   183  GLU183      0.0388
    153  CG        22.4510   69.0160   52.2310 C.3   183  GLU183      0.1160
    154  CD        21.5710   70.2480   52.2440 C.2   183  GLU183      0.3649
    155  OE1       20.9120   70.4890   51.2280 O.co2 183  GLU183     -0.2457
    156  OE2       21.5530   70.9900   53.2330 O.co2 183  GLU183     -0.2457
    157  N         17.3840   76.1150   59.1500 N.3   206  ASN206     -0.1240
    158  CA        16.3240   76.4670   58.2240 C.3   206  ASN206      0.1653
    159  C         14.9490   75.9860   58.6870 C.2   206  ASN206      0.2266
    160  O         13.9310   76.5990   58.3510 O.2   206  ASN206     -0.2867
    161  CB        16.6220   75.9500   56.8010 C.3   206  ASN206      0.1155
    162  CG        17.3820   76.9640   55.9600 C.2   206  ASN206      0.2627
    163  OD1       17.4560   78.1390   56.3120 O.2   206  ASN206     -0.2716
    164  ND2       17.9470   76.5110   54.8270 N.am  206  ASN206     -0.0877
    165  N         13.2320   81.2850   49.9130 N.3   224  TYR224     -0.1241
    166  CA        14.4910   81.7620   50.4540 C.3   224  TYR224      0.1605
    167  C         14.4210   83.2590   50.6670 C.2   224  TYR224      0.2264
    168  O         15.0560   83.7780   51.5580 O.2   224  TYR224     -0.2867
    169  CB        15.6850   81.4340   49.5530 C.3   224  TYR224      0.0534
    170  CG        16.1130   79.9840   49.5070 C.ar  224  TYR224     -0.0201
    171  CD1       16.3910   79.3790   48.2990 C.ar  224  TYR224     -0.0009
    172  CD2       16.2480   79.2240   50.6540 C.ar  224  TYR224     -0.0009
    173  CE1       16.7870   78.0690   48.2340 C.ar  224  TYR224      0.0417
    174  CE2       16.6410   77.9070   50.5890 C.ar  224  TYR224      0.0417
    175  CZ        16.9070   77.3410   49.3760 C.ar  224  TYR224      0.1957
    176  OH        17.2980   76.0400   49.3100 O.3   224  TYR224     -0.2866
    177  N         12.7920   83.6080   54.0350 N.3   227  LEU227     -0.1231
    178  CA        13.7500   83.1580   55.0360 C.3   227  LEU227      0.1693
    179  C         14.8840   84.1640   55.2400 C.2   227  LEU227      0.2592
    180  O         15.2530   84.4630   56.3680 O.2   227  LEU227     -0.2718
    181  CB        14.3750   81.7980   54.6470 C.3   227  LEU227      0.0284
    182  CG        13.4290   80.6050   54.5140 C.3   227  LEU227      0.0019
    183  CD1       14.2360   79.3150   54.3210 C.3   227  LEU227      0.0001
    184  CD2       12.5020   80.5030   55.7210 C.3   227  LEU227      0.0001
    185  N         15.4420   84.6770   54.1470 N.am  228  ASN228     -0.1974
    186  CA        16.6530   85.4950   54.2370 C.3   228  ASN228      0.1688
    187  C         16.3890   86.8890   54.8000 C.2   228  ASN228      0.2292
    188  O         17.2620   87.4670   55.4480 O.2   228  ASN228     -0.2864
    189  CB        17.3230   85.6140   52.8770 C.3   228  ASN228      0.1181
    190  CG        17.8730   84.2850   52.3900 C.2   228  ASN228      0.2629
    191  OD1       18.0150   83.3410   53.1670 O.2   228  ASN228     -0.2716
    192  ND2       18.1730   84.2050   51.0970 N.am  228  ASN228     -0.0877
    193  N         16.3630   86.1720   58.4860 N.3   231  ILE231     -0.1245
    194  CA        17.7370   85.9260   58.9180 C.3   231  ILE231      0.1561
    195  C         18.5360   87.2260   58.9580 C.2   231  ILE231      0.2260
    196  O         19.2840   87.4580   59.9090 O.2   231  ILE231     -0.2867
    197  CB        18.4670   84.9140   58.0050 C.3   231  ILE231      0.0252
    198  CG1       17.7820   83.5370   58.0920 C.3   231  ILE231      0.0019
    199  CG2       19.9240   84.7980   58.4150 C.3   231  ILE231      0.0019
    200  CD1       18.2520   82.5400   56.9400 C.3   231  ILE231      0.0001
@<TRIPOS>BOND
     1    52    50   ar
     2    48    45    1
     3    48    49    1
     4    45    46    1
     5    45    44    1
     6    46    47    2
     7    53    54    1
     8    50    49    1
     9    50    51   ar
    10    56    55    2
    11    60    58   ar
    12    59    58   ar
    13    54    57    1
    14    54    55    1
    15    58    57    1
    16    55    61   am
    17    70    67    1
    18    39    38    2
    19    67    66    1
    20    67    68    1
    21    61    62    1
    22    66    63   am
    23    38    37    1
    24    62    63    1
    25    62    65    1
    26    63    64    2
    27    42    41   ar
    28    40    41    1
    29    40    37    1
    30    41    43   ar
    31    68    69    2
    32    68    71   am
    33    37    36    1
    34    12    11    2
    35    71    72    1
    36    26    25    2
    37    11    10    1
    38    11    13   am
    39    78    76   am
    40   102   101    1
    41    10     9    1
    42    76    75    1
    43    76    77    2
    44   144   143    2
    45     9     6    1
    46    25    24    1
    47    25    27   am
    48    72    75    1
    49    72    73    1
    50   147   145    1
    51   145   146    1
    52   145   142    1
    53   101   103    1
    54   101    98    1
    55    24    23    1
    56     6     5    1
    57     6     7    1
    58    73    74    2
    59     5     3   am
    60   143   142    1
    61   142   141    1
    62     3     2    1
    63     3     4    2
    64     2     1    1
    65    97    98    1
    66    97    95   am
    67   173   171   ar
    68   173   175   ar
    69    98    99    1
    70   171   170   ar
    71    94    95    1
    72    94    93    1
    73     7     8    2
    74     7    14   am
    75    95    96    2
    76    93    91   am
    77    23    20    1
    78    19    20    1
    79    20    21    1
    80   176   175    1
    81   175   174   ar
    82   141   137   am
    83   170   169    1
    84   170   172   ar
    85   138   137    2
    86   169   166    1
    87    14    15    1
    88    99   104   am
    89    99   100    2
    90    91    90    1
    91    91    92    2
    92   165   166    1
    93    90    89    1
    94   137   136    1
    95   104   105    1
    96   166   167    1
    97    21    22    2
    98    21    28   am
    99   131   130    2
   100   174   172   ar
   101   167   168    2
   102    15    16    1
   103    15    18    1
   104   192   190   am
   105    88    87    2
   106   155   154   ar
   107    89    87   am
   108   130   135   am
   109   130   129    1
   110    16    17    2
   111   136   135    1
   112   136   139    1
   113    28    29    1
   114   105   106    1
   115    87    86    1
   116   129   132    1
   117   129   128    1
   118   140   139    1
   119    84    83    1
   120   153   154    1
   121   153   152    1
   122   154   156   ar
   123   132   133    1
   124   132   134    1
   125   190   189    1
   126   190   191    2
   127   106   107    2
   128   148   149    1
   129    29    30    1
   130    29    32    1
   131   189   186    1
   132    30    31    2
   133    83    80    1
   134    86    85    1
   135   149   152    1
   136   149   150    1
   137    79    80    1
   138    32    33    1
   139    32    34    1
   140   177   178    1
   141    33    35    1
   142   185   186    1
   143   185   179   am
   144   186   187    1
   145   183   182    1
   146    80    81    1
   147    82    81    2
   148   182   181    1
   149   182   184    1
   150   181   178    1
   151   126   125    2
   152   187   188    2
   153   164   162   am
   154   150   151    2
   155   178   179    1
   156   179   180    2
   157   125   124    1
   158   162   163    2
   159   162   161    1
   160   113   112    1
   161   113   115    1
   162   114   112    1
   163   120   117    1
   164   120   121    1
   165   112   109    1
   166   123   124    1
   167   123   118   am
   168   161   158    1
   169   200   198    1
   170   117   118    1
   171   117   116    1
   172   124   127    1
   173   111   110    2
   174   118   119    2
   175   121   122    1
   176   109   110    1
   177   109   108    1
   178   116   122    1
   179   197   198    1
   180   197   199    1
   181   197   194    1
   182   158   159    1
   183   158   157    1
   184   160   159    2
   185   193   194    1
   186   194   195    1
   187   195   196    2
