@<TRIPOS>MOLECULE
tmp/4i4tF00.pdb
 204 190 0 0 0
SMALL
GASTEIGER

@<TRIPOS>ATOM
      1  N         15.0140   58.9950   94.3170 N.3    74  LYS74      -0.1245
      2  CA        14.9830   59.1840   95.7570 C.3    74  LYS74       0.1561
      3  C         15.5650   60.5190   96.1990 C.2    74  LYS74       0.2260
      4  O         14.9010   61.2950   96.8570 O.2    74  LYS74      -0.2867
      5  CB        15.7360   58.0590   96.4570 C.3    74  LYS74       0.0271
      6  CG        15.0590   56.7000   96.3650 C.3    74  LYS74       0.0035
      7  CD        13.6260   56.7630   96.8590 C.3    74  LYS74       0.0206
      8  CE        13.1520   55.4030   97.3090 C.3    74  LYS74       0.1093
      9  NZ        13.1560   54.4250   96.2000 N.3    74  LYS74      -0.1314
     10  N         15.2500   55.3820  108.1240 N.3   129  ILE129     -0.1245
     11  CA        15.3720   54.3710  107.1070 C.3   129  ILE129      0.1561
     12  C         16.2910   54.8740  106.0130 C.2   129  ILE129      0.2260
     13  O         16.0850   55.9300  105.4430 O.2   129  ILE129     -0.2867
     14  CB        14.0170   53.9900  106.5150 C.3   129  ILE129      0.0252
     15  CG1       14.2000   52.8770  105.5030 C.3   129  ILE129      0.0019
     16  CG2       13.3560   55.1930  105.8640 C.3   129  ILE129      0.0019
     17  CD1       12.9060   52.2850  105.0200 C.3   129  ILE129      0.0001
     18  N         17.8410   54.4710  102.3300 N.3   131  LYS131     -0.1231
     19  CA        17.4620   53.8850  101.0590 C.3   131  LYS131      0.1693
     20  C         18.0360   54.6860   99.9050 C.2   131  LYS131      0.2592
     21  O         18.5480   55.7730  100.1010 O.2   131  LYS131     -0.2718
     22  CB        15.9370   53.7870  100.9460 C.3   131  LYS131      0.0285
     23  CG        15.1890   55.0440  101.3360 C.3   131  LYS131      0.0035
     24  CD        13.6850   54.8610  101.2320 C.3   131  LYS131      0.0206
     25  CE        12.9400   56.1070  101.6890 C.3   131  LYS131      0.1093
     26  NZ        11.5610   56.1420  101.1480 N.3   131  LYS131     -0.1314
     27  N         17.9700   54.1260   98.7040 N.am  132  SER132     -0.1952
     28  CA        18.4150   54.8360   97.5120 C.3   132  SER132      0.1924
     29  C         17.5820   54.4100   96.3170 C.2   132  SER132      0.2314
     30  O         16.6880   53.5740   96.4410 O.2   132  SER132     -0.2863
     31  CB        19.8900   54.5530   97.2320 C.3   132  SER132      0.2116
     32  OG        20.0620   53.2940   96.6030 O.3   132  SER132     -0.2180
     33  N         18.2700   50.6810   95.0370 N.3   135  GLY135     -0.1225
     34  CA        17.7980   49.5880   95.8670 C.3   135  GLY135      0.1811
     35  C         17.0410   48.5330   95.0830 C.2   135  GLY135      0.2280
     36  O         15.8150   48.4570   95.1560 O.2   135  GLY135     -0.2866
     37  N         14.8630   46.2270   94.0540 N.3   137  LYS137     -0.1245
     38  CA        13.7380   45.5710   94.7130 C.3   137  LYS137      0.1561
     39  C         13.8270   45.6380   96.2450 C.2   137  LYS137      0.2260
     40  O         13.7060   46.7190   96.8320 O.2   137  LYS137     -0.2867
     41  CB        13.6090   44.1210   94.2300 C.3   137  LYS137      0.0271
     42  CG        13.0370   43.9790   92.8220 C.3   137  LYS137      0.0035
     43  CD        11.6510   44.6090   92.7130 C.3   137  LYS137      0.0206
     44  CE        10.9060   44.1420   91.4670 C.3   137  LYS137      0.1093
     45  NZ        11.5750   44.5450   90.1970 N.3   137  LYS137     -0.1314
     46  N         18.1960   48.4890  101.6940 N.3   141  ILE141     -0.1245
     47  CA        17.4640   49.2330  102.7020 C.3   141  ILE141      0.1561
     48  C         17.8810   48.8570  104.1140 C.2   141  ILE141      0.2260
     49  O         18.1310   47.6980  104.4070 O.2   141  ILE141     -0.2867
     50  CB        15.9600   48.9940  102.5590 C.3   141  ILE141      0.0252
     51  CG1       15.4660   49.5800  101.2490 C.3   141  ILE141      0.0019
     52  CG2       15.2120   49.6120  103.7210 C.3   141  ILE141      0.0019
     53  CD1       14.0950   49.1000  100.8500 C.3   141  ILE141      0.0001
     54  N         15.6150   58.9180  105.8640 N.3   164  GLN164     -0.1231
     55  CA        14.2880   59.4800  105.9940 C.3   164  GLN164      0.1698
     56  C         13.6150   59.0200  107.2630 C.2   164  GLN164      0.2592
     57  O         13.7220   57.8790  107.6340 O.2   164  GLN164     -0.2718
     58  CB        13.4520   59.0540  104.8000 C.3   164  GLN164      0.0381
     59  CG        12.0200   59.5270  104.8340 C.3   164  GLN164      0.0905
     60  CD        11.2960   59.1650  103.5670 C.2   164  GLN164      0.2608
     61  OE1       10.8600   58.0520  103.4010 O.2   164  GLN164     -0.2717
     62  NE2       11.1840   60.1100  102.6610 N.am  164  GLN164     -0.0878
     63  N         12.8940   59.8980  107.9330 N.am  165  LYS165     -0.1966
     64  CA        12.2470   59.4740  109.1490 C.3   165  LYS165      0.1728
     65  C         11.3440   58.2910  108.8680 C.2   165  LYS165      0.2616
     66  O         10.5460   58.3260  107.9540 O.2   165  LYS165     -0.2715
     67  CB        11.4340   60.5950  109.7770 C.3   165  LYS165      0.0311
     68  CG        10.7760   60.1940  111.0920 C.3   165  LYS165      0.0038
     69  CD        11.7920   60.1340  112.2230 C.3   165  LYS165      0.0206
     70  CE        11.2140   59.6330  113.5320 C.3   165  LYS165      0.1093
     71  NZ        10.7000   58.2320  113.4010 N.3   165  LYS165     -0.1314
     72  N         11.4670   57.2440  109.6690 N.am  166  TYR166     -0.1960
     73  CA        10.6570   56.0570  109.5060 C.3   166  TYR166      0.1771
     74  C          9.3450   56.2120  110.2720 C.2   166  TYR166      0.2619
     75  O          9.3530   56.5460  111.4340 O.2   166  TYR166     -0.2715
     76  CB        11.4420   54.8400  109.9980 C.3   166  TYR166      0.0574
     77  CG        10.7310   53.5470  109.7900 C.ar  166  TYR166     -0.0198
     78  CD1       10.6970   52.9530  108.5500 C.ar  166  TYR166     -0.0009
     79  CD2       10.0900   52.9230  110.8300 C.ar  166  TYR166     -0.0009
     80  CE1       10.0380   51.7700  108.3550 C.ar  166  TYR166      0.0417
     81  CE2        9.4270   51.7410  110.6430 C.ar  166  TYR166      0.0417
     82  CZ         9.4100   51.1760  109.4020 C.ar  166  TYR166      0.1957
     83  OH         8.7530   50.0120  109.1960 O.3   166  TYR166     -0.2866
     84  N          8.2180   55.9840  109.6140 N.am  167  LEU167     -0.1977
     85  CA         6.9170   56.1730  110.2420 C.3   167  LEU167      0.1596
     86  C          6.6250   55.0660  111.2390 C.2   167  LEU167      0.2287
     87  O          6.2920   53.9600  110.8550 O.2   167  LEU167     -0.2864
     88  CB         5.7970   56.2310  109.2020 C.3   167  LEU167      0.0297
     89  CG         5.6780   57.5230  108.3840 C.3   167  LEU167      0.0022
     90  CD1        5.1800   58.6650  109.2530 C.3   167  LEU167      0.0001
     91  CD2        7.0160   57.8810  107.7810 C.3   167  LEU167      0.0001
     92  N          1.0190   46.2080  108.1670 N.3   179  LYS179     -0.1245
     93  CA         1.3440   47.3970  107.4180 C.3   179  LYS179      0.1561
     94  C          0.9350   47.2630  105.9620 C.2   179  LYS179      0.2260
     95  O          0.6800   46.1780  105.4790 O.2   179  LYS179     -0.2867
     96  CB         2.8410   47.6070  107.5290 C.3   179  LYS179      0.0271
     97  CG         3.3650   48.9350  107.0490 C.3   179  LYS179      0.0035
     98  CD         4.8200   49.0610  107.4570 C.3   179  LYS179      0.0206
     99  CE         5.5510   50.0690  106.6030 C.3   179  LYS179      0.1093
    100  NZ         6.9520   50.2210  107.1330 N.3   179  LYS179     -0.1314
    101  N          1.1470   49.8680  101.9670 N.3   181  ASP181     -0.1239
    102  CA         1.3540   51.1500  101.3200 C.3   181  ASP181      0.1674
    103  C          0.3570   51.2560  100.1790 C.2   181  ASP181      0.2266
    104  O         -0.1510   50.2720   99.7260 O.2   181  ASP181     -0.2867
    105  CB         2.7930   51.2860  100.8310 C.3   181  ASP181      0.1410
    106  CG         3.0340   50.5730   99.5380 C.2   181  ASP181      0.3668
    107  OD1        2.7550   51.1700   98.4960 O.co2 181  ASP181     -0.2456
    108  OD2        3.5230   49.4350   99.5520 O.co2 181  ASP181     -0.2456
    109  N         -0.6440   52.4150   96.3090 N.3   183  ARG183     -0.1245
    110  CA        -0.1620   52.7960   95.0000 C.3   183  ARG183      0.1563
    111  C         -1.2940   53.4380   94.2180 C.2   183  ARG183      0.2260
    112  O         -2.3660   52.8790   94.0910 O.2   183  ARG183     -0.2867
    113  CB         0.3920   51.5780   94.2480 C.3   183  ARG183      0.0307
    114  CG         0.4050   51.7040   92.7360 C.3   183  ARG183      0.0489
    115  CD         1.2930   52.8370   92.2630 C.3   183  ARG183      0.2205
    116  NE         2.7330   52.5370   92.3640 N.pl3 183  ARG183     -0.0865
    117  CZ         3.3970   51.7030   91.5640 C.cat 183  ARG183      0.5346
    118  NH1        2.7900   51.0630   90.5730 N.pl3 183  ARG183      0.1354
    119  NH2        4.6910   51.5080   91.7460 N.pl3 183  ARG183      0.1354
    120  N         -0.6930   47.4850   98.7390 N.3   203  ARG203     -0.1245
    121  CA         0.2250   46.3780   98.7900 C.3   203  ARG203      0.1563
    122  C          0.5590   46.1130  100.2480 C.2   203  ARG203      0.2260
    123  O          1.2090   46.9080  100.9060 O.2   203  ARG203     -0.2867
    124  CB         1.4660   46.6690   97.9580 C.3   203  ARG203      0.0307
    125  CG         1.1750   46.7280   96.4520 C.3   203  ARG203      0.0489
    126  CD         0.8320   48.1350   95.9970 C.3   203  ARG203      0.2205
    127  NE         1.9680   49.0110   96.3140 N.pl3 203  ARG203     -0.0865
    128  CZ         3.1170   49.0750   95.6350 C.cat 203  ARG203      0.5346
    129  NH1        4.0700   49.8860   96.0540 N.pl3 203  ARG203      0.1354
    130  NH2        3.3290   48.3450   94.5380 N.pl3 203  ARG203      0.1354
    131  N          7.9300   44.9240  107.8930 N.3   220  HIS220     -0.1226
    132  CA         8.2950   46.3200  107.7800 C.3   220  HIS220      0.1752
    133  C          8.3520   46.8530  106.3740 C.2   220  HIS220      0.2596
    134  O          8.1620   48.0550  106.1540 O.2   220  HIS220     -0.2718
    135  CB         9.6310   46.5720  108.4540 C.3   220  HIS220      0.0759
    136  CG         9.5620   46.6130  109.9580 C.ar  220  HIS220      0.0818
    137  ND1        8.7350   47.4220  110.6260 N.ar  220  HIS220     -0.2268
    138  CD2       10.2770   45.9120  110.9150 C.ar  220  HIS220      0.1154
    139  CE1        8.9030   47.2430  111.9410 C.ar  220  HIS220      0.1986
    140  NE2        9.8470   46.3210  112.1150 N.ar  220  HIS220     -0.2212
    141  N          8.6270   45.9930  105.4080 N.am  221  LEU221     -0.1966
    142  CA         8.6860   46.4010  104.0170 C.3   221  LEU221      0.1728
    143  C          7.5800   45.7150  103.2310 C.2   221  LEU221      0.2617
    144  O          7.4770   44.4990  103.2450 O.2   221  LEU221     -0.2715
    145  CB        10.0390   46.0600  103.4170 C.3   221  LEU221      0.0311
    146  CG        11.2420   46.6210  104.1530 C.3   221  LEU221      0.0022
    147  CD1       12.5120   46.1730  103.4650 C.3   221  LEU221      0.0001
    148  CD2       11.1850   48.1370  104.2170 C.3   221  LEU221      0.0001
    149  N          6.7490   46.4970  102.5520 N.am  222  THR222     -0.1937
    150  CA         5.5520   45.9720  101.9210 C.3   222  THR222      0.2028
    151  C          5.7690   45.6150  100.4620 C.2   222  THR222      0.2642
    152  O          4.8310   45.3020   99.7530 O.2   222  THR222     -0.2714
    153  CB         4.3940   46.9690  102.0230 C.3   222  THR222      0.1808
    154  OG1        4.7340   48.1600  101.3120 O.3   222  THR222     -0.2208
    155  CG2        4.1210   47.3120  103.4670 C.3   222  THR222      0.0379
    156  N          7.0190   45.6440  100.0310 N.am  223  ASN223     -0.1971
    157  CA         7.3680   45.2480   98.6790 C.3   223  ASN223      0.1688
    158  C          6.7420   43.9010   98.3430 C.2   223  ASN223      0.2292
    159  O          6.7830   42.9810   99.1460 O.2   223  ASN223     -0.2864
    160  CB         8.8770   45.1310   98.5270 C.3   223  ASN223      0.1181
    161  CG         9.6030   46.4190   98.8200 C.2   223  ASN223      0.2629
    162  OD1        9.6860   46.8580   99.9590 O.2   223  ASN223     -0.2716
    163  ND2       10.1690   47.0160   97.7860 N.am  223  ASN223     -0.0877
    164  N          3.3490   56.3540   95.5790 N.3   299  ASP299     -0.1239
    165  CA         3.2440   55.4200   96.6800 C.3   299  ASP299      0.1674
    166  C          3.0920   56.2370   97.9240 C.2   299  ASP299      0.2266
    167  O          3.8040   57.1710   98.0970 O.2   299  ASP299     -0.2867
    168  CB         4.5190   54.6100   96.8380 C.3   299  ASP299      0.1410
    169  CG         4.7590   53.6700   95.7070 C.2   299  ASP299      0.3668
    170  OD1        3.8180   53.3810   94.9620 O.co2 299  ASP299     -0.2456
    171  OD2        5.9050   53.2290   95.5820 O.co2 299  ASP299     -0.2456
    172  N          2.1110   56.1810  102.3680 N.3   301  MET301     -0.1245
    173  CA         1.9330   55.5170  103.6520 C.3   301  MET301      0.1570
    174  C          0.8140   56.2230  104.3900 C.2   301  MET301      0.2261
    175  O          0.6380   57.4140  104.2330 O.2   301  MET301     -0.2867
    176  CB         3.1920   55.6230  104.4990 C.3   301  MET301      0.0387
    177  CG         4.3100   54.6740  104.1240 C.3   301  MET301      0.0595
    178  SD         3.9330   52.9200  104.3350 S.3   301  MET301     -0.1393
    179  CE         2.9920   52.9560  105.8480 C.3   301  MET301      0.0692
    180  N          5.7320   58.6630   99.9890 N.3   311  ILE311     -0.1231
    181  CA         6.9990   57.9620  100.0650 C.3   311  ILE311      0.1692
    182  C          7.8450   58.0850   98.8130 C.2   311  ILE311      0.2591
    183  O          9.0390   58.2900   98.9000 O.2   311  ILE311     -0.2718
    184  CB         6.7880   56.4560  100.2520 C.3   311  ILE311      0.0266
    185  CG1        6.0560   56.1630  101.5530 C.3   311  ILE311      0.0019
    186  CG2        8.1240   55.7500  100.2490 C.3   311  ILE311      0.0020
    187  CD1        6.5280   57.0220  102.7160 C.3   311  ILE311      0.0001
    188  N          7.2370   57.9220   97.6490 N.am  312  GLU312     -0.1979
    189  CA         7.9900   58.0500   96.4180 C.3   312  GLU312      0.1602
    190  C          7.1270   58.1220   95.1750 C.2   312  GLU312      0.2287
    191  O          5.9590   57.8830   95.2080 O.2   312  GLU312     -0.2864
    192  CB         8.9560   56.8750   96.2720 C.3   312  GLU312      0.0415
    193  CG         8.3070   55.6290   95.7050 C.3   312  GLU312      0.1163
    194  CD         9.3280   54.6740   95.1480 C.2   312  GLU312      0.3649
    195  OE1       10.3170   55.1310   94.5620 O.co2 312  GLU312     -0.2457
    196  OE2        9.1370   53.4600   95.2880 O.co2 312  GLU312     -0.2457
    197  N          7.1790   56.7760   91.1550 N.3   314  ASN314     -0.1240
    198  CA         7.7360   55.8630   90.1920 C.3   314  ASN314      0.1653
    199  C          7.4520   56.2820   88.7870 C.2   314  ASN314      0.2266
    200  O          6.3120   56.3880   88.3960 O.2   314  ASN314     -0.2867
    201  CB         7.1340   54.5060   90.4250 C.3   314  ASN314      0.1155
    202  CG         7.4630   53.9830   91.7880 C.2   314  ASN314      0.2627
    203  OD1        6.5790   53.7290   92.5920 O.2   314  ASN314     -0.2716
    204  ND2        8.7410   53.9090   92.0930 N.am  314  ASN314     -0.0877
@<TRIPOS>BOND
     1   200   199    2
     2   199   198    1
     3   198   201    1
     4   198   197    1
     5    45    44    1
     6   201   202    1
     7   118   117    1
     8    44    43    1
     9   117   119    1
    10   117   116    2
    11   202   204   am
    12   202   203    2
    13   115   116    1
    14   115   114    1
    15    43    42    1
    16   114   113    1
    17    42    41    1
    18    37    38    1
    19   112   111    2
    20   111   110    1
    21    41    38    1
    22   113   110    1
    23     1     2    1
    24   130   128    1
    25   195   194   ar
    26    38    39    1
    27   170   169   ar
    28   110   109    1
    29    33    34    1
    30    35    36    2
    31    35    34    1
    32   194   196   ar
    33   194   193    1
    34   190   191    2
    35   190   189    1
    36   164   165    1
    37   171   169   ar
    38   128   129    1
    39   128   127    2
    40   193   192    1
    41   169   168    1
    42     2     3    1
    43     2     5    1
    44   126   127    1
    45   126   125    1
    46     3     4    2
    47     9     8    1
    48    39    40    2
    49   192   189    1
    50    29    30    2
    51    29    28    1
    52     6     5    1
    53     6     7    1
    54   189   188    1
    55   125   124    1
    56    32    31    1
    57   165   168    1
    58   165   166    1
    59     7     8    1
    60    31    28    1
    61    28    27    1
    62   188   182   am
    63   163   161   am
    64   166   167    2
    65   124   121    1
    66   158   157    1
    67   158   159    2
    68   107   106   ar
    69   160   157    1
    70   160   161    1
    71   157   156    1
    72    27    20   am
    73   120   121    1
    74   121   122    1
    75   182   183    2
    76   182   181    1
    77   161   162    2
    78   106   108   ar
    79   106   105    1
    80   104   103    2
    81   152   151    2
    82    20    21    2
    83    20    19    1
    84   180   181    1
    85   156   151   am
    86   181   184    1
    87   103   102    1
    88   122   123    2
    89   186   184    1
    90   184   185    1
    91   151   150    1
    92   105   102    1
    93    53    51    1
    94    22    19    1
    95    22    23    1
    96    19    18    1
    97    26    25    1
    98    24    23    1
    99    24    25    1
   100    51    50    1
   101   154   153    1
   102   102   101    1
   103   185   187    1
   104    46    47    1
   105   150   153    1
   106   150   149    1
   107   153   155    1
   108   172   173    1
   109   149   143   am
   110    50    47    1
   111    50    52    1
   112    62    60   am
   113    47    48    1
   114   143   144    2
   115   143   142    1
   116    61    60    2
   117   145   142    1
   118   145   146    1
   119   147   146    1
   120    60    59    1
   121   173   174    1
   122   173   176    1
   123   142   141    1
   124    48    49    2
   125   177   178    1
   126   177   176    1
   127   146   148    1
   128   175   174    2
   129   178   179    1
   130    58    59    1
   131    58    55    1
   132    17    15    1
   133   141   133   am
   134    13    12    2
   135    95    94    2
   136    15    14    1
   137    16    14    1
   138    54    55    1
   139    94    93    1
   140    55    56    1
   141    12    11    1
   142   134   133    2
   143   133   132    1
   144    14    11    1
   145    99   100    1
   146    99    98    1
   147    97    98    1
   148    97    96    1
   149    11    10    1
   150    56    57    2
   151    56    63   am
   152    93    96    1
   153    93    92    1
   154   132   131    1
   155   132   135    1
   156    91    89    1
   157    63    64    1
   158    66    65    2
   159    80    78   ar
   160    80    82   ar
   161    89    88    1
   162    89    90    1
   163   135   136    1
   164    78    77   ar
   165    65    64    1
   166    65    72   am
   167    64    67    1
   168    83    82    1
   169    88    85    1
   170    82    81   ar
   171    73    72    1
   172    73    76    1
   173    73    74    1
   174    84    85    1
   175    84    74   am
   176    67    68    1
   177    77    76    1
   178    77    79   ar
   179   136   137   ar
   180   136   138   ar
   181    85    86    1
   182    74    75    2
   183   137   139   ar
   184    81    79   ar
   185    87    86    2
   186   138   140   ar
   187    68    69    1
   188   139   140   ar
   189    69    70    1
   190    71    70    1
