@<TRIPOS>MOLECULE
tmp/4i4tD01.pdb
 186 176 0 0 0
SMALL
GASTEIGER

@<TRIPOS>ATOM
      1  N         10.4250    5.9500  -43.0290 N.3    23  VAL23      -0.1245
      2  CA         9.4000    6.1850  -42.0210 C.3    23  VAL23       0.1561
      3  C          9.5700    7.5320  -41.3290 C.2    23  VAL23       0.2260
      4  O          8.6050    8.2850  -41.2010 O.2    23  VAL23      -0.2867
      5  CB         9.3440    5.0310  -40.9980 C.3    23  VAL23       0.0252
      6  CG1        8.4760    5.3970  -39.7960 C.3    23  VAL23       0.0019
      7  CG2        8.8110    3.7830  -41.6850 C.3    23  VAL23       0.0019
      8  N          7.3600   11.1830  -41.2600 N.3    27  GLU27      -0.1245
      9  CA         6.9330   11.7790  -39.9930 C.3    27  GLU27       0.1567
     10  C          7.3760   13.2460  -39.9230 C.2    27  GLU27       0.2260
     11  O          6.6480   14.1040  -39.4130 O.2    27  GLU27      -0.2867
     12  CB         7.4840   10.9700  -38.8200 C.3    27  GLU27       0.0388
     13  CG         6.8730    9.5690  -38.6910 C.3    27  GLU27       0.1160
     14  CD         7.3080    8.8580  -37.4090 C.2    27  GLU27       0.3649
     15  OE1        7.0410    7.6470  -37.2670 O.co2  27  GLU27      -0.2457
     16  OE2        7.9050    9.5190  -36.5400 O.co2  27  GLU27      -0.2457
     17  N         -0.4230  -11.1180  -36.3470 N.3   215  LEU215     -0.1245
     18  CA        -0.9360  -10.5260  -37.5830 C.3   215  LEU215      0.1561
     19  C         -1.3650  -11.5770  -38.6180 C.2   215  LEU215      0.2260
     20  O         -1.7880  -11.2350  -39.7260 O.2   215  LEU215     -0.2867
     21  CB         0.1030   -9.5740  -38.1750 C.3   215  LEU215      0.0270
     22  CG         0.5870   -8.5110  -37.1700 C.3   215  LEU215      0.0019
     23  CD1        1.6730   -7.6060  -37.7690 C.3   215  LEU215      0.0001
     24  CD2       -0.5730   -7.6780  -36.6460 C.3   215  LEU215      0.0001
     25  N          8.7520   -3.9310  -41.4350 N.3   227  HIS227     -0.1226
     26  CA         7.6930   -2.9890  -41.1160 C.3   227  HIS227      0.1752
     27  C          7.5910   -2.8410  -39.6040 C.2   227  HIS227      0.2595
     28  O          7.4480   -1.7280  -39.0890 O.2   227  HIS227     -0.2718
     29  CB         6.3590   -3.4670  -41.7110 C.3   227  HIS227      0.0759
     30  CG         5.2490   -2.4680  -41.6080 C.ar  227  HIS227      0.0818
     31  ND1        4.2530   -2.5450  -40.6560 N.ar  227  HIS227     -0.2268
     32  CD2        4.9660   -1.3710  -42.3490 C.ar  227  HIS227      0.1154
     33  CE1        3.4160   -1.5360  -40.8110 C.ar  227  HIS227      0.1986
     34  NE2        3.8290   -0.7980  -41.8300 N.ar  227  HIS227     -0.2212
     35  N          7.6630   -3.9590  -38.8820 N.am  228  LEU228     -0.1980
     36  CA         7.6520   -3.8980  -37.4100 C.3   228  LEU228      0.1596
     37  C          8.8960   -3.2090  -36.8790 C.2   228  LEU228      0.2287
     38  O          8.8360   -2.4000  -35.9500 O.2   228  LEU228     -0.2864
     39  CB         7.5790   -5.2990  -36.7960 C.3   228  LEU228      0.0297
     40  CG         6.2520   -6.0350  -36.9560 C.3   228  LEU228      0.0022
     41  CD1        6.3870   -7.4640  -36.4610 C.3   228  LEU228      0.0001
     42  CD2        5.1310   -5.3290  -36.2070 C.3   228  LEU228      0.0001
     43  N         10.7880   -0.9370  -38.3200 N.3   230  SER230     -0.1202
     44  CA        10.7950    0.5090  -38.5330 C.3   230  SER230      0.2020
     45  C          9.7710    1.2180  -37.6320 C.2   230  SER230      0.2618
     46  O         10.0040    2.3580  -37.1940 O.2   230  SER230     -0.2717
     47  CB        10.6280    0.8590  -40.0170 C.3   230  SER230      0.2103
     48  OG         9.4390    0.3170  -40.5540 O.3   230  SER230     -0.2182
     49  N          8.6670    0.5430  -37.3070 N.am  231  ALA231     -0.1979
     50  CA         7.6890    1.1140  -36.3790 C.3   231  ALA231      0.1597
     51  C          8.3320    1.2430  -35.0100 C.2   231  ALA231      0.2287
     52  O          8.1700    2.2380  -34.3270 O.2   231  ALA231     -0.2864
     53  CB         6.4400    0.2640  -36.2900 C.3   231  ALA231      0.0319
     54  N         11.1790    4.0190  -35.1930 N.3   234  SER234     -0.1217
     55  CA        10.4670    5.2910  -35.0900 C.3   234  SER234      0.1889
     56  C         10.1310    5.6100  -33.6330 C.2   234  SER234      0.2288
     57  O         10.4500    6.6960  -33.1250 O.2   234  SER234     -0.2866
     58  CB         9.1790    5.2550  -35.8950 C.3   234  SER234      0.2089
     59  OG         8.4170    6.4240  -35.6440 O.3   234  SER234     -0.2183
     60  N          6.2390   -2.5350  -28.8980 N.3   270  PHE270     -0.1241
     61  CA         5.3580   -1.6300  -29.6400 C.3   270  PHE270      0.1605
     62  C          3.8980   -1.9930  -29.3890 C.2   270  PHE270      0.2264
     63  O          3.5480   -3.1770  -29.3260 O.2   270  PHE270     -0.2867
     64  CB         5.6510   -1.6820  -31.1620 C.3   270  PHE270      0.0534
     65  CG         4.7980   -0.7370  -31.9770 C.ar  270  PHE270     -0.0203
     66  CD1        5.2450    0.5390  -32.2850 C.ar  270  PHE270     -0.0042
     67  CD2        3.5360   -1.1160  -32.4080 C.ar  270  PHE270     -0.0042
     68  CE1        4.4530    1.4140  -33.0090 C.ar  270  PHE270     -0.0003
     69  CE2        2.7420   -0.2530  -33.1490 C.ar  270  PHE270     -0.0003
     70  CZ         3.1970    1.0160  -33.4440 C.ar  270  PHE270     -0.0000
     71  N         -0.1830   -0.4050  -30.7280 N.3   272  PRO272     -0.2102
     72  CA        -0.9570   -1.6510  -30.6640 C.3   272  PRO272      0.1504
     73  C         -0.4400   -2.7090  -31.6350 C.2   272  PRO272      0.2576
     74  O          0.1020   -2.3480  -32.6720 O.2   272  PRO272     -0.2718
     75  CB        -2.3430   -1.2100  -31.1370 C.3   272  PRO272      0.0282
     76  CG        -2.0390   -0.1450  -32.1730 C.3   272  PRO272      0.0208
     77  CD        -0.7890    0.5650  -31.6610 C.3   272  PRO272      0.0893
     78  N         -0.6390   -3.9870  -31.3180 N.am  273  LEU273     -0.1966
     79  CA        -0.3790   -5.0500  -32.2810 C.3   273  LEU273      0.1728
     80  C         -1.5650   -5.9900  -32.2290 C.2   273  LEU273      0.2617
     81  O         -1.5700   -6.9680  -31.4860 O.2   273  LEU273     -0.2715
     82  CB         0.9360   -5.7820  -31.9780 C.3   273  LEU273      0.0311
     83  CG         2.2200   -4.9890  -32.2610 C.3   273  LEU273      0.0022
     84  CD1        3.4470   -5.6700  -31.6190 C.3   273  LEU273      0.0001
     85  CD2        2.4550   -4.7920  -33.7570 C.3   273  LEU273      0.0001
     86  N         -2.5830   -5.6530  -33.0170 N.am  274  THR274     -0.1937
     87  CA        -3.8350   -6.3780  -33.0500 C.3   274  THR274      0.2028
     88  C         -4.1730   -6.5620  -34.5210 C.2   274  THR274      0.2643
     89  O         -4.0040   -5.6340  -35.2990 O.2   274  THR274     -0.2714
     90  CB        -4.9380   -5.5620  -32.3690 C.3   274  THR274      0.1808
     91  OG1       -4.5490   -5.2900  -31.0110 O.3   274  THR274     -0.2208
     92  CG2       -6.2450   -6.3040  -32.3870 C.3   274  THR274      0.0379
     93  N         -4.6210   -7.7520  -34.9030 N.am  275  SER275     -0.1935
     94  CA        -4.9670   -8.0130  -36.2950 C.3   275  SER275      0.2055
     95  C         -6.1800   -7.1910  -36.6910 C.2   275  SER275      0.2642
     96  O         -6.9910   -6.8290  -35.8320 O.2   275  SER275     -0.2714
     97  CB        -5.2650   -9.5010  -36.5060 C.3   275  SER275      0.2130
     98  OG        -6.3880   -9.9000  -35.7360 O.3   275  SER275     -0.2179
     99  N         -6.3190   -6.9110  -37.9910 N.am  276  ARG276     -0.1977
    100  CA        -7.4620   -6.1340  -38.4760 C.3   276  ARG276      0.1597
    101  C         -8.7850   -6.7670  -38.0760 C.2   276  ARG276      0.2287
    102  O         -9.7730   -6.0730  -37.8140 O.2   276  ARG276     -0.2864
    103  CB        -7.4020   -5.9720  -40.0030 C.3   276  ARG276      0.0334
    104  CG        -6.1800   -5.2010  -40.4490 C.3   276  ARG276      0.0492
    105  CD        -6.3630   -4.5760  -41.8160 C.3   276  ARG276      0.2205
    106  NE        -5.2320   -3.7140  -42.1530 N.pl3 276  ARG276     -0.0865
    107  CZ        -4.1770   -4.0990  -42.8660 C.cat 276  ARG276      0.5346
    108  NH1       -4.0880   -5.3420  -43.3350 N.pl3 276  ARG276      0.1354
    109  NH2       -3.2030   -3.2360  -43.1170 N.pl3 276  ARG276      0.1354
    110  N         -9.4610   -6.0210  -34.4040 N.3   279  GLN279     -0.1245
    111  CA        -9.6940   -4.5960  -34.2030 C.3   279  GLN279      0.1566
    112  C        -11.1920   -4.2810  -34.2540 C.2   279  GLN279      0.2260
    113  O        -11.6340   -3.2620  -33.7250 O.2   279  GLN279     -0.2867
    114  CB        -8.9430   -3.7750  -35.2560 C.3   279  GLN279      0.0367
    115  CG        -7.4320   -3.7620  -35.0800 C.3   279  GLN279      0.0905
    116  CD        -6.7200   -3.0600  -36.2300 C.2   279  GLN279      0.2608
    117  OE1       -7.1980   -2.0510  -36.7420 O.2   279  GLN279     -0.2717
    118  NE2       -5.5790   -3.6020  -36.6440 N.am  279  GLN279     -0.0878
    119  N        -11.9570   -4.6980  -30.4440 N.3   282  ARG282     -0.1231
    120  CA       -11.1110   -4.1240  -29.3980 C.3   282  ARG282      0.1694
    121  C        -10.7290   -2.6700  -29.7050 C.2   282  ARG282      0.2592
    122  O        -10.0800   -2.3850  -30.7130 O.2   282  ARG282     -0.2718
    123  CB        -9.8690   -4.9950  -29.2490 C.3   282  ARG282      0.0321
    124  CG        -8.8840   -4.5380  -28.2020 C.3   282  ARG282      0.0489
    125  CD        -7.7270   -5.5240  -28.1180 C.3   282  ARG282      0.2205
    126  NE        -8.1730   -6.8510  -27.7050 N.pl3 282  ARG282     -0.0865
    127  CZ        -8.3880   -7.2140  -26.4420 C.cat 282  ARG282      0.5346
    128  NH1       -8.1970   -6.3540  -25.4420 N.pl3 282  ARG282      0.1354
    129  NH2       -8.7990   -8.4470  -26.1750 N.pl3 282  ARG282      0.1354
    130  N        -11.1370   -1.7570  -28.8260 N.am  283  ALA283     -0.1966
    131  CA       -10.9140   -0.3290  -29.0300 C.3   283  ALA283      0.1728
    132  C         -9.4610    0.0640  -28.7870 C.2   283  ALA283      0.2616
    133  O         -8.7910   -0.4910  -27.9090 O.2   283  ALA283     -0.2715
    134  CB       -11.8250    0.4740  -28.1160 C.3   283  ALA283      0.0334
    135  N         -8.9810    1.0230  -29.5730 N.am  284  LEU284     -0.1977
    136  CA        -7.6470    1.5880  -29.3790 C.3   284  LEU284      0.1596
    137  C         -7.7290    2.7400  -28.3770 C.2   284  LEU284      0.2287
    138  O         -8.2020    3.8450  -28.6860 O.2   284  LEU284     -0.2864
    139  CB        -7.0650    2.0660  -30.7070 C.3   284  LEU284      0.0297
    140  CG        -5.6600    2.6640  -30.6940 C.3   284  LEU284      0.0022
    141  CD1       -4.6390    1.7170  -30.0930 C.3   284  LEU284      0.0001
    142  CD2       -5.2690    3.0100  -32.1340 C.3   284  LEU284      0.0001
    143  N         -5.6080    0.1650  -23.2880 N.3   288  GLU288     -0.1245
    144  CA        -5.2600   -0.9380  -24.1890 C.3   288  GLU288      0.1567
    145  C         -3.7850   -0.8800  -24.5580 C.2   288  GLU288      0.2260
    146  O         -3.0920   -1.8980  -24.5390 O.2   288  GLU288     -0.2867
    147  CB        -6.1340   -0.9020  -25.4500 C.3   288  GLU288      0.0388
    148  CG        -5.8430   -2.0190  -26.4570 C.3   288  GLU288      0.1160
    149  CD        -6.2160   -3.3880  -25.9280 C.2   288  GLU288      0.3649
    150  OE1       -7.1810   -3.4760  -25.1480 O.co2 288  GLU288     -0.2457
    151  OE2       -5.5430   -4.3810  -26.2800 O.co2 288  GLU288     -0.2457
    152  N         -1.0180   -3.7200  -23.4160 N.3   292  GLN292     -0.1245
    153  CA        -0.2690   -4.3640  -24.5000 C.3   292  GLN292      0.1566
    154  C          1.2230   -4.1370  -24.3930 C.2   292  GLN292      0.2260
    155  O          1.9990   -5.0670  -24.5710 O.2   292  GLN292     -0.2867
    156  CB        -0.7410   -3.8890  -25.8760 C.3   292  GLN292      0.0367
    157  CG        -2.0540   -4.5090  -26.3310 C.3   292  GLN292      0.0905
    158  CD        -2.2320   -4.4050  -27.8300 C.2   292  GLN292      0.2608
    159  OE1       -1.2470   -4.4020  -28.5810 O.2   292  GLN292     -0.2717
    160  NE2       -3.4820   -4.3100  -28.2770 N.am  292  GLN292     -0.0878
    161  N          2.3430    7.8480  -35.1360 N.3   358  PRO358     -0.2102
    162  CA         2.8720    7.1940  -36.3340 C.3   358  PRO358      0.1504
    163  C          1.8710    7.2760  -37.4880 C.2   358  PRO358      0.2575
    164  O          0.6770    7.4630  -37.2610 O.2   358  PRO358     -0.2718
    165  CB         3.0310    5.7270  -35.9050 C.3   358  PRO358      0.0282
    166  CG         2.8450    5.6990  -34.4310 C.3   358  PRO358      0.0208
    167  CD         1.9940    6.8780  -34.0900 C.3   358  PRO358      0.0893
    168  N          2.3590    7.0990  -38.7020 N.am  359  ARG359     -0.1980
    169  CA         1.5130    7.0750  -39.8790 C.3   359  ARG359      0.1597
    170  C          0.4490    6.0110  -39.7190 C.2   359  ARG359      0.2287
    171  O          0.7470    4.8770  -39.3950 O.2   359  ARG359     -0.2864
    172  CB         2.3570    6.7820  -41.1180 C.3   359  ARG359      0.0334
    173  CG         1.6450    6.9470  -42.4450 C.3   359  ARG359      0.0492
    174  CD         2.5990    6.7300  -43.6180 C.3   359  ARG359      0.2205
    175  NE         2.1030    7.3710  -44.8310 N.pl3 359  ARG359     -0.0865
    176  CZ         2.7870    7.5100  -45.9640 C.cat 359  ARG359      0.5346
    177  NH1        2.2310    8.1220  -47.0030 N.pl3 359  ARG359      0.1354
    178  NH2        4.0220    7.0420  -46.0700 N.pl3 359  ARG359      0.1354
    179  N         -1.9740    5.5620  -37.5380 N.3   361  LEU361     -0.1245
    180  CA        -2.5240    5.2620  -36.2200 C.3   361  LEU361      0.1561
    181  C         -2.9530    6.5480  -35.4800 C.2   361  LEU361      0.2260
    182  O         -2.2620    7.5670  -35.5350 O.2   361  LEU361     -0.2867
    183  CB        -1.4700    4.5350  -35.3710 C.3   361  LEU361      0.0270
    184  CG        -1.1370    3.0720  -35.6880 C.3   361  LEU361      0.0019
    185  CD1        0.0320    2.5970  -34.8060 C.3   361  LEU361      0.0001
    186  CD2       -2.3720    2.1850  -35.5060 C.3   361  LEU361      0.0001
@<TRIPOS>BOND
     1   177   176    1
     2   178   176    1
     3   176   175    2
     4   175   174    1
     5   174   173    1
     6   108   107    1
     7   109   107    1
     8     1     2    1
     9   107   106    2
    10   173   172    1
    11    32    34   ar
    12    32    30   ar
    13   106   105    1
    14     2     3    1
    15     2     5    1
    16    34    33   ar
    17   105   104    1
    18    29    30    1
    19    29    26    1
    20     7     5    1
    21    30    31   ar
    22    25    26    1
    23     3     4    2
    24     8     9    1
    25   172   169    1
    26    26    27    1
    27     5     6    1
    28    33    31   ar
    29    48    47    1
    30   104   103    1
    31    47    44    1
    32   103   100    1
    33     9    10    1
    34     9    12    1
    35    10    11    2
    36   169   170    1
    37   169   168    1
    38    20    19    2
    39   170   171    2
    40    27    28    2
    41    27    35   am
    42    35    36    1
    43    12    13    1
    44   168   163   am
    45    13    14    1
    46    19    18    1
    47    44    43    1
    48    44    45    1
    49   100   101    1
    50   100    99    1
    51    21    18    1
    52    21    22    1
    53   101   102    2
    54    99    95   am
    55    23    22    1
    56    45    49   am
    57    45    46    2
    58    18    17    1
    59   179   180    1
    60   163   164    2
    61   163   162    1
    62    36    37    1
    63    36    39    1
    64    14    15   ar
    65    14    16   ar
    66    49    50    1
    67    22    24    1
    68    40    39    1
    69    40    41    1
    70    40    42    1
    71    37    38    2
    72   117   116    2
    73    95    94    1
    74    95    96    2
    75   118   116   am
    76    97    94    1
    77    97    98    1
    78    50    53    1
    79    50    51    1
    80   162   165    1
    81   162   161    1
    82    94    93    1
    83   116   115    1
    84   180   181    1
    85   180   183    1
    86   165   166    1
    87    58    59    1
    88    58    55    1
    89   184   186    1
    90   184   183    1
    91   184   185    1
    92   182   181    2
    93    89    88    2
    94   114   115    1
    95   114   111    1
    96    54    55    1
    97   161   167    1
    98    55    56    1
    99    51    52    2
   100    93    88   am
   101    88    87    1
   102   166   167    1
   103   110   111    1
   104   112   111    1
   105   112   113    2
   106    85    83    1
   107    56    57    2
   108    70    69   ar
   109    70    68   ar
   110    69    67   ar
   111    87    86    1
   112    87    90    1
   113    86    80   am
   114    68    66   ar
   115    74    73    2
   116    67    65   ar
   117    92    90    1
   118    90    91    1
   119    66    65   ar
   120    79    80    1
   121    79    82    1
   122    79    78    1
   123    83    82    1
   124    83    84    1
   125    80    81    2
   126    76    77    1
   127    76    75    1
   128   142   140    1
   129    65    64    1
   130    77    71    1
   131    73    78   am
   132    73    72    1
   133    64    61    1
   134    75    72    1
   135    71    72    1
   136   122   121    2
   137   139   140    1
   138   139   136    1
   139   140   141    1
   140   119   120    1
   141   121   120    1
   142   121   130   am
   143    61    62    1
   144    61    60    1
   145   135   136    1
   146   135   132   am
   147   120   123    1
   148    62    63    2
   149   136   137    1
   150   123   124    1
   151   131   130    1
   152   131   132    1
   153   131   134    1
   154   132   133    2
   155   138   137    2
   156   159   158    2
   157   160   158   am
   158   124   125    1
   159   125   126    1
   160   158   157    1
   161   126   127    2
   162   148   149    1
   163   148   147    1
   164   127   129    1
   165   127   128    1
   166   157   156    1
   167   151   149   ar
   168   149   150   ar
   169   156   153    1
   170   147   144    1
   171   155   154    2
   172   145   146    2
   173   145   144    1
   174   153   154    1
   175   153   152    1
   176   144   143    1
