@<TRIPOS>MOLECULE
tmp/4i4xD01.pdb
 87 82 0 0 0
SMALL
GASTEIGER

@<TRIPOS>ATOM
      1  N         34.4540   40.4830   18.8040 N.3    33  LEU33      -0.1245
      2  CA        34.4400   39.8710   20.1380 C.3    33  LEU33       0.1561
      3  C         33.5880   38.6040   20.1700 C.2    33  LEU33       0.2260
      4  O         33.8670   37.6820   20.9350 O.2    33  LEU33      -0.2867
      5  CB        33.9550   40.8600   21.2080 C.3    33  LEU33       0.0270
      6  CG        34.6500   42.2220   21.3470 C.3    33  LEU33       0.0019
      7  CD1       34.3220   42.8520   22.6900 C.3    33  LEU33       0.0001
      8  CD2       36.1550   42.1080   21.1740 C.3    33  LEU33       0.0001
      9  N         24.4770   39.6620   22.8680 N.3    72  PHE72      -0.1241
     10  CA        23.3630   40.4250   22.3280 C.3    72  PHE72       0.1605
     11  C         23.2660   40.2450   20.8250 C.2    72  PHE72       0.2264
     12  O         24.2440   39.9040   20.1570 O.2    72  PHE72      -0.2867
     13  CB        23.4340   41.9090   22.7200 C.3    72  PHE72       0.0534
     14  CG        24.5710   42.6720   22.0870 C.ar   72  PHE72      -0.0203
     15  CD1       24.4840   43.1300   20.7720 C.ar   72  PHE72      -0.0042
     16  CD2       25.7120   42.9750   22.8220 C.ar   72  PHE72      -0.0042
     17  CE1       25.5260   43.8420   20.1950 C.ar   72  PHE72      -0.0003
     18  CE2       26.7520   43.6930   22.2520 C.ar   72  PHE72      -0.0003
     19  CZ        26.6600   44.1300   20.9380 C.ar   72  PHE72      -0.0000
     20  N         21.3460   42.4360   17.6990 N.3    74  ARG74      -0.1245
     21  CA        20.5880   43.6420   17.3600 C.3    74  ARG74       0.1563
     22  C         20.7940   44.0240   15.8960 C.2    74  ARG74       0.2260
     23  O         21.6820   43.4940   15.2310 O.2    74  ARG74      -0.2867
     24  CB        21.0210   44.7990   18.2660 C.3    74  ARG74       0.0307
     25  CG        22.4550   45.2500   18.0230 C.3    74  ARG74       0.0489
     26  CD        22.9240   46.2490   19.0630 C.3    74  ARG74       0.2205
     27  NE        24.2980   46.6610   18.7840 N.pl3  74  ARG74      -0.0865
     28  CZ        25.1350   47.1730   19.6810 C.cat  74  ARG74       0.5346
     29  NH1       24.7520   47.3470   20.9410 N.pl3  74  ARG74       0.1354
     30  NH2       26.3670   47.5130   19.3140 N.pl3  74  ARG74       0.1354
     31  N         20.2980   47.5530   15.1240 N.3    76  SER76      -0.1217
     32  CA        20.3860   49.0070   15.2510 C.3    76  SER76       0.1889
     33  C         21.7480   49.5500   14.8260 C.2    76  SER76       0.2288
     34  O         21.8280   50.4800   14.0240 O.2    76  SER76      -0.2866
     35  CB        20.0750   49.4270   16.6880 C.3    76  SER76       0.2089
     36  OG        20.8320   48.6660   17.6130 O.3    76  SER76      -0.2183
     37  N         28.6960   46.5120   16.5790 N.3    79  PRO79      -0.2116
     38  CA        28.5150   45.1770   16.0060 C.3    79  PRO79       0.1372
     39  C         27.1030   44.6610   16.2610 C.2    79  PRO79       0.2244
     40  O         26.5150   44.9640   17.3050 O.2    79  PRO79      -0.2868
     41  CB        29.5480   44.3310   16.7490 C.3    79  PRO79       0.0268
     42  CG        29.7190   45.0130   18.0590 C.3    79  PRO79       0.0207
     43  CD        29.5490   46.4820   17.7830 C.3    79  PRO79       0.0892
     44  N         28.8870   41.0700   22.8440 N.3    83  ASN83      -0.1225
     45  CA        28.7130   40.7850   24.2590 C.3    83  ASN83       0.1785
     46  C         28.7310   42.0530   25.1060 C.2    83  ASN83       0.2597
     47  O         29.2040   43.1070   24.6630 O.2    83  ASN83      -0.2718
     48  CB        29.7390   39.7450   24.7470 C.3    83  ASN83       0.1169
     49  CG        31.1770   40.2080   24.5970 C.2    83  ASN83       0.2627
     50  OD1       31.4990   41.3700   24.8320 O.2    83  ASN83      -0.2716
     51  ND2       32.0570   39.2850   24.2360 N.am   83  ASN83      -0.0877
     52  N         28.1950   41.9510   26.3170 N.am   84  ILE84      -0.1980
     53  CA        28.0680   43.1060   27.1940 C.3    84  ILE84       0.1595
     54  C         27.9900   42.6540   28.6470 C.2    84  ILE84       0.2287
     55  O         27.4390   41.5940   28.9490 O.2    84  ILE84      -0.2864
     56  CB        26.8500   43.9930   26.8010 C.3    84  ILE84       0.0276
     57  CG1       26.9250   45.3620   27.4830 C.3    84  ILE84       0.0022
     58  CG2       25.5230   43.2840   27.0730 C.3    84  ILE84       0.0022
     59  CD1       26.3340   46.4900   26.6680 C.3    84  ILE84       0.0001
     60  N         19.8050   44.5170   29.1030 N.3    90  TYR90      -0.1241
     61  CA        19.1980   45.0540   27.8920 C.3    90  TYR90       0.1605
     62  C         18.2550   44.0590   27.2380 C.2    90  TYR90       0.2264
     63  O         18.4900   42.8550   27.2910 O.2    90  TYR90      -0.2867
     64  CB        20.2960   45.4780   26.9110 C.3    90  TYR90       0.0534
     65  CG        21.2620   46.4760   27.5160 C.ar   90  TYR90      -0.0201
     66  CD1       20.9440   47.8290   27.5760 C.ar   90  TYR90      -0.0009
     67  CD2       22.4820   46.0600   28.0510 C.ar   90  TYR90      -0.0009
     68  CE1       21.8170   48.7460   28.1400 C.ar   90  TYR90       0.0417
     69  CE2       23.3620   46.9700   28.6210 C.ar   90  TYR90       0.0417
     70  CZ        23.0240   48.3110   28.6590 C.ar   90  TYR90       0.1957
     71  OH        23.8890   49.2270   29.2210 O.3    90  TYR90      -0.2866
     72  N         17.7770   43.2280   24.1580 N.3    92  ASP92      -0.1225
     73  CA        18.3920   42.4080   23.1140 C.3    92  ASP92       0.1805
     74  C         19.4050   41.3850   23.6530 C.2    92  ASP92       0.2597
     75  O         20.1380   40.7820   22.8790 O.2    92  ASP92      -0.2718
     76  CB        18.9970   43.2830   21.9990 C.3    92  ASP92       0.1424
     77  CG        20.1420   44.1610   22.4820 C.2    92  ASP92       0.3668
     78  OD1       20.6200   43.9760   23.6210 O.co2  92  ASP92      -0.2456
     79  OD2       20.5730   45.0420   21.7070 O.co2  92  ASP92      -0.2456
     80  N         19.4420   41.2040   24.9750 N.am   93  ASN93      -0.1974
     81  CA        20.2360   40.1430   25.6080 C.3    93  ASN93       0.1688
     82  C         19.4350   38.8510   25.7950 C.2    93  ASN93       0.2292
     83  O         19.9580   37.8630   26.3200 O.2    93  ASN93      -0.2864
     84  CB        20.7310   40.5760   26.9950 C.3    93  ASN93       0.1181
     85  CG        21.6740   41.7700   26.9650 C.2    93  ASN93       0.2629
     86  OD1       22.2420   42.1310   25.9280 O.2    93  ASN93      -0.2716
     87  ND2       21.8650   42.3770   28.1300 N.am   93  ASN93      -0.0877
@<TRIPOS>BOND
     1    34    33    2
     2    33    32    1
     3    31    32    1
     4    23    22    2
     5    32    35    1
     6    22    21    1
     7    38    39    1
     8    38    37    1
     9    38    41    1
    10    39    40    2
    11    37    43    1
    12    35    36    1
    13    41    42    1
    14    21    20    1
    15    21    24    1
    16    43    42    1
    17    25    24    1
    18    25    26    1
    19    27    26    1
    20    27    28    2
    21     1     2    1
    22    30    28    1
    23    28    29    1
    24     2     3    1
    25     2     5    1
    26    12    11    2
    27     3     4    2
    28    17    15   ar
    29    17    19   ar
    30    15    14   ar
    31    11    10    1
    32    19    18   ar
    33     8     6    1
    34     5     6    1
    35     6     7    1
    36    79    77   ar
    37    76    77    1
    38    76    73    1
    39    14    13    1
    40    14    16   ar
    41    18    16   ar
    42    10    13    1
    43    10     9    1
    44    77    78   ar
    45    44    45    1
    46    75    74    2
    47    73    74    1
    48    73    72    1
    49    74    80   am
    50    51    49   am
    51    45    48    1
    52    45    46    1
    53    49    48    1
    54    49    50    2
    55    47    46    2
    56    80    81    1
    57    46    52   am
    58    81    82    1
    59    81    84    1
    60    82    83    2
    61    86    85    2
    62    52    53    1
    63    59    57    1
    64    56    58    1
    65    56    53    1
    66    56    57    1
    67    64    65    1
    68    64    61    1
    69    85    84    1
    70    85    87   am
    71    53    54    1
    72    62    63    2
    73    62    61    1
    74    65    66   ar
    75    65    67   ar
    76    66    68   ar
    77    61    60    1
    78    67    69   ar
    79    68    70   ar
    80    69    70   ar
    81    54    55    2
    82    70    71    1
