@<TRIPOS>MOLECULE
tmp/4i4xD02.pdb
 102 100 0 0 0
SMALL
GASTEIGER

@<TRIPOS>ATOM
      1  N         26.5700   43.9040   15.3050 N.3    80  TYR80      -0.1241
      2  CA        25.2020   43.3890   15.3860 C.3    80  TYR80       0.1605
      3  C         25.0630   42.2680   16.4060 C.2    80  TYR80       0.2264
      4  O         24.0560   42.1790   17.1100 O.2    80  TYR80      -0.2867
      5  CB        24.7250   42.9240   14.0100 C.3    80  TYR80       0.0534
      6  CG        24.6350   44.0510   13.0040 C.ar   80  TYR80      -0.0201
      7  CD1       23.8530   45.1740   13.2590 C.ar   80  TYR80      -0.0009
      8  CD2       25.3430   44.0000   11.8030 C.ar   80  TYR80      -0.0009
      9  CE1       23.7720   46.2160   12.3470 C.ar   80  TYR80       0.0417
     10  CE2       25.2650   45.0340   10.8820 C.ar   80  TYR80       0.0417
     11  CZ        24.4790   46.1400   11.1600 C.ar   80  TYR80       0.1957
     12  OH        24.3950   47.1720   10.2480 O.3    80  TYR80      -0.2866
     13  N         23.3970   32.9770   12.5880 N.3   119  TYR119     -0.1241
     14  CA        23.7520   32.0370   11.5250 C.3   119  TYR119      0.1605
     15  C         25.2530   31.8190   11.4120 C.2   119  TYR119      0.2264
     16  O         26.0560   32.6630   11.8220 O.2   119  TYR119     -0.2867
     17  CB        23.1910   32.4920   10.1690 C.3   119  TYR119      0.0534
     18  CG        23.9130   33.6880    9.6020 C.ar  119  TYR119     -0.0201
     19  CD1       25.0840   33.5330    8.8540 C.ar  119  TYR119     -0.0009
     20  CD2       23.4350   34.9780    9.8210 C.ar  119  TYR119     -0.0009
     21  CE1       25.7580   34.6300    8.3480 C.ar  119  TYR119      0.0417
     22  CE2       24.0960   36.0790    9.3100 C.ar  119  TYR119      0.0417
     23  CZ        25.2550   35.9000    8.5800 C.ar  119  TYR119      0.1957
     24  OH        25.9030   36.9990    8.0810 O.3   119  TYR119     -0.2866
     25  N         27.9690   30.3230    8.3770 N.3   121  ARG121     -0.1245
     26  CA        28.2060   29.8300    7.0230 C.3   121  ARG121      0.1563
     27  C         29.6850   29.9050    6.6400 C.2   121  ARG121      0.2260
     28  O         30.4860   30.5410    7.3330 O.2   121  ARG121     -0.2867
     29  CB        27.3380   30.5900    6.0120 C.3   121  ARG121      0.0307
     30  CG        27.6380   32.0770    5.9390 C.3   121  ARG121      0.0489
     31  CD        26.5690   32.8480    5.1830 C.3   121  ARG121      0.2205
     32  NE        26.9930   34.2330    5.0010 N.pl3 121  ARG121     -0.0865
     33  CZ        26.1760   35.2790    4.9160 C.cat 121  ARG121      0.5346
     34  NH1       26.6840   36.4920    4.7530 N.pl3 121  ARG121      0.1354
     35  NH2       24.8610   35.1240    5.0070 N.pl3 121  ARG121      0.1354
     36  N         30.6430   36.8630    3.2610 N.3   125  ASP125     -0.1225
     37  CA        30.8380   37.7260    4.4180 C.3   125  ASP125      0.1790
     38  C         29.5900   38.5780    4.6670 C.2   125  ASP125      0.2439
     39  O         28.9310   39.0010    3.7110 O.2   125  ASP125     -0.2733
     40  CB        32.0590   38.6270    4.2040 C.3   125  ASP125      0.1423
     41  CG        33.3130   37.8420    3.8900 C.2   125  ASP125      0.3668
     42  OD1       33.6390   36.8940    4.6380 O.co2 125  ASP125     -0.2456
     43  OD2       33.9820   38.1760    2.8920 O.co2 125  ASP125     -0.2456
     44  N         29.2410   38.8140    5.9490 N.am  126  PRO126     -0.2729
     45  CA        29.8830   38.2380    7.1350 C.3   126  PRO126      0.1401
     46  C         29.4930   36.7690    7.3180 C.2   126  PRO126      0.2269
     47  O         28.3110   36.4290    7.2610 O.2   126  PRO126     -0.2865
     48  CB        29.3550   39.1040    8.2830 C.3   126  PRO126      0.0296
     49  CG        28.0670   39.6680    7.7920 C.3   126  PRO126      0.0237
     50  CD        28.1750   39.7740    6.2980 C.3   126  PRO126      0.0939
     51  N         26.8030   35.9720   11.8750 N.3   129  GLY129     -0.1210
     52  CA        26.0280   37.1720   12.2020 C.3   129  GLY129      0.1956
     53  C         24.5850   36.8690   12.5300 C.2   129  GLY129      0.2612
     54  O         24.2530   35.7410   12.8950 O.2   129  GLY129     -0.2717
     55  N         23.7290   37.8840   12.4090 N.am  130  ASN130     -0.1960
     56  CA        22.2930   37.7000   12.6010 C.3   130  ASN130      0.1819
     57  C         21.4850   38.0370   11.3470 C.2   130  ASN130      0.2621
     58  O         22.0050   38.6290   10.3930 O.2   130  ASN130     -0.2715
     59  CB        21.7770   38.4510   13.8430 C.3   130  ASN130      0.1195
     60  CG        21.9700   39.9640   13.7620 C.2   130  ASN130      0.2630
     61  OD1       22.4210   40.5090   12.7540 O.2   130  ASN130     -0.2716
     62  ND2       21.6260   40.6470   14.8440 N.am  130  ASN130     -0.0877
     63  N         20.2140   37.6500   11.3510 N.am  131  PHE131     -0.1974
     64  CA        19.4180   37.6740   10.1330 C.3   131  PHE131      0.1639
     65  C         17.9290   37.6480   10.4320 C.2   131  PHE131      0.2290
     66  O         17.4720   36.8790   11.2740 O.2   131  PHE131     -0.2864
     67  CB        19.7990   36.4770    9.2500 C.3   131  PHE131      0.0560
     68  CG        18.9710   36.3460    8.0000 C.ar  131  PHE131     -0.0200
     69  CD1       19.1070   37.2620    6.9580 C.ar  131  PHE131     -0.0042
     70  CD2       18.0710   35.2980    7.8560 C.ar  131  PHE131     -0.0042
     71  CE1       18.3430   37.1420    5.8050 C.ar  131  PHE131     -0.0003
     72  CE2       17.3090   35.1670    6.7020 C.ar  131  PHE131     -0.0003
     73  CZ        17.4490   36.0900    5.6750 C.ar  131  PHE131     -0.0000
     74  N         16.5570   29.0150    7.2200 N.3   136  TYR136     -0.1241
     75  CA        17.5760   28.3240    6.4440 C.3   136  TYR136      0.1605
     76  C         18.4210   27.4460    7.3480 C.2   136  TYR136      0.2264
     77  O         18.5300   27.7000    8.5470 O.2   136  TYR136     -0.2867
     78  CB        18.4740   29.3230    5.7160 C.3   136  TYR136      0.0534
     79  CG        17.7450   30.2800    4.8020 C.ar  136  TYR136     -0.0201
     80  CD1       16.8040   29.8180    3.8810 C.ar  136  TYR136     -0.0009
     81  CD2       18.0140   31.6460    4.8450 C.ar  136  TYR136     -0.0009
     82  CE1       16.1370   30.6950    3.0400 C.ar  136  TYR136      0.0417
     83  CE2       17.3590   32.5320    4.0010 C.ar  136  TYR136      0.0417
     84  CZ        16.4250   32.0500    3.1050 C.ar  136  TYR136      0.1957
     85  OH        15.7730   32.9280    2.2750 O.3   136  TYR136     -0.2866
     86  N         21.5930   27.1590    7.6840 N.3   138  ASP138     -0.1225
     87  CA        22.7720   27.7670    8.3060 C.3   138  ASP138      0.1805
     88  C         22.4510   28.4990    9.6190 C.2   138  ASP138      0.2597
     89  O         23.3400   29.0430   10.2690 O.2   138  ASP138     -0.2718
     90  CB        23.5420   28.6580    7.3110 C.3   138  ASP138      0.1424
     91  CG        22.8080   29.9460    6.9490 C.2   138  ASP138      0.3668
     92  OD1       21.6920   30.2100    7.4540 O.co2 138  ASP138     -0.2456
     93  OD2       23.3790   30.7160    6.1430 O.co2 138  ASP138     -0.2456
     94  N         21.1760   28.4750   10.0010 N.am  139  GLN139     -0.1979
     95  CA        20.7070   29.0750   11.2510 C.3   139  GLN139      0.1601
     96  C         20.5240   28.0250   12.3530 C.2   139  GLN139      0.2287
     97  O         20.0300   28.3410   13.4350 O.2   139  GLN139     -0.2864
     98  CB        19.3780   29.8080   11.0130 C.3   139  GLN139      0.0394
     99  CG        19.4270   30.8480    9.9060 C.3   139  GLN139      0.0908
    100  CD        18.0570   31.1740    9.3300 C.2   139  GLN139      0.2608
    101  OE1       17.0280   30.7230    9.8310 O.2   139  GLN139     -0.2717
    102  NE2       18.0440   31.9610    8.2630 N.am  139  GLN139     -0.0878
@<TRIPOS>BOND
     1    85    84    1
     2    43    41   ar
     3    82    84   ar
     4    82    80   ar
     5    84    83   ar
     6    36    37    1
     7    39    38    2
     8    80    79   ar
     9    41    40    1
    10    41    42   ar
    11    83    81   ar
    12    40    37    1
    13    37    38    1
    14    38    44   am
    15    34    33    1
    16    79    81   ar
    17    79    78    1
    18    33    32    2
    19    33    35    1
    20    32    31    1
    21    31    30    1
    22    73    71   ar
    23    73    72   ar
    24    78    75    1
    25    71    69   ar
    26    30    29    1
    27    44    50    1
    28    44    45    1
    29    29    26    1
    30    93    91   ar
    31    50    49    1
    32    75    74    1
    33    75    76    1
    34    27    26    1
    35    27    28    2
    36    72    70   ar
    37    91    90    1
    38    91    92   ar
    39    69    68   ar
    40    26    25    1
    41    45    46    1
    42    45    48    1
    43    47    46    2
    44    90    87    1
    45    76    77    2
    46    86    87    1
    47    49    48    1
    48    70    68   ar
    49    68    67    1
    50    24    23    1
    51   102   100   am
    52    87    88    1
    53    21    23   ar
    54    21    19   ar
    55    23    22   ar
    56    19    18   ar
    57    67    64    1
    58    22    20   ar
    59   100   101    2
    60   100    99    1
    61    18    20   ar
    62    18    17    1
    63    88    94   am
    64    88    89    2
    65    99    98    1
    66    94    95    1
    67    64    65    1
    68    64    63    1
    69    17    14    1
    70    12    11    1
    71    58    57    2
    72    65    66    2
    73    10    11   ar
    74    10     8   ar
    75    98    95    1
    76    11     9   ar
    77    95    96    1
    78    57    63   am
    79    57    56    1
    80    15    14    1
    81    15    16    2
    82    14    13    1
    83     8     6   ar
    84    51    52    1
    85    52    53    1
    86     9     7   ar
    87    96    97    2
    88    55    53   am
    89    55    56    1
    90    53    54    2
    91    56    59    1
    92    61    60    2
    93     6     7   ar
    94     6     5    1
    95    60    59    1
    96    60    62   am
    97     5     2    1
    98     1     2    1
    99     2     3    1
   100     3     4    2
