@<TRIPOS>MOLECULE
tmp/4i4yC00.pdb
 101 102 0 0 0
SMALL
GASTEIGER

@<TRIPOS>ATOM
      1  N        -14.4930   35.7560   18.4350 N.3    25  TYR25      -0.1241
      2  CA       -15.2650   36.6780   19.2540 C.3    25  TYR25       0.1605
      3  C        -14.8330   36.5570   20.7140 C.2    25  TYR25       0.2264
      4  O        -14.2880   35.5270   21.1280 O.2    25  TYR25      -0.2867
      5  CB       -16.7920   36.4510   19.0960 C.3    25  TYR25       0.0534
      6  CG       -17.2920   35.1610   19.7270 C.ar   25  TYR25      -0.0201
      7  CD1      -17.5890   35.0970   21.0990 C.ar   25  TYR25      -0.0009
      8  CD2      -17.4590   34.0090   18.9610 C.ar   25  TYR25      -0.0009
      9  CE1      -18.0330   33.9140   21.6840 C.ar   25  TYR25       0.0417
     10  CE2      -17.9140   32.8240   19.5330 C.ar   25  TYR25       0.0417
     11  CZ       -18.1910   32.7850   20.8960 C.ar   25  TYR25       0.1957
     12  OH       -18.6280   31.6170   21.4760 O.3    25  TYR25      -0.2866
     13  N        -16.5690   37.6020   24.4860 N.3    27  ARG27      -0.1245
     14  CA       -17.7010   38.1460   25.2460 C.3    27  ARG27       0.1563
     15  C        -17.5700   37.8110   26.7330 C.2    27  ARG27       0.2260
     16  O        -16.7620   36.9570   27.0970 O.2    27  ARG27      -0.2867
     17  CB       -19.0500   37.6780   24.6580 C.3    27  ARG27       0.0307
     18  CG       -19.2360   36.1680   24.6070 C.3    27  ARG27       0.0489
     19  CD       -20.5080   35.7570   23.8850 C.3    27  ARG27       0.2205
     20  NE       -20.7150   34.3150   24.0310 N.pl3  27  ARG27      -0.0865
     21  CZ       -21.1680   33.5030   23.0810 C.cat  27  ARG27       0.5346
     22  NH1      -21.2980   32.2080   23.3450 N.pl3  27  ARG27       0.1354
     23  NH2      -21.4700   33.9680   21.8700 N.pl3  27  ARG27       0.1354
     24  N        -20.6890   30.7810   27.8430 N.3    31  PRO31      -0.2103
     25  CA       -19.6040   29.9900   27.2530 C.3    31  PRO31       0.1489
     26  C        -19.9900   29.3690   25.9030 C.2    31  PRO31       0.2417
     27  O        -21.1720   29.1320   25.6570 O.2    31  PRO31      -0.2734
     28  CB       -19.3550   28.9100   28.3060 C.3    31  PRO31       0.0282
     29  CG       -19.6870   29.6020   29.5900 C.3    31  PRO31       0.0208
     30  CD       -20.9070   30.4250   29.2590 C.3    31  PRO31       0.0893
     31  N        -19.0050   29.1480   25.0120 N.am   32  PRO32      -0.2729
     32  CA       -17.6050   29.5620   25.1680 C.3    32  PRO32       0.1401
     33  C        -17.4740   31.0870   25.0380 C.2    32  PRO32       0.2269
     34  O        -18.0570   31.6850   24.1300 O.2    32  PRO32      -0.2865
     35  CB       -16.8900   28.8330   24.0210 C.3    32  PRO32       0.0296
     36  CG       -17.9600   28.5380   23.0200 C.3    32  PRO32       0.0237
     37  CD       -19.1990   28.2900   23.8270 C.3    32  PRO32       0.0939
     38  N        -14.4260   32.1350   21.1300 N.3    35  TRP35      -0.1227
     39  CA       -14.5110   31.0420   20.1700 C.3    35  TRP35       0.1737
     40  C        -14.4710   31.5810   18.7630 C.2    35  TRP35       0.2595
     41  O        -14.2810   32.7910   18.5550 O.2    35  TRP35      -0.2718
     42  CB       -15.7810   30.2250   20.4180 C.3    35  TRP35       0.0564
     43  CG       -15.7190   28.7750   19.9900 C.ar   35  TRP35       0.0003
     44  CD1      -16.3810   28.1780   18.9190 C.ar   35  TRP35       0.0946
     45  CD2      -14.9550   27.6820   20.6190 C.ar   35  TRP35       0.0152
     46  NE1      -16.0970   26.8360   18.8510 N.ar   35  TRP35      -0.2442
     47  CE2      -15.2470   26.4750   19.8390 C.ar   35  TRP35       0.0810
     48  CE3      -14.0990   27.5860   21.7190 C.ar   35  TRP35       0.0012
     49  CZ2      -14.6940   25.2370   20.1610 C.ar   35  TRP35       0.0191
     50  CZ3      -13.5510   26.3330   22.0320 C.ar   35  TRP35       0.0001
     51  CH2      -13.8410   25.1900   21.2670 C.ar   35  TRP35       0.0015
     52  N        -14.6160   30.6920   17.7850 N.am   36  GLN36      -0.1965
     53  CA       -14.6810   31.0940   16.3730 C.3    36  GLN36       0.1733
     54  C        -16.1540   31.1930   15.9900 C.2    36  GLN36       0.2616
     55  O        -17.0000   30.5520   16.6250 O.2    36  GLN36      -0.2715
     56  CB       -13.9460   30.0940   15.4700 C.3    36  GLN36       0.0408
     57  CG       -14.5710   28.6970   15.3970 C.3    36  GLN36       0.0908
     58  CD       -13.6920   27.6740   14.6960 C.2    36  GLN36       0.2608
     59  OE1      -12.4970   27.8760   14.5420 O.2    36  GLN36      -0.2717
     60  NE2      -14.2770   26.5550   14.2970 N.am   36  GLN36      -0.0878
     61  N        -16.4540   31.9870   14.9630 N.am   37  TYR37      -0.1974
     62  CA       -17.8430   32.2610   14.5730 C.3    37  TYR37       0.1639
     63  C        -17.9650   32.5040   13.0690 C.2    37  TYR37       0.2290
     64  O        -17.1140   33.1600   12.4700 O.2    37  TYR37      -0.2864
     65  CB       -18.3820   33.4580   15.3700 C.3    37  TYR37       0.0560
     66  CG       -19.8690   33.7430   15.1920 C.ar   37  TYR37      -0.0198
     67  CD1      -20.3060   34.9950   14.7570 C.ar   37  TYR37      -0.0009
     68  CD2      -20.8340   32.7650   15.4570 C.ar   37  TYR37      -0.0009
     69  CE1      -21.6560   35.2690   14.5940 C.ar   37  TYR37       0.0417
     70  CE2      -22.1900   33.0300   15.2950 C.ar   37  TYR37       0.0417
     71  CZ       -22.5940   34.2830   14.8620 C.ar   37  TYR37       0.1957
     72  OH       -23.9340   34.5500   14.6860 O.3    37  TYR37      -0.2866
     73  N        -20.7450   41.2660   14.5230 N.3    42  TYR42      -0.1241
     74  CA       -21.2160   41.7760   15.8110 C.3    42  TYR42       0.1605
     75  C        -20.0660   42.4450   16.5420 C.2    42  TYR42       0.2264
     76  O        -18.9020   42.0960   16.3140 O.2    42  TYR42      -0.2867
     77  CB       -21.7880   40.6510   16.6820 C.3    42  TYR42       0.0534
     78  CG       -22.9950   39.9380   16.1050 C.ar   42  TYR42      -0.0201
     79  CD1      -24.1360   40.6440   15.7170 C.ar   42  TYR42      -0.0009
     80  CD2      -23.0050   38.5440   15.9810 C.ar   42  TYR42      -0.0009
     81  CE1      -25.2450   39.9890   15.1980 C.ar   42  TYR42       0.0417
     82  CE2      -24.1020   37.8800   15.4630 C.ar   42  TYR42       0.0417
     83  CZ       -25.2160   38.6020   15.0740 C.ar   42  TYR42       0.1957
     84  OH       -26.3100   37.9340   14.5580 O.3    42  TYR42      -0.2866
     85  N        -18.7940   42.1010   19.4220 N.3    44  ASP44      -0.1225
     86  CA       -17.9020   41.2640   20.2400 C.3    44  ASP44       0.1805
     87  C        -16.7980   40.5470   19.4300 C.2    44  ASP44       0.2597
     88  O        -15.9470   39.8490   19.9900 O.2    44  ASP44      -0.2718
     89  CB       -18.6950   40.3130   21.1610 C.3    44  ASP44       0.1424
     90  CG       -19.5200   39.2820   20.3980 C.2    44  ASP44       0.3668
     91  OD1      -19.3340   39.1070   19.1730 O.co2  44  ASP44      -0.2456
     92  OD2      -20.3640   38.6330   21.0480 O.co2  44  ASP44      -0.2456
     93  N        -16.8260   40.7480   18.1160 N.am   45  GLN45      -0.1979
     94  CA       -15.7720   40.3190   17.1950 C.3    45  GLN45       0.1601
     95  C        -14.7530   41.4380   16.9480 C.2    45  GLN45       0.2287
     96  O        -13.7910   41.2540   16.2070 O.2    45  GLN45      -0.2864
     97  CB       -16.3910   39.8910   15.8590 C.3    45  GLN45       0.0394
     98  CG       -17.3710   38.7330   15.9880 C.3    45  GLN45       0.0908
     99  CD       -18.4450   38.6990   14.9100 C.2    45  GLN45       0.2608
    100  OE1      -19.4300   37.9700   15.0400 O.2    45  GLN45      -0.2717
    101  NE2      -18.2670   39.4710   13.8500 N.am   45  GLN45      -0.0878
@<TRIPOS>BOND
     1    64    63    2
     2    63    62    1
     3   101    99   am
     4    60    58   am
     5    73    74    1
     6    59    58    2
     7    84    83    1
     8    62    61    1
     9    62    65    1
    10    69    67   ar
    11    69    71   ar
    12    72    71    1
    13    58    57    1
    14    67    66   ar
    15    71    70   ar
    16    99   100    2
    17    99    98    1
    18    61    54   am
    19    83    81   ar
    20    83    82   ar
    21    66    65    1
    22    66    68   ar
    23    81    79   ar
    24    70    68   ar
    25    57    56    1
    26    82    80   ar
    27    56    53    1
    28    79    78   ar
    29    74    75    1
    30    74    77    1
    31    97    98    1
    32    97    94    1
    33    80    78   ar
    34    54    53    1
    35    54    55    2
    36    78    77    1
    37    96    95    2
    38    76    75    2
    39    53    52    1
    40    95    94    1
    41    94    93    1
    42    52    40   am
    43    93    87   am
    44     1     2    1
    45    41    40    2
    46    40    39    1
    47    46    44   ar
    48    46    47   ar
    49    44    43   ar
    50     8    10   ar
    51     8     6   ar
    52     5     2    1
    53     5     6    1
    54    91    90   ar
    55     2     3    1
    56    85    86    1
    57    87    88    2
    58    87    86    1
    59    10    11   ar
    60     6     7   ar
    61    47    49   ar
    62    47    45   ar
    63    43    42    1
    64    43    45   ar
    65    49    51   ar
    66    39    42    1
    67    39    38    1
    68    86    89    1
    69    90    92   ar
    70    90    89    1
    71    45    48   ar
    72     3     4    2
    73    11    12    1
    74    11     9   ar
    75     7     9   ar
    76    51    50   ar
    77    48    50   ar
    78    23    21    1
    79    36    37    1
    80    36    35    1
    81    21    22    1
    82    21    20    2
    83    37    31    1
    84    19    20    1
    85    19    18    1
    86    35    32    1
    87    34    33    2
    88    13    14    1
    89    18    17    1
    90    17    14    1
    91    31    32    1
    92    31    26   am
    93    33    32    1
    94    14    15    1
    95    27    26    2
    96    26    25    1
    97    15    16    2
    98    25    24    1
    99    25    28    1
   100    24    30    1
   101    28    29    1
   102    30    29    1
