@<TRIPOS>MOLECULE
tmp/4i50F00.pdb
 166 154 0 0 0
SMALL
GASTEIGER

@<TRIPOS>ATOM
      1  N         14.2950   55.7850   94.4650 N.3    74  LYS74      -0.1245
      2  CA        14.2650   55.9650   95.9120 C.3    74  LYS74       0.1561
      3  C         14.9870   57.2460   96.3120 C.2    74  LYS74       0.2260
      4  O         14.4080   58.1310   96.9400 O.2    74  LYS74      -0.2867
      5  CB        14.9290   54.7870   96.6320 C.3    74  LYS74       0.0271
      6  CG        14.5720   53.4050   96.1120 C.3    74  LYS74       0.0035
      7  CD        13.0810   53.2250   95.9260 C.3    74  LYS74       0.0206
      8  CE        12.7320   51.7600   95.7340 C.3    74  LYS74       0.1093
      9  NZ        12.8130   50.9920   97.0080 N.3    74  LYS74      -0.1314
     10  N          7.6460   59.4320  104.9680 N.3    95  PRO95      -0.2116
     11  CA         8.5230   59.1010  106.0990 C.3    95  PRO95       0.1372
     12  C          9.8940   59.7530  105.9690 C.2    95  PRO95       0.2244
     13  O         10.4940   59.6840  104.8920 O.2    95  PRO95      -0.2868
     14  CB         8.6650   57.5740  106.0050 C.3    95  PRO95       0.0268
     15  CG         7.5220   57.1200  105.1600 C.3    95  PRO95       0.0207
     16  CD         7.2790   58.2340  104.1940 C.3    95  PRO95       0.0892
     17  N         14.2310   51.0870  107.9890 N.3   115  ILE115     -0.1245
     18  CA        14.4780   50.1720  106.8830 C.3   115  ILE115      0.1561
     19  C         15.4260   50.8410  105.9030 C.2   115  ILE115      0.2260
     20  O         15.5710   52.0630  105.9060 O.2   115  ILE115     -0.2867
     21  CB        13.1720   49.7670  106.1660 C.3   115  ILE115      0.0252
     22  CG1       13.4490   48.6970  105.1060 C.3   115  ILE115      0.0019
     23  CG2       12.5020   50.9800  105.5270 C.3   115  ILE115      0.0019
     24  CD1       12.2100   47.9330  104.6780 C.3   115  ILE115      0.0001
     25  N         17.1120   50.3070  101.7010 N.3   117  LYS117     -0.1245
     26  CA        17.2860   49.6060  100.4290 C.3   117  LYS117      0.1561
     27  C         17.7270   50.5970   99.3530 C.2   117  LYS117      0.2260
     28  O         17.8530   51.7920   99.6210 O.2   117  LYS117     -0.2867
     29  CB        15.9920   48.9010  100.0080 C.3   117  LYS117      0.0271
     30  CG        15.6020   47.7480  100.9240 C.3   117  LYS117      0.0035
     31  CD        14.5390   46.8510  100.3120 C.3   117  LYS117      0.0206
     32  CE        14.1780   45.7050  101.2530 C.3   117  LYS117      0.1093
     33  NZ        15.3330   44.8090  101.5480 N.3   117  LYS117     -0.1314
     34  N         14.8610   55.1080  105.7080 N.3   137  GLN137     -0.1231
     35  CA        13.6270   55.7770  106.1040 C.3   137  GLN137      0.1698
     36  C         12.9500   55.0530  107.2600 C.2   137  GLN137      0.2592
     37  O         12.9700   53.8230  107.3430 O.2   137  GLN137     -0.2718
     38  CB        12.6600   55.9040  104.9240 C.3   137  GLN137      0.0381
     39  CG        11.9940   54.6100  104.4870 C.3   137  GLN137      0.0905
     40  CD        10.8640   54.8650  103.5100 C.2   137  GLN137      0.2608
     41  OE1       10.4590   56.0090  103.3080 O.2   137  GLN137     -0.2717
     42  NE2       10.3530   53.8030  102.8960 N.am  137  GLN137     -0.0878
     43  N         12.3540   55.8360  108.1510 N.am  138  LYS138     -0.1966
     44  CA        11.6640   55.2910  109.3050 C.3   138  LYS138      0.1728
     45  C         10.7800   54.1260  108.8880 C.2   138  LYS138      0.2616
     46  O         10.0140   54.2220  107.9260 O.2   138  LYS138     -0.2715
     47  CB        10.8190   56.3730  109.9760 C.3   138  LYS138      0.0311
     48  CG        11.6280   57.5100  110.5840 C.3   138  LYS138      0.0038
     49  CD        10.7240   58.5660  111.2070 C.3   138  LYS138      0.0206
     50  CE        11.4700   59.4250  112.2250 C.3   138  LYS138      0.1093
     51  NZ        12.4190   60.3710  111.5870 N.3   138  LYS138     -0.1314
     52  N         10.9130   53.0180  109.6050 N.am  139  TYR139     -0.1960
     53  CA        10.0580   51.8600  109.4010 C.3   139  TYR139      0.1771
     54  C          8.8050   52.0710  110.2370 C.2   139  TYR139      0.2619
     55  O          8.8550   51.9900  111.4600 O.2   139  TYR139     -0.2715
     56  CB        10.7810   50.5800  109.8240 C.3   139  TYR139      0.0574
     57  CG        10.0250   49.3250  109.4690 C.ar  139  TYR139     -0.0198
     58  CD1       10.0450   48.8260  108.1770 C.ar  139  TYR139     -0.0009
     59  CD2        9.2830   48.6430  110.4220 C.ar  139  TYR139     -0.0009
     60  CE1        9.3480   47.6810  107.8440 C.ar  139  TYR139      0.0417
     61  CE2        8.5880   47.5000  110.0970 C.ar  139  TYR139      0.0417
     62  CZ         8.6240   47.0220  108.8110 C.ar  139  TYR139      0.1957
     63  OH         7.9190   45.8800  108.5090 O.3   139  TYR139     -0.2866
     64  N          7.6890   52.3490  109.5720 N.am  140  LEU140     -0.1977
     65  CA         6.4860   52.8340  110.2470 C.3   140  LEU140      0.1596
     66  C          6.3240   52.2820  111.6640 C.2   140  LEU140      0.2287
     67  O          5.9730   53.0260  112.5840 O.2   140  LEU140     -0.2864
     68  CB         5.2350   52.5570  109.4030 C.3   140  LEU140      0.0297
     69  CG         4.8970   53.5860  108.3090 C.3   140  LEU140      0.0022
     70  CD1        5.6210   54.9170  108.5290 C.3   140  LEU140      0.0001
     71  CD2        5.2010   53.0470  106.9100 C.3   140  LEU140      0.0001
     72  N          0.3530   42.7440  108.1100 N.3   152  LYS152     -0.1245
     73  CA         0.6500   43.9980  107.4180 C.3   152  LYS152      0.1561
     74  C          0.3810   43.8790  105.9170 C.2   152  LYS152      0.2260
     75  O          0.2010   42.7800  105.3990 O.2   152  LYS152     -0.2867
     76  CB         2.1130   44.3980  107.6480 C.3   152  LYS152      0.0271
     77  CG         2.8480   44.7970  106.3770 C.3   152  LYS152      0.0035
     78  CD         4.3390   44.9760  106.5910 C.3   152  LYS152      0.0206
     79  CE         4.6660   46.2760  107.3000 C.3   152  LYS152      0.1093
     80  NZ         6.0200   46.7540  106.9120 N.3   152  LYS152     -0.1314
     81  N          0.4330   46.5060  101.8740 N.3   154  ASP154     -0.1239
     82  CA         0.6350   47.7920  101.2140 C.3   154  ASP154      0.1674
     83  C         -0.3690   47.9590  100.0770 C.2   154  ASP154      0.2266
     84  O         -0.8900   46.9730   99.5500 O.2   154  ASP154     -0.2867
     85  CB         2.0730   47.9330  100.6980 C.3   154  ASP154      0.1410
     86  CG         2.3540   47.0680   99.4840 C.2   154  ASP154      0.3668
     87  OD1        3.3700   46.3440   99.4970 O.co2 154  ASP154     -0.2456
     88  OD2        1.5760   47.1190   98.5090 O.co2 154  ASP154     -0.2456
     89  N         -1.2480   49.4130   96.2610 N.3   156  ARG156     -0.1245
     90  CA        -0.7260   49.8420   94.9760 C.3   156  ARG156      0.1563
     91  C         -1.8420   50.5480   94.2270 C.2   156  ARG156      0.2260
     92  O         -2.9680   50.0580   94.1800 O.2   156  ARG156     -0.2867
     93  CB        -0.2140   48.6380   94.1750 C.3   156  ARG156      0.0307
     94  CG        -0.1260   48.8570   92.6580 C.3   156  ARG156      0.0489
     95  CD         0.9250   49.8880   92.2780 C.3   156  ARG156      0.2205
     96  NE         2.2790   49.4390   92.5920 N.pl3 156  ARG156     -0.0865
     97  CZ         3.0000   48.6170   91.8320 C.cat 156  ARG156      0.5346
     98  NH1        2.5030   48.1300   90.7020 N.pl3 156  ARG156      0.1354
     99  NH2        4.2240   48.2730   92.2090 N.pl3 156  ARG156      0.1354
    100  N         -1.2780   44.3080   98.3990 N.3   176  ARG176     -0.1245
    101  CA        -0.3490   43.1880   98.5010 C.3   176  ARG176      0.1563
    102  C         -0.1640   42.8700   99.9830 C.2   176  ARG176      0.2260
    103  O          0.3190   43.7080  100.7460 O.2   176  ARG176     -0.2867
    104  CB         0.9980   43.5260   97.8540 C.3   176  ARG176      0.0307
    105  CG         0.9880   43.5140   96.3300 C.3   176  ARG176      0.0489
    106  CD         0.6540   44.8780   95.7500 C.3   176  ARG176      0.2205
    107  NE         1.6920   45.8740   96.0180 N.pl3 176  ARG176     -0.0865
    108  CZ         2.7410   46.1170   95.2330 C.cat 176  ARG176      0.5346
    109  NH1        2.9260   45.4380   94.1060 N.pl3 176  ARG176      0.1354
    110  NH2        3.6140   47.0510   95.5810 N.pl3 176  ARG176      0.1354
    111  N          6.7340   42.4060  101.9250 N.3   179  THR179     -0.1203
    112  CA         5.3340   42.3290  101.5170 C.3   179  THR179      0.1994
    113  C          5.1930   42.0220  100.0260 C.2   179  THR179      0.2617
    114  O          4.1030   41.6840   99.5570 O.2   179  THR179     -0.2717
    115  CB         4.5920   43.6440  101.8070 C.3   179  THR179      0.1784
    116  OG1        4.9970   44.1560  103.0820 O.3   179  THR179     -0.2211
    117  CG2        3.0850   43.4230  101.8010 C.3   179  THR179      0.0376
    118  N          6.2930   42.1420   99.2870 N.am  180  ASN180     -0.1974
    119  CA         6.2870   41.8800   97.8510 C.3   180  ASN180      0.1688
    120  C          5.7000   40.5130   97.5370 C.2   180  ASN180      0.2292
    121  O          5.9740   39.5380   98.2360 O.2   180  ASN180     -0.2864
    122  CB         7.7070   41.9550   97.2930 C.3   180  ASN180      0.1181
    123  CG         8.4010   43.2530   97.6400 C.2   180  ASN180      0.2629
    124  OD1        7.9890   43.9610   98.5590 O.2   180  ASN180     -0.2716
    125  ND2        9.4630   43.5720   96.9070 N.am  180  ASN180     -0.0877
    126  N          3.0300   53.2650   95.6140 N.3   249  ASP249     -0.1239
    127  CA         2.9580   52.3310   96.7360 C.3   249  ASP249      0.1674
    128  C          2.7130   53.0840   98.0460 C.2   249  ASP249      0.2266
    129  O          3.4450   54.0190   98.3810 O.2   249  ASP249     -0.2867
    130  CB         4.2560   51.5190   96.8390 C.3   249  ASP249      0.1410
    131  CG         4.4490   50.5610   95.6710 C.2   249  ASP249      0.3668
    132  OD1        3.4440   50.0720   95.1140 O.co2 249  ASP249     -0.2456
    133  OD2        5.6140   50.2910   95.3130 O.co2 249  ASP249     -0.2456
    134  N          1.6690   52.9190  102.4150 N.3   251  MET251     -0.1245
    135  CA         1.4900   52.2070  103.6770 C.3   251  MET251      0.1570
    136  C          0.4750   52.9700  104.5280 C.2   251  MET251      0.2261
    137  O          0.4780   54.2000  104.5540 O.2   251  MET251     -0.2867
    138  CB         2.8180   52.0870  104.4310 C.3   251  MET251      0.0387
    139  CG         3.4770   50.7090  104.3440 C.3   251  MET251      0.0595
    140  SD         2.6850   49.4590  105.3680 S.3   251  MET251     -0.1393
    141  CE         3.1020   50.0600  107.0020 C.3   251  MET251      0.0692
    142  N          5.3060   55.2020   99.9940 N.3   261  ILE261     -0.1231
    143  CA         6.5400   54.4150  100.0440 C.3   261  ILE261      0.1692
    144  C          7.4310   54.7340   98.8440 C.2   261  ILE261      0.2591
    145  O          8.5760   55.1570   99.0010 O.2   261  ILE261     -0.2718
    146  CB         6.2630   52.8990  100.0410 C.3   261  ILE261      0.0266
    147  CG1        5.2420   52.5270  101.1150 C.3   261  ILE261      0.0019
    148  CG2        7.5560   52.1240  100.2610 C.3   261  ILE261      0.0020
    149  CD1        4.6810   51.1310  100.9330 C.3   261  ILE261      0.0001
    150  N          6.9030   54.5220   97.6440 N.am  262  GLU262     -0.1979
    151  CA         7.6400   54.8270   96.4240 C.3   262  GLU262      0.1602
    152  C          6.6950   54.9740   95.2340 C.2   262  GLU262      0.2287
    153  O          5.4840   54.7850   95.3620 O.2   262  GLU262     -0.2864
    154  CB         8.6500   53.7190   96.1280 C.3   262  GLU262      0.0415
    155  CG         8.0290   52.4620   95.5500 C.3   262  GLU262      0.1163
    156  CD         9.0680   51.5060   95.0120 C.2   262  GLU262      0.3649
    157  OE1        9.2310   51.4380   93.7770 O.co2 262  GLU262     -0.2457
    158  OE2        9.7270   50.8250   95.8220 O.co2 262  GLU262     -0.2457
    159  N          6.6250   53.5770   91.1020 N.3   264  ASN264     -0.1240
    160  CA         7.2660   52.7950   90.0530 C.3   264  ASN264      0.1653
    161  C          6.9210   53.3530   88.6860 C.2   264  ASN264      0.2266
    162  O          5.7550   53.6370   88.4070 O.2   264  ASN264     -0.2867
    163  CB         6.8310   51.3350   90.1400 C.3   264  ASN264      0.1155
    164  CG         7.2190   50.6940   91.4540 C.2   264  ASN264      0.2627
    165  OD1        6.3670   50.2030   92.1970 O.2   264  ASN264     -0.2716
    166  ND2        8.5130   50.7030   91.7540 N.am  264  ASN264     -0.0877
@<TRIPOS>BOND
     1   162   161    2
     2   161   160    1
     3   160   163    1
     4   160   159    1
     5   163   164    1
     6    98    97    1
     7   164   166   am
     8   164   165    2
     9    97    99    1
    10    97    96    2
    11    95    96    1
    12    95    94    1
    13    94    93    1
    14   157   156   ar
    15   109   108    1
    16    93    90    1
    17    92    91    2
    18    91    90    1
    19     1     2    1
    20    90    89    1
    21   156   155    1
    22   156   158   ar
    23   132   131   ar
    24   108   110    1
    25   108   107    2
    26   152   153    2
    27   152   151    1
    28   133   131   ar
    29   155   154    1
    30   126   127    1
    31   131   130    1
    32     8     7    1
    33     8     9    1
    34   106   107    1
    35   106   105    1
    36     2     3    1
    37     2     5    1
    38     7     6    1
    39     6     5    1
    40   154   151    1
    41     3     4    2
    42   105   104    1
    43   151   150    1
    44   127   130    1
    45   127   128    1
    46   125   123   am
    47   122   123    1
    48   122   119    1
    49   120   119    1
    50   120   121    2
    51   123   124    2
    52   150   144   am
    53   119   118    1
    54   104   101    1
    55   128   129    2
    56   100   101    1
    57   101   102    1
    58    88    86   ar
    59   144   145    2
    60   144   143    1
    61   118   113   am
    62    27    28    2
    63    27    26    1
    64    86    87   ar
    65    86    85    1
    66    84    83    2
    67   114   113    2
    68   102   103    2
    69   142   143    1
    70    29    26    1
    71    29    30    1
    72   113   112    1
    73   146   143    1
    74   146   148    1
    75   146   147    1
    76    83    82    1
    77    31    30    1
    78    31    32    1
    79    26    25    1
    80    85    82    1
    81   149   147    1
    82    82    81    1
    83    32    33    1
    84   112   115    1
    85   112   111    1
    86   117   115    1
    87   115   116    1
    88   134   135    1
    89    42    40   am
    90    41    40    2
    91    40    39    1
    92   135   138    1
    93   135   136    1
    94    16    10    1
    95    16    15    1
    96   139   138    1
    97   139   140    1
    98    39    38    1
    99   136   137    2
   100    24    22    1
   101    13    12    2
   102    38    35    1
   103    10    11    1
   104    22    21    1
   105    15    14    1
   106   140   141    1
   107    75    74    2
   108    23    21    1
   109    34    35    1
   110    19    20    2
   111    19    18    1
   112    74    73    1
   113    12    11    1
   114    14    11    1
   115    35    36    1
   116    21    18    1
   117    77    78    1
   118    77    76    1
   119    78    79    1
   120    18    17    1
   121    71    69    1
   122    80    79    1
   123    36    37    2
   124    36    43   am
   125    73    76    1
   126    73    72    1
   127    60    58   ar
   128    60    62   ar
   129    46    45    2
   130    43    44    1
   131    58    57   ar
   132    69    70    1
   133    69    68    1
   134    63    62    1
   135    62    61   ar
   136    45    44    1
   137    45    52   am
   138    44    47    1
   139    53    52    1
   140    53    56    1
   141    53    54    1
   142    68    65    1
   143    57    56    1
   144    57    59   ar
   145    64    54   am
   146    64    65    1
   147    47    48    1
   148    61    59   ar
   149    54    55    2
   150    65    66    1
   151    48    49    1
   152    49    50    1
   153    51    50    1
   154    66    67    2
