@<TRIPOS>MOLECULE
tmp/4i50D02.pdb
 161 153 0 0 0
SMALL
GASTEIGER

@<TRIPOS>ATOM
      1  N          4.4020  -12.7910  -35.7590 N.3   210  CYS210     -0.1235
      2  CA         3.6940  -12.8860  -37.0340 C.3   210  CYS210      0.1677
      3  C          2.8190  -14.1260  -37.1030 C.2   210  CYS210      0.2270
      4  O          1.6550  -14.0670  -37.4960 O.2   210  CYS210     -0.2867
      5  CB         4.6940  -12.9450  -38.1880 C.3   210  CYS210      0.0956
      6  SG         5.5370  -11.4060  -38.5160 S.3   210  CYS210     -0.0801
      7  N         -0.3880  -12.4430  -35.1720 N.3   214  LEU214     -0.1245
      8  CA        -0.9240  -11.8610  -36.4040 C.3   214  LEU214      0.1561
      9  C         -1.5280  -12.9000  -37.3530 C.2   214  LEU214      0.2260
     10  O         -2.0930  -12.5450  -38.3910 O.2   214  LEU214     -0.2867
     11  CB         0.1730  -11.0800  -37.1280 C.3   214  LEU214      0.0270
     12  CG         0.7300   -9.9030  -36.3260 C.3   214  LEU214      0.0019
     13  CD1        1.7950   -9.1610  -37.1150 C.3   214  LEU214      0.0001
     14  CD2       -0.4030   -8.9630  -35.9230 C.3   214  LEU214      0.0001
     15  N         -0.2520  -14.8670  -39.4350 N.3   216  LEU216     -0.1245
     16  CA         0.3540  -14.9340  -40.7580 C.3   216  LEU216      0.1561
     17  C          0.9330  -16.3270  -40.9540 C.2   216  LEU216      0.2260
     18  O          1.8870  -16.7170  -40.2810 O.2   216  LEU216     -0.2867
     19  CB         1.4520  -13.8790  -40.9110 C.3   216  LEU216      0.0270
     20  CG         1.0020  -12.4320  -40.6920 C.3   216  LEU216      0.0019
     21  CD1        2.1860  -11.4780  -40.7780 C.3   216  LEU216      0.0001
     22  CD2       -0.0710  -12.0480  -41.6990 C.3   216  LEU216      0.0001
     23  N          9.5380   -9.1320  -45.2490 N.3   222  GLY222     -0.1210
     24  CA         8.7720   -7.8970  -45.2530 C.3   222  GLY222      0.1956
     25  C          7.9830   -7.7550  -43.9610 C.2   222  GLY222      0.2611
     26  O          7.9360   -6.6830  -43.3560 O.2   222  GLY222     -0.2717
     27  N          7.3730   -8.8520  -43.5260 N.am  223  ASP223     -0.1973
     28  CA         6.5820   -8.8480  -42.3040 C.3   223  ASP223      0.1709
     29  C          7.4800   -8.5850  -41.0980 C.2   223  ASP223      0.2293
     30  O          7.2140   -7.6860  -40.3070 O.2   223  ASP223     -0.2864
     31  CB         5.8250  -10.1730  -42.1500 C.3   223  ASP223      0.1436
     32  CG         4.7460  -10.3560  -43.2120 C.2   223  ASP223      0.3671
     33  OD1        3.9930   -9.3900  -43.4670 O.co2 223  ASP223     -0.2456
     34  OD2        4.6550  -11.4580  -43.8030 O.co2 223  ASP223     -0.2456
     35  N          8.6530   -4.9090  -41.0250 N.3   226  HIS226     -0.1226
     36  CA         7.6940   -3.8750  -40.6870 C.3   226  HIS226      0.1752
     37  C          7.6520   -3.7380  -39.1680 C.2   226  HIS226      0.2595
     38  O          7.5400   -2.6300  -38.6420 O.2   226  HIS226     -0.2718
     39  CB         6.3080   -4.1880  -41.2480 C.3   226  HIS226      0.0759
     40  CG         5.4970   -2.9670  -41.5510 C.ar  226  HIS226      0.0818
     41  ND1        4.2950   -3.0170  -42.2240 N.ar  226  HIS226     -0.2268
     42  CD2        5.7210   -1.6600  -41.2780 C.ar  226  HIS226      0.1154
     43  CE1        3.8120   -1.7930  -42.3480 C.ar  226  HIS226      0.1986
     44  NE2        4.6590   -0.9510  -41.7830 N.ar  226  HIS226     -0.2212
     45  N          7.7520   -4.8710  -38.4720 N.am  227  LEU227     -0.1980
     46  CA         7.8080   -4.8820  -37.0140 C.3   227  LEU227      0.1596
     47  C          9.0590   -4.1570  -36.5230 C.2   227  LEU227      0.2287
     48  O          9.0110   -3.4350  -35.5220 O.2   227  LEU227     -0.2864
     49  CB         7.8010   -6.3190  -36.4770 C.3   227  LEU227      0.0297
     50  CG         6.5160   -7.1310  -36.6580 C.3   227  LEU227      0.0022
     51  CD1        6.7040   -8.5550  -36.1730 C.3   227  LEU227      0.0001
     52  CD2        5.3500   -6.4830  -35.9360 C.3   227  LEU227      0.0001
     53  N          8.7840   -0.3280  -37.1460 N.3   230  ALA230     -0.1245
     54  CA         7.8180    0.2360  -36.2150 C.3   230  ALA230      0.1562
     55  C          8.4800    0.4030  -34.8520 C.2   230  ALA230      0.2260
     56  O          8.3770    1.4570  -34.2360 O.2   230  ALA230     -0.2867
     57  CB         6.5910   -0.6490  -36.1160 C.3   230  ALA230      0.0290
     58  N          6.3890   -3.3670  -29.0880 N.3   269  PHE269     -0.1241
     59  CA         5.5650   -2.3800  -29.7710 C.3   269  PHE269      0.1605
     60  C          4.0960   -2.7230  -29.6200 C.2   269  PHE269      0.2264
     61  O          3.7320   -3.8890  -29.5870 O.2   269  PHE269     -0.2867
     62  CB         5.9260   -2.3100  -31.2590 C.3   269  PHE269      0.0534
     63  CG         5.0650   -1.3540  -32.0440 C.ar  269  PHE269     -0.0203
     64  CD1        5.4670   -0.0400  -32.2450 C.ar  269  PHE269     -0.0042
     65  CD2        3.8470   -1.7680  -32.5720 C.ar  269  PHE269     -0.0042
     66  CE1        4.6740    0.8500  -32.9670 C.ar  269  PHE269     -0.0003
     67  CE2        3.0500   -0.8880  -33.2940 C.ar  269  PHE269     -0.0003
     68  CZ         3.4650    0.4240  -33.4930 C.ar  269  PHE269     -0.0000
     69  N         -0.0370   -0.9990  -30.8540 N.3   271  PRO271     -0.2102
     70  CA        -0.7350   -2.2840  -30.8520 C.3   271  PRO271      0.1504
     71  C         -0.2630   -3.2290  -31.9430 C.2   271  PRO271      0.2576
     72  O          0.2730   -2.7920  -32.9600 O.2   271  PRO271     -0.2718
     73  CB        -2.1720   -1.8790  -31.1660 C.3   271  PRO271      0.0282
     74  CG        -2.0170   -0.7450  -32.0970 C.3   271  PRO271      0.0208
     75  CD        -0.7740    0.0040  -31.6430 C.3   271  PRO271      0.0893
     76  N         -0.4790   -4.5190  -31.7260 N.am  272  LEU272     -0.1966
     77  CA        -0.3130   -5.5280  -32.7680 C.3   272  LEU272      0.1728
     78  C         -1.5400   -6.4290  -32.7290 C.2   272  LEU272      0.2617
     79  O         -1.7970   -7.1040  -31.7280 O.2   272  LEU272     -0.2715
     80  CB         0.9660   -6.3450  -32.5560 C.3   272  LEU272      0.0311
     81  CG         2.2700   -5.5690  -32.7330 C.3   272  LEU272      0.0022
     82  CD1        3.4690   -6.4440  -32.4100 C.3   272  LEU272      0.0001
     83  CD2        2.3700   -5.0210  -34.1480 C.3   272  LEU272      0.0001
     84  N         -2.3080   -6.4250  -33.8130 N.am  273  THR273     -0.1937
     85  CA        -3.5770   -7.1360  -33.8400 C.3   273  THR273      0.2028
     86  C         -3.7930   -7.7800  -35.1920 C.2   273  THR273      0.2643
     87  O         -3.6250   -7.1340  -36.2260 O.2   273  THR273     -0.2714
     88  CB        -4.7500   -6.1770  -33.5910 C.3   273  THR273      0.1808
     89  OG1       -4.3920   -5.2280  -32.5820 O.3   273  THR273     -0.2208
     90  CG2       -5.9840   -6.9460  -33.1600 C.3   273  THR273      0.0379
     91  N         -4.1710   -9.0530  -35.1860 N.am  274  SER274     -0.1935
     92  CA        -4.4630   -9.7690  -36.4240 C.3   274  SER274      0.2055
     93  C         -5.5180   -9.0180  -37.2290 C.2   274  SER274      0.2642
     94  O         -6.3490   -8.3120  -36.6540 O.2   274  SER274     -0.2714
     95  CB        -4.9750  -11.1680  -36.1100 C.3   274  SER274      0.2130
     96  OG        -6.2440  -11.0930  -35.4860 O.3   274  SER274     -0.2179
     97  N         -5.4820   -9.1810  -38.5520 N.am  275  ARG275     -0.1977
     98  CA        -6.4110   -8.4970  -39.4500 C.3   275  ARG275      0.1597
     99  C         -7.8490   -8.6330  -38.9580 C.2   275  ARG275      0.2287
    100  O         -8.5940   -7.6550  -38.9040 O.2   275  ARG275     -0.2864
    101  CB        -6.2910   -9.0550  -40.8770 C.3   275  ARG275      0.0334
    102  CG        -6.7270   -8.0860  -41.9760 C.3   275  ARG275      0.0492
    103  CD        -6.0520   -6.7430  -41.7760 C.3   275  ARG275      0.2205
    104  NE        -5.7460   -6.0220  -43.0080 N.pl3 275  ARG275     -0.0865
    105  CZ        -4.8790   -6.4310  -43.9310 C.cat 275  ARG275      0.5346
    106  NH1       -4.2380   -7.5880  -43.8080 N.pl3 275  ARG275      0.1354
    107  NH2       -4.6660   -5.6820  -44.9970 N.pl3 275  ARG275      0.1354
    108  N         -8.9110   -6.6750  -35.5670 N.3   278  GLN278     -0.1245
    109  CA        -8.8520   -5.2130  -35.5430 C.3   278  GLN278      0.1566
    110  C        -10.2400   -4.5810  -35.5010 C.2   278  GLN278      0.2260
    111  O        -10.3960   -3.4400  -35.0630 O.2   278  GLN278     -0.2867
    112  CB        -8.0760   -4.6830  -36.7510 C.3   278  GLN278      0.0367
    113  CG        -6.7200   -5.3280  -36.9340 C.3   278  GLN278      0.0905
    114  CD        -5.8100   -4.5310  -37.8410 C.2   278  GLN278      0.2608
    115  OE1       -6.1250   -3.4040  -38.2180 O.2   278  GLN278     -0.2717
    116  NE2       -4.6680   -5.1150  -38.1960 N.am  278  GLN278     -0.0878
    117  N        -11.2580   -5.1420  -31.3040 N.3   281  ARG281     -0.1231
    118  CA       -10.3580   -4.5800  -30.2990 C.3   281  ARG281      0.1694
    119  C        -10.2360   -3.0610  -30.4020 C.2   281  ARG281      0.2592
    120  O         -9.8140   -2.5280  -31.4300 O.2   281  ARG281     -0.2718
    121  CB        -8.9700   -5.2110  -30.4320 C.3   281  ARG281      0.0321
    122  CG        -7.9720   -4.7580  -29.3760 C.3   281  ARG281      0.0489
    123  CD        -6.5500   -5.1650  -29.7460 C.3   281  ARG281      0.2205
    124  NE        -5.5990   -4.8600  -28.6790 N.pl3 281  ARG281     -0.0865
    125  CZ        -4.2750   -4.8870  -28.8150 C.cat 281  ARG281      0.5346
    126  NH1       -3.7280   -5.2010  -29.9820 N.pl3 281  ARG281      0.1354
    127  NH2       -3.4960   -4.5950  -27.7820 N.pl3 281  ARG281      0.1354
    128  N        -10.6000   -2.3740  -29.3230 N.am  282  ALA282     -0.1966
    129  CA       -10.4760   -0.9210  -29.2500 C.3   282  ALA282      0.1728
    130  C         -9.0130   -0.4990  -29.1360 C.2   282  ALA282      0.2616
    131  O         -8.1770   -1.2380  -28.6130 O.2   282  ALA282     -0.2715
    132  CB       -11.2600   -0.3910  -28.0630 C.3   282  ALA282      0.0334
    133  N         -8.7050    0.6930  -29.6290 N.am  283  LEU283     -0.1977
    134  CA        -7.3660    1.2350  -29.4840 C.3   283  LEU283      0.1596
    135  C         -7.3540    2.2340  -28.3310 C.2   283  LEU283      0.2287
    136  O         -7.6260    3.4240  -28.5230 O.2   283  LEU283     -0.2864
    137  CB        -6.9140    1.9060  -30.7800 C.3   283  LEU283      0.0297
    138  CG        -5.4350    2.2890  -30.7940 C.3   283  LEU283      0.0022
    139  CD1       -4.5730    1.0470  -30.6680 C.3   283  LEU283      0.0001
    140  CD2       -5.0760    3.0540  -32.0430 C.3   283  LEU283      0.0001
    141  N         -0.4590    5.9260  -39.8510 N.3   359  GLY359     -0.1210
    142  CA        -1.5480    4.9650  -39.8850 C.3   359  GLY359      0.1956
    143  C         -2.0320    4.4470  -38.5440 C.2   359  GLY359      0.2612
    144  O         -2.6810    3.3990  -38.4790 O.2   359  GLY359     -0.2717
    145  N         -1.7180    5.1750  -37.4760 N.am  360  LEU360     -0.1965
    146  CA        -2.2120    4.8410  -36.1450 C.3   360  LEU360      0.1728
    147  C         -2.5750    6.1190  -35.4200 C.2   360  LEU360      0.2616
    148  O         -1.8400    7.1020  -35.4940 O.2   360  LEU360     -0.2715
    149  CB        -1.1500    4.0840  -35.3500 C.3   360  LEU360      0.0311
    150  CG        -0.9500    2.6130  -35.7070 C.3   360  LEU360      0.0022
    151  CD1        0.3550    2.0990  -35.1300 C.3   360  LEU360      0.0001
    152  CD2       -2.1180    1.7920  -35.1970 C.3   360  LEU360      0.0001
    153  N         -3.7080    6.1160  -34.7260 N.am  361  LYS361     -0.1977
    154  CA        -4.0930    7.2740  -33.9290 C.3   361  LYS361      0.1596
    155  C         -3.2680    7.3230  -32.6440 C.2   361  LYS361      0.2287
    156  O         -2.9930    8.4030  -32.1250 O.2   361  LYS361     -0.2864
    157  CB        -5.6010    7.2930  -33.6350 C.3   361  LYS361      0.0298
    158  CG        -6.1430    6.0310  -33.0110 C.3   361  LYS361      0.0038
    159  CD        -7.6580    5.9510  -33.1230 C.3   361  LYS361      0.0206
    160  CE        -8.1830    4.6590  -32.5120 C.3   361  LYS361      0.1093
    161  NZ        -9.6390    4.4630  -32.7480 N.3   361  LYS361     -0.1314
@<TRIPOS>BOND
     1    24    23    1
     2    24    25    1
     3   107   105    1
     4    25    27   am
     5    25    26    2
     6   105   106    1
     7   105   104    2
     8    34    32   ar
     9    27    28    1
    10    33    32   ar
    11    32    31    1
    12   104   103    1
    13    43    41   ar
    14    43    44   ar
    15    28    31    1
    16    28    29    1
    17    41    40   ar
    18   102   103    1
    19   102   101    1
    20    44    42   ar
    21    22    20    1
    22    40    42   ar
    23    40    39    1
    24    39    36    1
    25    29    30    2
    26    35    36    1
    27    17    16    1
    28    17    18    2
    29    19    16    1
    30    19    20    1
    31   101    98    1
    32    21    20    1
    33    16    15    1
    34    36    37    1
    35   142   141    1
    36   142   143    1
    37    98    99    1
    38    98    97    1
    39    37    38    2
    40    37    45   am
    41    99   100    2
    42    97    93   am
    43   143   144    2
    44   143   145   am
    45     6     5    1
    46    45    46    1
    47    10     9    2
    48   115   114    2
    49   116   114   am
    50     5     2    1
    51   114   113    1
    52     4     3    2
    53   145   146    1
    54     9     8    1
    55    93    94    2
    56    93    92    1
    57    53    54    1
    58    11     8    1
    59    11    12    1
    60    13    12    1
    61     3     2    1
    62     2     1    1
    63    46    47    1
    64    46    49    1
    65   113   112    1
    66   112   109    1
    67    50    49    1
    68    50    51    1
    69    50    52    1
    70    47    48    2
    71    92    95    1
    72    92    91    1
    73     8     7    1
    74    12    14    1
    75    87    86    2
    76    54    57    1
    77    54    55    1
    78   146   147    1
    79   146   149    1
    80    95    96    1
    81   150   149    1
    82   150   152    1
    83   150   151    1
    84   108   109    1
    85   109   110    1
    86   110   111    2
    87   148   147    2
    88   147   153   am
    89    86    91   am
    90    86    85    1
    91    55    56    2
    92   153   154    1
    93    83    81    1
    94   154   157    1
    95   154   155    1
    96    85    84    1
    97    85    88    1
    98    84    78   am
    99   157   158    1
   100    88    90    1
   101    88    89    1
   102    68    67   ar
   103    68    66   ar
   104    67    65   ar
   105   159   158    1
   106   159   160    1
   107    66    64   ar
   108    72    71    2
   109    77    78    1
   110    77    80    1
   111    77    76    1
   112   161   160    1
   113    81    80    1
   114    81    82    1
   115    78    79    2
   116   155   156    2
   117    65    63   ar
   118    64    63   ar
   119    74    75    1
   120    74    73    1
   121    63    62    1
   122   140   138    1
   123    71    76   am
   124    71    70    1
   125    75    69    1
   126   120   119    2
   127   117   118    1
   128    62    59    1
   129    73    70    1
   130    69    70    1
   131   138   137    1
   132   138   139    1
   133   137   134    1
   134   121   118    1
   135   121   122    1
   136   119   118    1
   137   119   128   am
   138   126   125    1
   139    59    60    1
   140    59    58    1
   141   123   122    1
   142   123   124    1
   143   133   134    1
   144   133   130   am
   145    60    61    2
   146   134   135    1
   147   128   129    1
   148   129   130    1
   149   129   132    1
   150   130   131    2
   151   125   124    2
   152   125   127    1
   153   136   135    2
