@<TRIPOS>MOLECULE
tmp/4i53B00.pdb
 189 186 0 0 0
SMALL
GASTEIGER

@<TRIPOS>ATOM
      1  N        -13.4070  -50.9370    5.0000 N.3    64  TRP64      -0.1241
      2  CA       -12.1610  -51.3970    5.6110 C.3    64  TRP64       0.1605
      3  C        -11.4630  -52.4250    4.7190 C.2    64  TRP64       0.2264
      4  O        -10.2430  -52.3830    4.5440 O.2    64  TRP64      -0.2867
      5  CB       -12.4190  -51.9910    7.0000 C.3    64  TRP64       0.0550
      6  CG       -12.3870  -50.9850    8.1110 C.ar   64  TRP64       0.0003
      7  CD1      -13.0710  -49.8060    8.1710 C.ar   64  TRP64       0.0946
      8  CD2      -11.6460  -51.0810    9.3370 C.ar   64  TRP64       0.0152
      9  NE1      -12.7920  -49.1530    9.3500 N.ar   64  TRP64      -0.2442
     10  CE2      -11.9240  -49.9170   10.0860 C.ar   64  TRP64       0.0810
     11  CE3      -10.7770  -52.0360    9.8730 C.ar   64  TRP64       0.0012
     12  CZ2      -11.3620  -49.6820   11.3400 C.ar   64  TRP64       0.0191
     13  CZ3      -10.2200  -51.8020   11.1180 C.ar   64  TRP64       0.0001
     14  CH2      -10.5130  -50.6350   11.8360 C.ar   64  TRP64       0.0015
     15  N        -14.5280  -47.0350   14.3490 N.3   134  VAL134     -0.1231
     16  CA       -14.4320  -48.3560   14.9590 C.3   134  VAL134      0.1692
     17  C        -13.6720  -48.2910   16.2790 C.2   134  VAL134      0.2593
     18  O        -12.5160  -47.8680   16.3130 O.2   134  VAL134     -0.2718
     19  CB       -13.7110  -49.3430   14.0270 C.3   134  VAL134      0.0266
     20  CG1      -13.5330  -50.6890   14.7140 C.3   134  VAL134      0.0020
     21  CG2      -14.4780  -49.5000   12.7220 C.3   134  VAL134      0.0020
     22  N        -14.3180  -48.7120   17.3620 N.am  135  SER135     -0.1938
     23  CA       -13.6840  -48.6950   18.6760 C.3   135  SER135      0.2055
     24  C        -14.4330  -49.5520   19.6880 C.2   135  SER135      0.2643
     25  O        -15.5000  -50.0900   19.3960 O.2   135  SER135     -0.2714
     26  CB       -13.5710  -47.2630   19.1990 C.3   135  SER135      0.2130
     27  OG       -14.8470  -46.7320   19.5140 O.3   135  SER135     -0.2179
     28  N        -13.8620  -49.6740   20.8800 N.am  136  THR136     -0.1950
     29  CA       -14.5010  -50.4040   21.9660 C.3   136  THR136      0.1897
     30  C        -14.4660  -49.5680   23.2310 C.2   136  THR136      0.2313
     31  O        -13.6770  -48.6310   23.3370 O.2   136  THR136     -0.2863
     32  CB       -13.8000  -51.7490   22.2440 C.3   136  THR136      0.1794
     33  OG1      -12.4670  -51.5100   22.7190 O.3   136  THR136     -0.2208
     34  CG2      -13.7470  -52.5980   20.9820 C.3   136  THR136      0.0378
     35  N        -10.6300  -60.8630   25.1790 N.3   222  ASP222     -0.1239
     36  CA        -9.7090  -60.4580   24.1700 C.3   222  ASP222      0.1674
     37  C         -9.3590  -59.0290   24.4220 C.2   222  ASP222      0.2266
     38  O        -10.1460  -58.2960   24.9120 O.2   222  ASP222     -0.2867
     39  CB       -10.3670  -60.6050   22.7980 C.3   222  ASP222      0.1410
     40  CG       -10.2610  -62.0010   22.2230 C.2   222  ASP222      0.3668
     41  OD1       -9.4990  -62.8230   22.7150 O.co2 222  ASP222     -0.2456
     42  OD2      -10.9380  -62.2650   21.2480 O.co2 222  ASP222     -0.2456
     43  N         -9.0970  -56.4600   22.5430 N.3   224  GLU224     -0.1231
     44  CA        -9.8070  -55.4600   21.7890 C.3   224  GLU224      0.1699
     45  C        -10.8940  -54.9300   22.6770 C.2   224  GLU224      0.2592
     46  O        -11.2940  -53.7900   22.5680 O.2   224  GLU224     -0.2718
     47  CB       -10.4270  -56.0650   20.5340 C.3   224  GLU224      0.0402
     48  CG        -9.4900  -56.2130   19.3790 C.3   224  GLU224      0.1161
     49  CD        -8.6600  -57.4580   19.4640 C.2   224  GLU224      0.3649
     50  OE1       -9.0150  -58.3710   20.2110 O.co2 224  GLU224     -0.2457
     51  OE2       -7.6370  -57.5170   18.7920 O.co2 224  GLU224     -0.2457
     52  N        -11.3660  -55.7770   23.5700 N.am  225  ILE225     -0.1980
     53  CA       -12.4530  -55.3930   24.4060 C.3   225  ILE225      0.1595
     54  C        -12.1490  -55.1680   25.8770 C.2   225  ILE225      0.2287
     55  O        -12.9020  -54.5530   26.5410 O.2   225  ILE225     -0.2864
     56  CB       -13.6190  -56.3740   24.2810 C.3   225  ILE225      0.0276
     57  CG1      -13.3320  -57.6120   25.0520 C.3   225  ILE225      0.0022
     58  CG2      -13.8710  -56.7460   22.8590 C.3   225  ILE225      0.0022
     59  CD1      -14.5240  -58.4780   25.1470 C.3   225  ILE225      0.0001
     60  N         -9.7480  -50.0740   22.4680 N.3   229  SER229     -0.1202
     61  CA        -9.0800  -50.2070   21.1810 C.3   229  SER229      0.2020
     62  C         -9.7580  -49.3410   20.1250 C.2   229  SER229      0.2619
     63  O        -10.9650  -49.1080   20.1680 O.2   229  SER229     -0.2717
     64  CB        -9.0350  -51.6670   20.7270 C.3   229  SER229      0.2103
     65  OG       -10.3350  -52.1720   20.5000 O.3   229  SER229     -0.2182
     66  N         -8.9580  -48.8620   19.1820 N.am  230  PHE230     -0.1961
     67  CA        -9.4380  -47.9980   18.1190 C.3   230  PHE230      0.1771
     68  C         -8.3300  -47.8750   17.0800 C.2   230  PHE230      0.2619
     69  O         -7.2110  -48.3390   17.3000 O.2   230  PHE230     -0.2715
     70  CB        -9.7800  -46.6200   18.6850 C.3   230  PHE230      0.0574
     71  CG        -8.6220  -45.9500   19.3610 C.ar  230  PHE230     -0.0200
     72  CD1       -8.2680  -46.2930   20.6540 C.ar  230  PHE230     -0.0042
     73  CD2       -7.8730  -44.9930   18.7000 C.ar  230  PHE230     -0.0042
     74  CE1       -7.1960  -45.6900   21.2760 C.ar  230  PHE230     -0.0003
     75  CE2       -6.8010  -44.3840   19.3200 C.ar  230  PHE230     -0.0003
     76  CZ        -6.4610  -44.7340   20.6100 C.ar  230  PHE230     -0.0000
     77  N         -8.6420  -47.2630   15.9470 N.am  231  ASN231     -0.1972
     78  CA        -7.6340  -47.0470   14.9210 C.3   231  ASN231      0.1688
     79  C         -7.2450  -45.5790   14.8420 C.2   231  ASN231      0.2292
     80  O         -8.1030  -44.7020   14.7800 O.2   231  ASN231     -0.2864
     81  CB        -8.1300  -47.5440   13.5630 C.3   231  ASN231      0.1181
     82  CG        -7.0130  -47.6700   12.5480 C.2   231  ASN231      0.2629
     83  OD1       -6.5830  -46.6810   11.9560 O.2   231  ASN231     -0.2716
     84  ND2       -6.5330  -48.8950   12.3440 N.am  231  ASN231     -0.0877
     85  N         -3.3290  -49.5600   14.9780 N.3   236  PHE236     -0.1241
     86  CA        -4.2730  -50.1090   15.9460 C.3   236  PHE236      0.1605
     87  C         -3.8170  -49.9230   17.3910 C.2   236  PHE236      0.2264
     88  O         -2.9280  -50.6320   17.8680 O.2   236  PHE236     -0.2867
     89  CB        -4.5380  -51.5870   15.6530 C.3   236  PHE236      0.0534
     90  CG        -5.2320  -51.8240   14.3460 C.ar  236  PHE236     -0.0203
     91  CD1       -4.5080  -51.9120   13.1660 C.ar  236  PHE236     -0.0042
     92  CD2       -6.6100  -51.9460   14.2920 C.ar  236  PHE236     -0.0042
     93  CE1       -5.1470  -52.1240   11.9580 C.ar  236  PHE236     -0.0003
     94  CE2       -7.2530  -52.1580   13.0920 C.ar  236  PHE236     -0.0003
     95  CZ        -6.5220  -52.2490   11.9220 C.ar  236  PHE236     -0.0000
     96  N         -4.2450  -50.0580   21.4580 N.3   238  TYR238     -0.1241
     97  CA        -4.9000  -50.7550   22.5580 C.3   238  TYR238      0.1605
     98  C         -4.5410  -50.0470   23.8590 C.2   238  TYR238      0.2264
     99  O         -3.4050  -50.1400   24.3360 O.2   238  TYR238     -0.2867
    100  CB        -4.4780  -52.2260   22.6090 C.3   238  TYR238      0.0534
    101  CG        -5.0350  -53.0700   21.4870 C.ar  238  TYR238     -0.0201
    102  CD1       -4.5630  -52.9300   20.1880 C.ar  238  TYR238     -0.0009
    103  CD2       -6.0220  -54.0160   21.7240 C.ar  238  TYR238     -0.0009
    104  CE1       -5.0670  -53.7010   19.1540 C.ar  238  TYR238      0.0417
    105  CE2       -6.5310  -54.7960   20.6960 C.ar  238  TYR238      0.0417
    106  CZ        -6.0500  -54.6300   19.4140 C.ar  238  TYR238      0.1957
    107  OH        -6.5500  -55.3950   18.3850 O.3   238  TYR238     -0.2866
    108  N         -4.3710  -58.4530   15.1940 N.3   275  ILE275     -0.1231
    109  CA        -5.6810  -57.9670   15.6040 C.3   275  ILE275      0.1692
    110  C         -6.7430  -59.0430   15.4480 C.2   275  ILE275      0.2592
    111  O         -6.7550  -59.7670   14.4620 O.2   275  ILE275     -0.2718
    112  CB        -6.0940  -56.7330   14.7670 C.3   275  ILE275      0.0266
    113  CG1       -5.3840  -55.4740   15.2760 C.3   275  ILE275      0.0019
    114  CG2       -7.5950  -56.5350   14.8030 C.3   275  ILE275      0.0020
    115  CD1       -3.9000  -55.4430   14.9780 C.3   275  ILE275      0.0001
    116  N         -7.6290  -59.1560   16.4330 N.am  276  ASN276     -0.1960
    117  CA        -8.8350  -59.9570   16.2680 C.3   276  ASN276      0.1819
    118  C         -9.8640  -59.1110   15.5290 C.2   276  ASN276      0.2621
    119  O        -10.3070  -58.0840   16.0330 O.2   276  ASN276     -0.2715
    120  CB        -9.3890  -60.4120   17.6180 C.3   276  ASN276      0.1195
    121  CG        -8.4790  -61.3990   18.3240 C.2   276  ASN276      0.2630
    122  OD1       -8.0400  -61.1590   19.4460 O.2   276  ASN276     -0.2716
    123  ND2       -8.1920  -62.5160   17.6680 N.am  276  ASN276     -0.0877
    124  N        -10.2320  -59.5320   14.3270 N.am  277  MET277     -0.1963
    125  CA       -11.0940  -58.7240   13.4690 C.3   277  MET277      0.1736
    126  C        -12.4960  -58.5300   14.0360 C.2   277  MET277      0.2616
    127  O        -13.0650  -59.4370   14.6420 O.2   277  MET277     -0.2715
    128  CB       -11.1810  -59.3420   12.0730 C.3   277  MET277      0.0427
    129  CG        -9.8490  -59.4210   11.3560 C.3   277  MET277      0.0599
    130  SD        -9.9960  -60.1960    9.7390 S.3   277  MET277     -0.1393
    131  CE       -10.4650  -61.8550   10.2010 C.3   277  MET277      0.0692
    132  N        -13.0460  -57.3370   13.8370 N.am  278  TRP278     -0.1974
    133  CA       -14.4260  -57.0610   14.2200 C.3   278  TRP278      0.1640
    134  C        -15.3680  -57.4030   13.0670 C.2   278  TRP278      0.2290
    135  O        -16.5460  -57.6810   13.2780 O.2   278  TRP278     -0.2864
    136  CB       -14.5970  -55.5940   14.6220 C.3   278  TRP278      0.0576
    137  CG       -14.2260  -54.6310   13.5340 C.ar  278  TRP278      0.0006
    138  CD1      -13.0000  -54.0660   13.3230 C.ar  278  TRP278      0.0946
    139  CD2      -15.0820  -54.1200   12.5040 C.ar  278  TRP278      0.0152
    140  NE1      -13.0410  -53.2380   12.2260 N.ar  278  TRP278     -0.2442
    141  CE2      -14.3070  -53.2530   11.7050 C.ar  278  TRP278      0.0810
    142  CE3      -16.4290  -54.3120   12.1790 C.ar  278  TRP278      0.0012
    143  CZ2      -14.8350  -52.5820   10.6020 C.ar  278  TRP278      0.0191
    144  CZ3      -16.9510  -53.6430   11.0810 C.ar  278  TRP278      0.0001
    145  CH2      -16.1550  -52.7880   10.3060 C.ar  278  TRP278      0.0015
    146  N        -15.2120  -59.9990   10.9560 N.3   280  GLU280     -0.1231
    147  CA       -15.4960  -61.4260   10.9430 C.3   280  GLU280      0.1699
    148  C        -14.6100  -62.1060   11.9690 C.2   280  GLU280      0.2592
    149  O        -13.6670  -61.5040   12.4760 O.2   280  GLU280     -0.2718
    150  CB       -15.2050  -62.0120    9.5650 C.3   280  GLU280      0.0402
    151  CG       -13.7330  -61.9550    9.1850 C.3   280  GLU280      0.1161
    152  CD       -13.4520  -62.5700    7.8270 C.2   280  GLU280      0.3649
    153  OE1      -13.2990  -61.8100    6.8500 O.co2 280  GLU280     -0.2457
    154  OE2      -13.3790  -63.8120    7.7410 O.co2 280  GLU280     -0.2457
    155  N        -14.9090  -63.3640   12.2660 N.am  281  VAL281     -0.1966
    156  CA       -14.0850  -64.1310   13.1880 C.3   281  VAL281      0.1727
    157  C        -12.7790  -64.5090   12.5170 C.2   281  VAL281      0.2616
    158  O        -12.7530  -65.3520   11.6260 O.2   281  VAL281     -0.2715
    159  CB       -14.7900  -65.4130   13.6540 C.3   281  VAL281      0.0290
    160  CG1      -13.8460  -66.2490   14.5080 C.3   281  VAL281      0.0023
    161  CG2      -16.0490  -65.0700   14.4270 C.3   281  VAL281      0.0023
    162  N        -11.6920  -63.8760   12.9410 N.am  282  GLY282     -0.1955
    163  CA       -10.3920  -64.1660   12.3760 C.3   282  GLY282      0.1869
    164  C         -9.3360  -63.1960   12.8510 C.2   282  GLY282      0.2309
    165  O         -9.6360  -62.2440   13.5660 O.2   282  GLY282     -0.2863
    166  N        -18.2390  -53.5330   24.5010 N.3   317  GLY317     -0.1210
    167  CA       -17.9700  -53.3410   23.0870 C.3   317  GLY317      0.1956
    168  C        -17.5820  -54.6250   22.3780 C.2   317  GLY317      0.2612
    169  O        -17.6680  -55.7130   22.9460 O.2   317  GLY317     -0.2717
    170  N        -17.1480  -54.5030   21.1280 N.am  318  GLY318     -0.1942
    171  CA       -16.7880  -55.6610   20.3360 C.3   318  GLY318      0.2014
    172  C        -17.6580  -55.7950   19.1000 C.2   318  GLY318      0.2639
    173  O        -17.1570  -55.9900   17.9950 O.2   318  GLY318     -0.2714
    174  N        -18.9690  -55.6950   19.2890 N.am  319  ASP319     -0.1957
    175  CA       -19.9110  -55.7180   18.1760 C.3   319  ASP319      0.1840
    176  C        -20.0850  -54.2970   17.6470 C.2   319  ASP319      0.2621
    177  O        -20.8230  -53.5000   18.2290 O.2   319  ASP319     -0.2715
    178  CB       -21.2550  -56.2840   18.6350 C.3   319  ASP319      0.1450
    179  CG       -22.2370  -56.4650   17.4920 C.2   319  ASP319      0.3671
    180  OD1      -21.9800  -55.9440   16.3840 O.co2 319  ASP319     -0.2456
    181  OD2      -23.2780  -57.1240   17.7040 O.co2 319  ASP319     -0.2456
    182  N        -19.3050  -54.0370   16.5220 N.am  320  MET320     -0.1977
    183  CA       -19.3130  -52.6710   15.9980 C.3   320  MET320      0.1605
    184  C        -20.7050  -52.1700   15.6230 C.2   320  MET320      0.2287
    185  O        -20.9000  -50.9750   15.4140 O.2   320  MET320     -0.2864
    186  CB       -18.3530  -52.5270   14.8130 C.3   320  MET320      0.0413
    187  CG       -16.8950  -52.7150   15.1950 C.3   320  MET320      0.0598
    188  SD       -16.4030  -51.6100   16.5300 S.3   320  MET320     -0.1393
    189  CE       -15.1000  -52.5610   17.3010 C.3   320  MET320      0.0692
@<TRIPOS>BOND
     1     4     3    2
     2     3     2    1
     3     1     2    1
     4     2     5    1
     5   153   152   ar
     6     5     6    1
     7   154   152   ar
     8   152   151    1
     9     6     7   ar
    10     6     8   ar
    11     7     9   ar
    12   151   150    1
    13     8    11   ar
    14     8    10   ar
    15     9    10   ar
    16   150   147    1
    17   130   131    1
    18   130   129    1
    19    11    13   ar
    20    10    12   ar
    21   145   143   ar
    22   145   144   ar
    23   143   141   ar
    24   147   146    1
    25   147   148    1
    26   144   142   ar
    27    13    14   ar
    28    12    14   ar
    29   129   128    1
    30   158   157    2
    31   141   140   ar
    32   141   139   ar
    33    95    93   ar
    34    95    94   ar
    35    83    82    2
    36    93    91   ar
    37   148   155   am
    38   148   149    2
    39   128   125    1
    40   142   139   ar
    41   140   138   ar
    42   155   156    1
    43    84    82   am
    44   163   164    1
    45   163   162    1
    46   139   137   ar
    47   157   162   am
    48   157   156    1
    49    82    81    1
    50    21    19    1
    51   164   165    2
    52   134   135    2
    53   134   133    1
    54    94    92   ar
    55    91    90   ar
    56   156   159    1
    57   138   137   ar
    58   125   126    1
    59   125   124    1
    60   137   136    1
    61    81    78    1
    62   159   161    1
    63   159   160    1
    64   132   126   am
    65   132   133    1
    66    19    20    1
    67    19    16    1
    68   126   127    2
    69   133   136    1
    70    92    90   ar
    71   124   118   am
    72    90    89    1
    73    15    16    1
    74   111   110    2
    75   112   114    1
    76   112   113    1
    77   112   109    1
    78    80    79    2
    79   186   187    1
    80   186   183    1
    81    79    78    1
    82    78    77    1
    83    16    17    1
    84   115   113    1
    85    85    86    1
    86   108   109    1
    87   187   188    1
    88   185   184    2
    89   110   109    1
    90   110   116   am
    91   118   119    2
    92   118   117    1
    93   184   183    1
    94    89    86    1
    95    86    87    1
    96    77    68   am
    97   183   182    1
    98   117   116    1
    99   117   120    1
   100    17    18    2
   101    17    22   am
   102   180   179   ar
   103   182   176   am
   104   188   189    1
   105    68    69    2
   106    68    67    1
   107    22    23    1
   108    87    88    2
   109   179   181   ar
   110   179   178    1
   111   120   121    1
   112   176   175    1
   113   176   177    2
   114   123   121   am
   115   173   172    2
   116    67    70    1
   117    67    66    1
   118   175   178    1
   119   175   174    1
   120   121   122    2
   121   107   106    1
   122    23    26    1
   123    23    24    1
   124    70    71    1
   125    73    75   ar
   126    73    71   ar
   127    51    49   ar
   128   172   174   am
   129   172   171    1
   130   104   106   ar
   131   104   102   ar
   132    66    62   am
   133    26    27    1
   134    75    76   ar
   135    71    72   ar
   136    48    49    1
   137    48    47    1
   138    25    24    2
   139   106   105   ar
   140    49    50   ar
   141    24    28   am
   142    62    63    2
   143    62    61    1
   144   102   101   ar
   145   171   170    1
   146    65    64    1
   147    47    44    1
   148    76    74   ar
   149    72    74   ar
   150   105   103   ar
   151    64    61    1
   152    28    29    1
   153    34    32    1
   154   170   168   am
   155    61    60    1
   156    42    40   ar
   157    96    97    1
   158   101   103   ar
   159   101   100    1
   160    44    43    1
   161    44    45    1
   162    29    32    1
   163    29    30    1
   164    40    41   ar
   165    40    39    1
   166    32    33    1
   167   168   169    2
   168   168   167    1
   169    97   100    1
   170    97    98    1
   171    46    45    2
   172    45    52   am
   173    39    36    1
   174    58    56    1
   175   167   166    1
   176    30    31    2
   177    52    53    1
   178    98    99    2
   179    36    37    1
   180    36    35    1
   181    56    53    1
   182    56    57    1
   183    53    54    1
   184    37    38    2
   185    57    59    1
   186    54    55    2
