@<TRIPOS>MOLECULE
tmp/4i54A00.pdb
 184 181 0 0 0
SMALL
GASTEIGER

@<TRIPOS>ATOM
      1  N         -2.0310   -3.5170   -0.9880 N.3    69  TRP69      -0.1241
      2  CA        -1.3920   -4.8050   -0.7010 C.3    69  TRP69       0.1605
      3  C          0.1530   -4.7720   -0.6470 C.2    69  TRP69       0.2264
      4  O          0.7630   -5.5020    0.1360 O.2    69  TRP69      -0.2867
      5  CB        -1.8530   -5.8710   -1.7020 C.3    69  TRP69       0.0550
      6  CG        -3.1590   -6.4710   -1.3660 C.ar   69  TRP69       0.0003
      7  CD1       -4.3240   -5.8110   -1.0750 C.ar   69  TRP69       0.0946
      8  CD2       -3.4510   -7.8590   -1.2740 C.ar   69  TRP69       0.0152
      9  NE1       -5.3310   -6.7140   -0.8220 N.ar   69  TRP69      -0.2442
     10  CE2       -4.8160   -7.9810   -0.9290 C.ar   69  TRP69       0.0810
     11  CE3       -2.6930   -9.0190   -1.4550 C.ar   69  TRP69       0.0012
     12  CZ2       -5.4320   -9.2160   -0.7530 C.ar   69  TRP69       0.0191
     13  CZ3       -3.3100  -10.2450   -1.2880 C.ar   69  TRP69       0.0001
     14  CH2       -4.6650  -10.3330   -0.9430 C.ar   69  TRP69       0.0015
     15  N        -10.4110   -9.1980   -2.7220 N.3   139  VAL139     -0.1231
     16  CA        -9.6490  -10.0240   -3.6490 C.3   139  VAL139      0.1692
     17  C        -10.0390  -11.4840   -3.4620 C.2   139  VAL139      0.2593
     18  O         -9.8470  -12.0450   -2.3900 O.2   139  VAL139     -0.2718
     19  CB        -8.1420   -9.8600   -3.4410 C.3   139  VAL139      0.0266
     20  CG1       -7.3550  -10.6890   -4.4480 C.3   139  VAL139      0.0020
     21  CG2       -7.7340   -8.3690   -3.5220 C.3   139  VAL139      0.0020
     22  N        -10.5960  -12.0940   -4.5060 N.am  140  SER140     -0.1938
     23  CA       -10.9260  -13.5140   -4.4760 C.3   140  SER140      0.2055
     24  C        -11.0460  -14.1020   -5.8820 C.2   140  SER140      0.2643
     25  O        -11.1570  -13.3600   -6.8510 O.2   140  SER140     -0.2714
     26  CB       -12.2690  -13.7010   -3.7960 C.3   140  SER140      0.2130
     27  OG       -13.2820  -13.5090   -4.7540 O.3   140  SER140     -0.2179
     28  N        -11.0580  -15.4360   -5.9800 N.am  141  THR141     -0.1950
     29  CA       -11.3670  -16.1200   -7.2400 C.3   141  THR141      0.1897
     30  C        -12.6380  -16.9580   -7.1100 C.2   141  THR141      0.2313
     31  O        -13.0200  -17.3260   -5.9960 O.2   141  THR141     -0.2863
     32  CB       -10.2420  -17.0430   -7.6850 C.3   141  THR141      0.1794
     33  OG1      -10.1280  -18.1180   -6.7520 O.3   141  THR141     -0.2208
     34  CG2       -8.9000  -16.2920   -7.7800 C.3   141  THR141      0.0378
     35  N         -3.4330  -23.3070  -11.8730 N.3   229  ASP229     -0.1239
     36  CA        -2.8590  -23.3520  -10.5330 C.3   229  ASP229      0.1674
     37  C         -3.9410  -23.3200   -9.4430 C.2   229  ASP229      0.2266
     38  O         -5.1080  -23.0270   -9.7070 O.2   229  ASP229     -0.2867
     39  CB        -1.8800  -22.1960  -10.3420 C.3   229  ASP229      0.1410
     40  CG        -0.7710  -22.1900  -11.3730 C.2   229  ASP229      0.3668
     41  OD1       -0.3100  -23.2830  -11.7670 O.co2 229  ASP229     -0.2456
     42  OD2       -0.3570  -21.0870  -11.7900 O.co2 229  ASP229     -0.2456
     43  N         -4.8120  -21.3070   -7.0810 N.3   231  GLU231     -0.1231
     44  CA        -5.6140  -20.0830   -6.9070 C.3   231  GLU231      0.1699
     45  C         -6.8770  -20.0150   -7.7780 C.2   231  GLU231      0.2592
     46  O         -7.7690  -19.2100   -7.5070 O.2   231  GLU231     -0.2718
     47  CB        -4.7730  -18.8240   -7.1230 C.3   231  GLU231      0.0402
     48  CG        -3.6590  -18.6540   -6.1080 C.3   231  GLU231      0.1161
     49  CD        -2.4620  -19.5310   -6.4020 C.2   231  GLU231      0.3649
     50  OE1       -2.4130  -20.1220   -7.5020 O.co2 231  GLU231     -0.2457
     51  OE2       -1.5670  -19.6180   -5.5390 O.co2 231  GLU231     -0.2457
     52  N         -6.9500  -20.8820   -8.7930 N.am  232  ILE232     -0.1980
     53  CA        -8.0150  -20.8560   -9.7910 C.3   232  ILE232      0.1595
     54  C         -8.9270  -22.0780   -9.7220 C.2   232  ILE232      0.2287
     55  O        -10.1510  -21.9720   -9.8890 O.2   232  ILE232     -0.2864
     56  CB        -7.4110  -20.7920  -11.1930 C.3   232  ILE232      0.0276
     57  CG1       -6.5700  -19.5350  -11.3160 C.3   232  ILE232      0.0022
     58  CG2       -8.5100  -20.8060  -12.2520 C.3   232  ILE232      0.0022
     59  CD1       -7.3340  -18.3340  -10.8900 C.3   232  ILE232      0.0001
     60  N        -10.1400  -19.2360   -3.9720 N.3   236  SER236     -0.1202
     61  CA        -9.1560  -18.6200   -3.1010 C.3   236  SER236      0.2020
     62  C         -9.5390  -17.1870   -2.6990 C.2   236  SER236      0.2619
     63  O        -10.1230  -16.4230   -3.4790 O.2   236  SER236     -0.2717
     64  CB        -7.7640  -18.6680   -3.7300 C.3   236  SER236      0.2103
     65  OG        -7.7050  -17.8710   -4.8820 O.3   236  SER236     -0.2182
     66  N         -9.1920  -16.8400   -1.4660 N.am  237  PHE237     -0.1961
     67  CA        -9.5240  -15.5520   -0.8710 C.3   237  PHE237      0.1771
     68  C         -8.7160  -15.3170    0.4070 C.2   237  PHE237      0.2619
     69  O         -7.9530  -16.1900    0.8630 O.2   237  PHE237     -0.2715
     70  CB       -11.0240  -15.4880   -0.5570 C.3   237  PHE237      0.0574
     71  CG       -11.4930  -16.5110    0.4550 C.ar  237  PHE237     -0.0200
     72  CD1      -11.7080  -17.8320    0.0870 C.ar  237  PHE237     -0.0042
     73  CD2      -11.7550  -16.1390    1.7670 C.ar  237  PHE237     -0.0042
     74  CE1      -12.1510  -18.7560    0.9910 C.ar  237  PHE237     -0.0003
     75  CE2      -12.2000  -17.0760    2.7020 C.ar  237  PHE237     -0.0003
     76  CZ       -12.3970  -18.3850    2.3100 C.ar  237  PHE237     -0.0000
     77  N         -8.8710  -14.1310    0.9840 N.am  238  ASN238     -0.1972
     78  CA        -8.1230  -13.7870    2.1870 C.3   238  ASN238      0.1688
     79  C         -9.0220  -13.5500    3.3870 C.2   238  ASN238      0.2292
     80  O         -9.9760  -12.7920    3.3080 O.2   238  ASN238     -0.2864
     81  CB        -7.1900  -12.5880    1.9530 C.3   238  ASN238      0.1181
     82  CG        -6.2820  -12.3170    3.1620 C.2   238  ASN238      0.2629
     83  OD1       -6.7520  -11.8610    4.1970 O.2   238  ASN238     -0.2716
     84  ND2       -4.9860  -12.6080    3.0300 N.am  238  ASN238     -0.0877
     85  N         -4.5850  -16.5550    3.7200 N.3   243  PHE243     -0.1241
     86  CA        -5.0070  -17.0210    2.4100 C.3   243  PHE243      0.1605
     87  C         -5.6820  -18.3850    2.4860 C.2   243  PHE243      0.2264
     88  O         -5.0160  -19.4040    2.6900 O.2   243  PHE243     -0.2867
     89  CB        -3.7860  -17.1190    1.4970 C.3   243  PHE243      0.0534
     90  CG        -3.1810  -15.7950    1.1560 C.ar  243  PHE243     -0.0203
     91  CD1       -3.7780  -14.9680    0.2140 C.ar  243  PHE243     -0.0042
     92  CD2       -2.0160  -15.3760    1.7660 C.ar  243  PHE243     -0.0042
     93  CE1       -3.2170  -13.7500   -0.1130 C.ar  243  PHE243     -0.0003
     94  CE2       -1.4540  -14.1420    1.4480 C.ar  243  PHE243     -0.0003
     95  CZ        -2.0530  -13.3330    0.4980 C.ar  243  PHE243     -0.0000
     96  N         -7.7340  -21.5160    0.7040 N.3   245  TYR245     -0.1241
     97  CA        -8.0060  -22.2000   -0.5750 C.3   245  TYR245      0.1605
     98  C         -9.0940  -23.2670   -0.4010 C.2   245  TYR245      0.2264
     99  O         -8.9000  -24.2580    0.3150 O.2   245  TYR245     -0.2867
    100  CB        -6.7470  -22.8210   -1.1860 C.3   245  TYR245      0.0534
    101  CG        -5.6980  -21.8330   -1.6440 C.ar  245  TYR245     -0.0201
    102  CD1       -5.2290  -20.8380   -0.7850 C.ar  245  TYR245     -0.0009
    103  CD2       -5.1420  -21.9080   -2.9220 C.ar  245  TYR245     -0.0009
    104  CE1       -4.2600  -19.9290   -1.1810 C.ar  245  TYR245      0.0417
    105  CE2       -4.1530  -20.9970   -3.3320 C.ar  245  TYR245      0.0417
    106  CZ        -3.7230  -20.0110   -2.4460 C.ar  245  TYR245      0.1957
    107  OH        -2.7680  -19.0900   -2.7990 O.3   245  TYR245     -0.2866
    108  N          1.9490  -18.8260   -2.2770 N.3   271  ILE271     -0.1231
    109  CA         0.8640  -18.5100   -3.1930 C.3   271  ILE271      0.1692
    110  C          1.3680  -17.8650   -4.4890 C.2   271  ILE271      0.2592
    111  O          2.4470  -17.2750   -4.5200 O.2   271  ILE271     -0.2718
    112  CB        -0.1330  -17.5110   -2.5510 C.3   271  ILE271      0.0266
    113  CG1        0.2790  -16.0690   -2.8290 C.3   271  ILE271      0.0019
    114  CG2       -0.2880  -17.7290   -1.0300 C.3   271  ILE271      0.0020
    115  CD1       -0.8370  -15.1090   -2.5670 C.3   271  ILE271      0.0001
    116  N          0.5820  -17.9860   -5.5580 N.am  272  ASN272     -0.1960
    117  CA         0.7930  -17.1970   -6.7690 C.3   272  ASN272      0.1819
    118  C          0.0800  -15.8590   -6.6580 C.2   272  ASN272      0.2621
    119  O         -1.1470  -15.8160   -6.5360 O.2   272  ASN272     -0.2715
    120  CB         0.2460  -17.9150   -7.9860 C.3   272  ASN272      0.1195
    121  CG         0.8680  -19.2720   -8.1880 C.2   272  ASN272      0.2630
    122  OD1        2.0690  -19.3850   -8.4500 O.2   272  ASN272     -0.2716
    123  ND2        0.0490  -20.3190   -8.0920 N.am  272  ASN272     -0.0877
    124  N          0.8430  -14.7730   -6.7200 N.am  273  MET273     -0.1963
    125  CA         0.2970  -13.4500   -6.4760 C.3   273  MET273      0.1736
    126  C         -0.6290  -12.9630   -7.5830 C.2   273  MET273      0.2616
    127  O         -0.2940  -13.0610   -8.7490 O.2   273  MET273     -0.2715
    128  CB         1.4360  -12.4590   -6.3040 C.3   273  MET273      0.0427
    129  CG         2.4840  -12.8980   -5.3060 C.3   273  MET273      0.0599
    130  SD         3.8120  -11.6920   -5.2040 S.3   273  MET273     -0.1393
    131  CE         3.0440  -10.4950   -4.0900 C.3   273  MET273      0.0692
    132  N         -1.7880  -12.4280   -7.2060 N.am  274  TRP274     -0.1974
    133  CA        -2.7410  -11.8970   -8.1740 C.3   274  TRP274      0.1640
    134  C         -2.2120  -10.6630   -8.9120 C.2   274  TRP274      0.2290
    135  O         -2.6420  -10.3750  -10.0290 O.2   274  TRP274     -0.2864
    136  CB        -4.1010  -11.5940   -7.5120 C.3   274  TRP274      0.0576
    137  CG        -4.0320  -10.5880   -6.4180 C.ar  274  TRP274      0.0006
    138  CD1       -3.7710  -10.8270   -5.0920 C.ar  274  TRP274      0.0946
    139  CD2       -4.2020   -9.1830   -6.5470 C.ar  274  TRP274      0.0152
    140  NE1       -3.7680   -9.6460   -4.3880 N.ar  274  TRP274     -0.2442
    141  CE2       -4.0290   -8.6190   -5.2600 C.ar  274  TRP274      0.0810
    142  CE3       -4.4790   -8.3380   -7.6220 C.ar  274  TRP274      0.0012
    143  CZ2       -4.1380   -7.2460   -5.0240 C.ar  274  TRP274      0.0191
    144  CZ3       -4.5840   -6.9790   -7.3870 C.ar  274  TRP274      0.0001
    145  CH2       -4.4150   -6.4460   -6.0940 C.ar  274  TRP274      0.0015
    146  N          0.5930  -10.3910  -10.2260 N.3   276  GLY276     -0.1210
    147  CA         1.1510  -10.8190  -11.4840 C.3   276  GLY276      0.1956
    148  C          2.5470  -11.3580  -11.5380 C.2   276  GLY276      0.2613
    149  O          3.4860  -10.6700  -11.1810 O.2   276  GLY276     -0.2717
    150  N          2.6700  -12.5900  -12.0330 N.am  277  THR277     -0.1938
    151  CA         3.9590  -13.2150  -12.3900 C.3   277  THR277      0.2028
    152  C          4.9460  -13.3190  -11.2300 C.2   277  THR277      0.2642
    153  O          6.0250  -12.7270  -11.2680 O.2   277  THR277     -0.2714
    154  CB         4.6580  -12.4990  -13.5840 C.3   277  THR277      0.1808
    155  OG1        4.8470  -11.1110  -13.2720 O.3   277  THR277     -0.2208
    156  CG2        3.8230  -12.6130  -14.8430 C.3   277  THR277      0.0379
    157  N          4.5790  -14.0790  -10.2050 N.am  278  GLY278     -0.1954
    158  CA         5.4220  -14.2080   -9.0350 C.3   278  GLY278      0.1869
    159  C          4.7330  -14.9110   -7.8770 C.2   278  GLY278      0.2309
    160  O          3.5170  -14.7690   -7.6510 O.2   278  GLY278     -0.2863
    161  N        -11.6740  -17.1870  -12.6770 N.3   319  GLY319     -0.1210
    162  CA       -11.1310  -16.0090  -12.0370 C.3   319  GLY319      0.1956
    163  C         -9.6290  -15.9950  -12.2720 C.2   319  GLY319      0.2612
    164  O         -9.1120  -16.7390  -13.1230 O.2   319  GLY319     -0.2717
    165  N         -8.9200  -15.1750  -11.4980 N.am  320  GLY320     -0.1942
    166  CA        -7.4980  -14.9770  -11.6970 C.3   320  GLY320      0.2014
    167  C         -7.1970  -13.5550  -12.1230 C.2   320  GLY320      0.2639
    168  O         -6.2080  -12.9650  -11.6830 O.2   320  GLY320     -0.2714
    169  N         -8.0370  -12.9950  -12.9890 N.am  321  ASN321     -0.1958
    170  CA        -7.8780  -11.5840  -13.3130 C.3   321  ASN321      0.1819
    171  C         -8.6800  -10.6690  -12.3910 C.2   321  ASN321      0.2621
    172  O         -9.8710  -10.4440  -12.5970 O.2   321  ASN321     -0.2715
    173  CB        -8.1670  -11.2590  -14.7780 C.3   321  ASN321      0.1195
    174  CG        -7.8280   -9.8180  -15.0990 C.2   321  ASN321      0.2630
    175  OD1       -7.2560   -9.1190  -14.2640 O.2   321  ASN321     -0.2716
    176  ND2       -8.1590   -9.3650  -16.3010 N.am  321  ASN321     -0.0877
    177  N         -7.9980  -10.1110  -11.4010 N.am  322  ILE322     -0.1977
    178  CA        -8.6700   -9.3360  -10.3610 C.3   322  ILE322      0.1596
    179  C         -9.3570   -8.0780  -10.9040 C.2   322  ILE322      0.2287
    180  O        -10.3750   -7.6400  -10.3530 O.2   322  ILE322     -0.2864
    181  CB        -7.7250   -9.0650   -9.1660 C.3   322  ILE322      0.0276
    182  CG1       -7.1820  -10.3980   -8.6930 C.3   322  ILE322      0.0022
    183  CG2       -8.4670   -8.4490   -7.9890 C.3   322  ILE322      0.0022
    184  CD1       -8.2680  -11.3190   -8.1850 C.3   322  ILE322      0.0001
@<TRIPOS>BOND
     1   176   174   am
     2   174   173    1
     3   174   175    2
     4   156   154    1
     5   173   170    1
     6   154   155    1
     7   154   151    1
     8   170   169    1
     9   170   171    1
    10   164   163    2
    11   169   167   am
    12   161   162    1
    13   172   171    2
    14   171   177   am
    15   151   150    1
    16   151   152    1
    17   163   162    1
    18   163   165   am
    19    58    56    1
    20   167   166    1
    21   167   168    2
    22   150   148   am
    23    35    36    1
    24    42    40   ar
    25    41    40   ar
    26   166   165    1
    27   148   147    1
    28   148   149    2
    29   147   146    1
    30   177   178    1
    31    40    39    1
    32    57    56    1
    33    57    59    1
    34   153   152    2
    35   152   157   am
    36    56    53    1
    37   179   178    1
    38   179   180    2
    39    36    39    1
    40    36    37    1
    41   178   181    1
    42   157   158    1
    43   135   134    2
    44    55    54    2
    45    53    54    1
    46    53    52    1
    47    38    37    2
    48   181   182    1
    49   181   183    1
    50   158   159    1
    51   134   133    1
    52    52    45   am
    53   127   126    2
    54   182   184    1
    55   122   121    2
    56   121   123   am
    57   121   120    1
    58   133   136    1
    59   133   132    1
    60   120   117    1
    61   159   160    2
    62    34    32    1
    63    45    46    2
    64    45    44    1
    65    32    29    1
    66    32    33    1
    67   142   144   ar
    68   142   139   ar
    69   126   132   am
    70   126   125    1
    71   136   137    1
    72    50    49   ar
    73   144   145   ar
    74    29    30    1
    75    29    28    1
    76    47    44    1
    77    47    48    1
    78    30    31    2
    79    43    44    1
    80    25    24    2
    81   117   118    1
    82   117   116    1
    83   124   118   am
    84   124   125    1
    85   118   119    2
    86   139   137   ar
    87   139   141   ar
    88   125   128    1
    89   137   138   ar
    90    49    48    1
    91    49    51   ar
    92   128   129    1
    93   145   143   ar
    94    28    24   am
    95    24    23    1
    96   116   110   am
    97   129   130    1
    98   141   143   ar
    99   141   140   ar
   100   130   131    1
   101   138   140   ar
   102    65    64    1
   103    27    26    1
   104   111   110    2
   105    22    23    1
   106    22    17   am
   107   110   109    1
   108    23    26    1
   109    20    19    1
   110    60    61    1
   111    64    61    1
   112    16    17    1
   113    16    19    1
   114    16    15    1
   115    21    19    1
   116    63    62    2
   117    17    18    2
   118   105   103   ar
   119   105   106   ar
   120   109   112    1
   121   109   108    1
   122    61    62    1
   123   103   101   ar
   124   113   115    1
   125   113   112    1
   126   107   106    1
   127    62    66   am
   128   112   114    1
   129   106   104   ar
   130     5     6    1
   131     5     2    1
   132   101   100    1
   133   101   102   ar
   134    66    67    1
   135    11    13   ar
   136    11     8   ar
   137     6     8   ar
   138     6     7   ar
   139    13    14   ar
   140     8    10   ar
   141   100    97    1
   142   104   102   ar
   143     7     9   ar
   144     1     2    1
   145    14    12   ar
   146    10     9   ar
   147    10    12   ar
   148    67    70    1
   149    67    68    1
   150     2     3    1
   151     3     4    2
   152    97    98    1
   153    97    96    1
   154    70    71    1
   155    98    99    2
   156    93    91   ar
   157    93    95   ar
   158    72    71   ar
   159    72    74   ar
   160    91    90   ar
   161    68    69    2
   162    68    77   am
   163    71    73   ar
   164    95    94   ar
   165    77    78    1
   166    74    76   ar
   167    90    89    1
   168    90    92   ar
   169    94    92   ar
   170    89    86    1
   171    73    75   ar
   172    81    78    1
   173    81    82    1
   174    78    79    1
   175    76    75   ar
   176    86    87    1
   177    86    85    1
   178    87    88    2
   179    84    82   am
   180    82    83    2
   181    80    79    2
