@<TRIPOS>MOLECULE
tmp/4i54A01.pdb
 99 98 0 0 0
SMALL
GASTEIGER

@<TRIPOS>ATOM
      1  N         -7.3040   11.2320  -13.8390 N.3     8  THR8       -0.1203
      2  CA        -6.8370   10.6400  -12.5960 C.3     8  THR8        0.1994
      3  C         -7.8830   10.9050  -11.5290 C.2     8  THR8        0.2618
      4  O         -8.2700   12.0470  -11.3080 O.2     8  THR8       -0.2717
      5  CB        -5.5020   11.2450  -12.1960 C.3     8  THR8        0.1784
      6  OG1       -5.5690   12.6630  -12.4010 O.3     8  THR8       -0.2211
      7  CG2       -4.3810   10.6850  -13.0620 C.3     8  THR8        0.0376
      8  N         -8.3640    9.8360  -10.9020 N.am    9  LEU9       -0.1965
      9  CA        -9.4390    9.9030   -9.9140 C.3     9  LEU9        0.1728
     10  C         -8.8850   10.0130   -8.4900 C.2     9  LEU9        0.2616
     11  O         -7.7070    9.7110   -8.2400 O.2     9  LEU9       -0.2715
     12  CB       -10.2840    8.6270   -9.9890 C.3     9  LEU9        0.0311
     13  CG       -11.0910    8.2400  -11.2240 C.3     9  LEU9        0.0022
     14  CD1      -11.6860    6.8270  -11.0560 C.3     9  LEU9        0.0001
     15  CD2      -12.1930    9.2610  -11.5110 C.3     9  LEU9        0.0001
     16  N         -9.7380   10.4190   -7.5490 N.am   10  PHE10      -0.1960
     17  CA        -9.3400   10.3890   -6.1370 C.3    10  PHE10       0.1771
     18  C        -10.2820    9.4830   -5.3460 C.2    10  PHE10       0.2619
     19  O        -11.3450    9.1150   -5.8350 O.2    10  PHE10      -0.2715
     20  CB        -9.2080   11.8080   -5.5260 C.3    10  PHE10       0.0574
     21  CG       -10.5170   12.4980   -5.2460 C.ar   10  PHE10      -0.0200
     22  CD1      -11.1770   12.3040   -4.0290 C.ar   10  PHE10      -0.0042
     23  CD2      -11.0680   13.3900   -6.1800 C.ar   10  PHE10      -0.0042
     24  CE1      -12.3850   12.9700   -3.7480 C.ar   10  PHE10      -0.0003
     25  CE2      -12.2800   14.0560   -5.9230 C.ar   10  PHE10      -0.0003
     26  CZ       -12.9350   13.8550   -4.6970 C.ar   10  PHE10      -0.0000
     27  N         -9.9100    9.1130   -4.1310 N.am   11  CYS11      -0.1968
     28  CA       -10.8220    8.2710   -3.3620 C.3    11  CYS11       0.1712
     29  C        -11.3960    8.9270   -2.1060 C.2    11  CYS11       0.2296
     30  O        -10.8340    9.8760   -1.5790 O.2    11  CYS11      -0.2864
     31  CB       -10.1810    6.9140   -3.0400 C.3    11  CYS11       0.0983
     32  SG        -8.6000    7.0100   -2.1830 S.3    11  CYS11      -0.0798
     33  N         -4.3370    2.5990    5.0960 N.3    26  TRP26      -0.1241
     34  CA        -4.1810    3.0110    3.7030 C.3    26  TRP26       0.1605
     35  C         -5.0610    4.2190    3.3800 C.2    26  TRP26       0.2264
     36  O         -4.5530    5.2660    2.9950 O.2    26  TRP26      -0.2867
     37  CB        -4.4510    1.8580    2.7200 C.3    26  TRP26       0.0550
     38  CG        -4.1600    2.2500    1.2930 C.ar   26  TRP26       0.0003
     39  CD1       -2.9380    2.2680    0.6800 C.ar   26  TRP26       0.0946
     40  CD2       -5.1070    2.7010    0.3180 C.ar   26  TRP26       0.0152
     41  NE1       -3.0690    2.6940   -0.6210 N.ar   26  TRP26      -0.2442
     42  CE2       -4.3920    2.9680   -0.8660 C.ar   26  TRP26       0.0810
     43  CE3       -6.4960    2.8980    0.3290 C.ar   26  TRP26       0.0012
     44  CZ2       -5.0270    3.4400   -2.0400 C.ar   26  TRP26       0.0191
     45  CZ3       -7.1270    3.3560   -0.8330 C.ar   26  TRP26       0.0001
     46  CH2       -6.3900    3.6230   -1.9950 C.ar   26  TRP26       0.0015
     47  N         -4.1950    7.6580    4.8810 N.3    29  HIS29      -0.1226
     48  CA        -3.1090    8.3500    4.1970 C.3    29  HIS29       0.1752
     49  C         -3.4740    8.6980    2.7450 C.2    29  HIS29       0.2595
     50  O         -3.0110    9.6980    2.2080 O.2    29  HIS29      -0.2718
     51  CB        -1.8240    7.5050    4.2440 C.3    29  HIS29       0.0759
     52  CG        -1.2750    7.3120    5.6320 C.ar   29  HIS29       0.0818
     53  ND1       -2.0020    7.5900    6.7740 N.ar   29  HIS29      -0.2268
     54  CD2       -0.0640    6.8720    6.0600 C.ar   29  HIS29       0.1154
     55  CE1       -1.2650    7.3330    7.8410 C.ar   29  HIS29       0.1986
     56  NE2       -0.0860    6.8940    7.4350 N.ar   29  HIS29      -0.2212
     57  N         -4.3340    7.8940    2.1240 N.am   30  ALA30      -0.1980
     58  CA        -4.5410    7.9870    0.6760 C.3    30  ALA30       0.1597
     59  C         -5.9140    8.5190    0.1810 C.2    30  ALA30       0.2287
     60  O         -6.0480    8.8700   -0.9940 O.2    30  ALA30      -0.2864
     61  CB        -4.1980    6.6240   -0.0100 C.3    30  ALA30       0.0319
     62  N         -7.5450    2.0820  -12.5440 N.3    60  GLN60      -0.1245
     63  CA        -7.1730    2.9070  -11.3970 C.3    60  GLN60       0.1566
     64  C         -7.4160    2.2080  -10.0390 C.2    60  GLN60       0.2260
     65  O         -6.5960    2.3140   -9.1200 O.2    60  GLN60      -0.2867
     66  CB        -7.8290    4.3080  -11.4730 C.3    60  GLN60       0.0367
     67  CG        -7.3470    5.1100  -12.6540 C.3    60  GLN60       0.0905
     68  CD        -7.7170    6.5640  -12.5820 C.2    60  GLN60       0.2608
     69  OE1       -7.6900    7.1790  -11.5200 O.2    60  GLN60      -0.2717
     70  NE2       -8.0670    7.1320  -13.7230 N.am   60  GLN60      -0.0878
     71  N         -4.6950   -0.3150   -9.4900 N.3    63  GLU63      -0.1231
     72  CA        -3.4760    0.3400   -9.0380 C.3    63  GLU63       0.1699
     73  C         -3.5090    0.5760   -7.5310 C.2    63  GLU63       0.2592
     74  O         -2.5560    0.2310   -6.8210 O.2    63  GLU63      -0.2718
     75  CB        -3.2490    1.6350   -9.8170 C.3    63  GLU63       0.0402
     76  CG        -2.7530    1.3810  -11.2450 C.3    63  GLU63       0.1161
     77  CD        -3.0390    2.5200  -12.2070 C.2    63  GLU63       0.3649
     78  OE1       -3.6470    3.5340  -11.7980 O.co2  63  GLU63      -0.2457
     79  OE2       -2.6580    2.3940  -13.3860 O.co2  63  GLU63      -0.2457
     80  N         -4.6250    1.1270   -7.0560 N.am   64  ASP64      -0.1974
     81  CA        -4.8610    1.3080   -5.6320 C.3    64  ASP64       0.1709
     82  C         -4.7380    0.0160   -4.8250 C.2    64  ASP64       0.2293
     83  O         -4.0340   -0.0200   -3.8200 O.2    64  ASP64      -0.2864
     84  CB        -6.2300    1.9290   -5.3920 C.3    64  ASP64       0.1436
     85  CG        -6.2290    3.4400   -5.5790 C.2    64  ASP64       0.3671
     86  OD1       -5.2110    4.0060   -6.0500 O.co2  64  ASP64      -0.2456
     87  OD2       -7.2630    4.0530   -5.2520 O.co2  64  ASP64      -0.2456
     88  N        -14.8770    6.1540   -5.4060 N.3   101  TYR101     -0.1241
     89  CA       -14.0500    6.7550   -6.4390 C.3   101  TYR101      0.1605
     90  C        -14.7440    7.9520   -7.0310 C.2   101  TYR101      0.2264
     91  O        -15.9120    7.8730   -7.4250 O.2   101  TYR101     -0.2867
     92  CB       -13.6620    5.7210   -7.5130 C.3   101  TYR101      0.0534
     93  CG       -12.5970    4.7810   -6.9950 C.ar  101  TYR101     -0.0201
     94  CD1      -12.9350    3.6730   -6.2240 C.ar  101  TYR101     -0.0009
     95  CD2      -11.2590    5.0290   -7.2280 C.ar  101  TYR101     -0.0009
     96  CE1      -11.9660    2.8190   -5.7320 C.ar  101  TYR101      0.0417
     97  CE2      -10.2840    4.1940   -6.7280 C.ar  101  TYR101      0.0417
     98  CZ       -10.6380    3.0820   -5.9800 C.ar  101  TYR101      0.1957
     99  OH        -9.6600    2.2400   -5.4760 O.3   101  TYR101     -0.2866
@<TRIPOS>BOND
     1     1     2    1
     2    70    68   am
     3    79    77   ar
     4     7     5    1
     5    67    68    1
     6    67    66    1
     7     2     5    1
     8     2     3    1
     9    68    69    2
    10    62    63    1
    11     6     5    1
    12    77    78   ar
    13    77    76    1
    14     3     4    2
    15     3     8   am
    16    15    13    1
    17    66    63    1
    18    63    64    1
    19    76    75    1
    20    13    14    1
    21    13    12    1
    22     8     9    1
    23    64    65    2
    24    12     9    1
    25     9    10    1
    26    75    72    1
    27    71    72    1
    28    72    73    1
    29    10    11    2
    30    10    16   am
    31    16    17    1
    32    73    80   am
    33    73    74    2
    34    92    93    1
    35    92    89    1
    36    91    90    2
    37    95    93   ar
    38    95    97   ar
    39    80    81    1
    40    90    89    1
    41    93    94   ar
    42    97    98   ar
    43    89    88    1
    44    94    96   ar
    45    23    25   ar
    46    23    21   ar
    47    17    20    1
    48    17    18    1
    49    86    85   ar
    50    98    96   ar
    51    98    99    1
    52    25    26   ar
    53    19    18    2
    54    81    84    1
    55    81    82    1
    56    85    84    1
    57    85    87   ar
    58    20    21    1
    59    18    27   am
    60    21    22   ar
    61    82    83    2
    62    26    24   ar
    63    27    28    1
    64    22    24   ar
    65    28    31    1
    66    28    29    1
    67    31    32    1
    68    29    30    2
    69    44    46   ar
    70    44    42   ar
    71    46    45   ar
    72    60    59    2
    73    42    41   ar
    74    42    40   ar
    75    45    43   ar
    76    41    39   ar
    77    61    58    1
    78    59    58    1
    79    40    43   ar
    80    40    38   ar
    81    58    57    1
    82    39    38   ar
    83    38    37    1
    84    57    49   am
    85    50    49    2
    86    37    34    1
    87    49    48    1
    88    36    35    2
    89    35    34    1
    90    34    33    1
    91    48    51    1
    92    48    47    1
    93    51    52    1
    94    52    54   ar
    95    52    53   ar
    96    54    56   ar
    97    53    55   ar
    98    56    55   ar
