@<TRIPOS>MOLECULE
tmp/4i59C01.pdb
 96 93 0 0 0
SMALL
GASTEIGER

@<TRIPOS>ATOM
      1  N         38.1110  222.7610  155.0140 N.3    59  PHE59      -0.1241
      2  CA        36.7690  222.8060  155.5690 C.3    59  PHE59       0.1605
      3  C         36.4780  224.0190  156.4290 C.2    59  PHE59       0.2264
      4  O         37.2350  224.3160  157.3370 O.2    59  PHE59      -0.2867
      5  CB        36.4900  221.5630  156.4040 C.3    59  PHE59       0.0534
      6  CG        36.2980  220.3140  155.6010 C.ar   59  PHE59      -0.0203
      7  CD1       37.3780  219.5210  155.2520 C.ar   59  PHE59      -0.0042
      8  CD2       35.0260  219.9060  155.2350 C.ar   59  PHE59      -0.0042
      9  CE1       37.1870  218.3300  154.5550 C.ar   59  PHE59      -0.0003
     10  CE2       34.8200  218.7200  154.5360 C.ar   59  PHE59      -0.0003
     11  CZ        35.9010  217.9330  154.1990 C.ar   59  PHE59      -0.0000
     12  N         43.6370  211.4580  164.4160 N.3   169  THR169     -0.1203
     13  CA        43.2420  212.2030  163.2360 C.3   169  THR169      0.1994
     14  C         42.9870  213.6870  163.4420 C.2   169  THR169      0.2617
     15  O         43.2690  214.4730  162.5520 O.2   169  THR169     -0.2717
     16  CB        42.0020  211.5560  162.5490 C.3   169  THR169      0.1784
     17  OG1       42.2520  210.1640  162.2490 O.3   169  THR169     -0.2211
     18  CG2       41.7040  212.2800  161.2550 C.3   169  THR169      0.0376
     19  N         42.4610  214.0890  164.5930 N.am  170  LEU170     -0.1979
     20  CA        42.1980  215.5050  164.8400 C.3   170  LEU170      0.1596
     21  C         43.4990  216.2630  165.1240 C.2   170  LEU170      0.2287
     22  O         43.6580  217.4340  164.7700 O.2   170  LEU170     -0.2864
     23  CB        41.2060  215.6690  166.0020 C.3   170  LEU170      0.0297
     24  CG        39.7000  215.8500  165.7380 C.3   170  LEU170      0.0022
     25  CD1       39.4270  215.9570  164.2520 C.3   170  LEU170      0.0001
     26  CD2       38.9520  214.7110  166.3390 C.3   170  LEU170      0.0001
     27  N         32.9790  220.5640  159.8810 N.3   204  GLN204     -0.1245
     28  CA        33.0330  220.1680  158.4900 C.3   204  GLN204      0.1566
     29  C         31.7200  220.4340  157.8020 C.2   204  GLN204      0.2260
     30  O         30.9410  219.5040  157.5830 O.2   204  GLN204     -0.2867
     31  CB        33.3560  218.6770  158.3770 C.3   204  GLN204      0.0367
     32  CG        34.7910  218.2840  158.7350 C.3   204  GLN204      0.0905
     33  CD        35.0920  218.3600  160.2160 C.2   204  GLN204      0.2608
     34  OE1       34.3400  217.8290  161.0320 O.2   204  GLN204     -0.2717
     35  NE2       36.2040  219.0180  160.5740 N.am  204  GLN204     -0.0878
     36  N         51.1410  213.6150  159.6650 N.3   292  TYR292     -0.1241
     37  CA        49.9250  213.5090  158.8230 C.3   292  TYR292      0.1605
     38  C         50.0590  213.2450  157.3200 C.2   292  TYR292      0.2264
     39  O         51.0140  213.6690  156.6800 O.2   292  TYR292     -0.2867
     40  CB        49.1780  214.8210  158.9490 C.3   292  TYR292      0.0534
     41  CG        47.6990  214.7440  159.0730 C.ar  292  TYR292     -0.0201
     42  CD1       47.1100  213.9220  160.0120 C.ar  292  TYR292     -0.0009
     43  CD2       46.8910  215.6010  158.3540 C.ar  292  TYR292     -0.0009
     44  CE1       45.7460  213.9590  160.2480 C.ar  292  TYR292      0.0417
     45  CE2       45.5240  215.6520  158.5790 C.ar  292  TYR292      0.0417
     46  CZ        44.9530  214.8270  159.5350 C.ar  292  TYR292      0.1957
     47  OH        43.5960  214.8820  159.8050 O.3   292  TYR292     -0.2866
     48  N         40.0760  208.7670  158.6920 N.3   322  PHE322     -0.1241
     49  CA        38.7810  209.4350  158.6320 C.3   322  PHE322      0.1605
     50  C         38.6980  209.7640  157.1300 C.2   322  PHE322      0.2264
     51  O         39.6420  210.3220  156.5630 O.2   322  PHE322     -0.2867
     52  CB        38.8020  210.7150  159.5140 C.3   322  PHE322      0.0534
     53  CG        37.4420  211.4100  159.6920 C.ar  322  PHE322     -0.0203
     54  CD1       37.3020  212.4790  160.5860 C.ar  322  PHE322     -0.0042
     55  CD2       36.2950  211.0210  158.9670 C.ar  322  PHE322     -0.0042
     56  CE1       36.0110  213.1520  160.7460 C.ar  322  PHE322     -0.0003
     57  CE2       35.0180  211.6900  159.1320 C.ar  322  PHE322     -0.0003
     58  CZ        34.8880  212.7390  160.0100 C.ar  322  PHE322     -0.0000
     59  N         36.1960  211.3840  153.8670 N.3   324  LEU324     -0.1245
     60  CA        35.1920  212.4280  153.7290 C.3   324  LEU324      0.1561
     61  C         35.0100  212.7880  152.2520 C.2   324  LEU324      0.2260
     62  O         35.9740  212.7800  151.4720 O.2   324  LEU324     -0.2867
     63  CB        35.6600  213.6310  154.5350 C.3   324  LEU324      0.0270
     64  CG        34.6780  214.4470  155.3570 C.3   324  LEU324      0.0019
     65  CD1       33.7510  213.5720  156.1550 C.3   324  LEU324      0.0001
     66  CD2       35.4960  215.3400  156.2680 C.3   324  LEU324      0.0001
     67  N         42.2260  211.2040  155.6980 N.3   339  PHE339     -0.1241
     68  CA        43.2880  211.7460  156.5320 C.3   339  PHE339      0.1605
     69  C         43.8750  210.6810  157.4360 C.2   339  PHE339      0.2264
     70  O         43.1650  210.0390  158.1960 O.2   339  PHE339     -0.2867
     71  CB        42.7560  212.8870  157.3810 C.3   339  PHE339      0.0534
     72  CG        41.9730  213.9090  156.6080 C.ar  339  PHE339     -0.0203
     73  CD1       40.6100  213.7420  156.3960 C.ar  339  PHE339     -0.0042
     74  CD2       42.5970  215.0570  156.1110 C.ar  339  PHE339     -0.0042
     75  CE1       39.8770  214.7040  155.7090 C.ar  339  PHE339     -0.0003
     76  CE2       41.8690  216.0310  155.4180 C.ar  339  PHE339     -0.0003
     77  CZ        40.5090  215.8540  155.2200 C.ar  339  PHE339     -0.0000
     78  N         48.2890  218.1730  161.2230 N.3   393  PRO393     -0.2116
     79  CA        47.4200  219.2710  160.7600 C.3   393  PRO393      0.1372
     80  C         47.5440  220.4290  161.7430 C.2   393  PRO393      0.2244
     81  O         47.5290  221.6040  161.3680 O.2   393  PRO393     -0.2868
     82  CB        46.0350  218.6450  160.7700 C.3   393  PRO393      0.0268
     83  CG        46.0830  217.7630  161.9490 C.3   393  PRO393      0.0207
     84  CD        47.4910  217.1060  161.8420 C.3   393  PRO393      0.0892
     85  N         42.5860  225.4760  163.6420 N.3   430  TYR430     -0.1241
     86  CA        41.7990  225.6340  162.4360 C.3   430  TYR430      0.1605
     87  C         42.0240  226.9970  161.7830 C.2   430  TYR430      0.2264
     88  O         42.5760  227.9060  162.3980 O.2   430  TYR430     -0.2867
     89  CB        40.3160  225.4840  162.7820 C.3   430  TYR430      0.0534
     90  CG        39.8880  224.0730  163.1260 C.ar  430  TYR430     -0.0201
     91  CD1       40.0780  223.5450  164.3990 C.ar  430  TYR430     -0.0009
     92  CD2       39.3590  223.2450  162.1510 C.ar  430  TYR430     -0.0009
     93  CE1       39.7490  222.2150  164.6760 C.ar  430  TYR430      0.0417
     94  CE2       39.0450  221.9330  162.4110 C.ar  430  TYR430      0.0417
     95  CZ        39.2400  221.4190  163.6750 C.ar  430  TYR430      0.1957
     96  OH        38.9380  220.0920  163.9030 O.3   430  TYR430     -0.2866
@<TRIPOS>BOND
     1    62    61    2
     2    61    60    1
     3    60    59    1
     4    60    63    1
     5    11    10   ar
     6    11     9   ar
     7    63    64    1
     8    10     8   ar
     9     9     7   ar
    10     1     2    1
    11    77    76   ar
    12    77    75   ar
    13     8     6   ar
    14     7     6   ar
    15    64    65    1
    16    64    66    1
    17    76    74   ar
    18     2     5    1
    19     2     3    1
    20     6     5    1
    21    67    68    1
    22    75    73   ar
    23    74    72   ar
    24    73    72   ar
    25     3     4    2
    26    68    71    1
    27    68    69    1
    28    51    50    2
    29    72    71    1
    30    39    38    2
    31    50    49    1
    32    38    37    1
    33    69    70    2
    34    30    29    2
    35    29    28    1
    36    43    45   ar
    37    43    41   ar
    38    31    28    1
    39    31    32    1
    40    28    27    1
    41    45    46   ar
    42    49    48    1
    43    49    52    1
    44    32    33    1
    45    37    40    1
    46    37    36    1
    47    40    41    1
    48    55    57   ar
    49    55    53   ar
    50    41    42   ar
    51    57    58   ar
    52    52    53    1
    53    46    47    1
    54    46    44   ar
    55    53    54   ar
    56    58    56   ar
    57    42    44   ar
    58    33    35   am
    59    33    34    2
    60    54    56   ar
    61    79    82    1
    62    79    78    1
    63    79    80    1
    64    82    83    1
    65    78    84    1
    66    18    16    1
    67    81    80    2
    68    87    88    2
    69    87    86    1
    70    84    83    1
    71    92    94   ar
    72    92    90   ar
    73    17    16    1
    74    94    95   ar
    75    86    89    1
    76    86    85    1
    77    16    13    1
    78    15    14    2
    79    89    90    1
    80    90    91   ar
    81    13    14    1
    82    13    12    1
    83    14    19   am
    84    95    96    1
    85    95    93   ar
    86    25    24    1
    87    91    93   ar
    88    19    20    1
    89    22    21    2
    90    20    21    1
    91    20    23    1
    92    24    23    1
    93    24    26    1
