@<TRIPOS>MOLECULE
tmp/4i5bB00.pdb
 214 208 0 0 0
SMALL
GASTEIGER

@<TRIPOS>ATOM
      1  N         30.4040   49.8110   83.9090 N.3     8  TRP8       -0.1241
      2  CA        31.7440   49.3060   84.0950 C.3     8  TRP8        0.1605
      3  C         31.7860   48.2060   85.1540 C.2     8  TRP8        0.2264
      4  O         31.1670   48.3260   86.2020 O.2     8  TRP8       -0.2867
      5  CB        32.6770   50.4580   84.4960 C.3     8  TRP8        0.0550
      6  CG        34.0150   49.9790   84.9740 C.ar    8  TRP8        0.0003
      7  CD1       34.3740   49.7250   86.2730 C.ar    8  TRP8        0.0946
      8  CD2       35.1680   49.6990   84.1820 C.ar    8  TRP8        0.0152
      9  NE1       35.6720   49.2940   86.3250 N.ar    8  TRP8       -0.2442
     10  CE2       36.1820   49.2730   85.0560 C.ar    8  TRP8        0.0810
     11  CE3       35.4420   49.7660   82.8210 C.ar    8  TRP8        0.0012
     12  CZ2       37.4420   48.9210   84.6120 C.ar    8  TRP8        0.0191
     13  CZ3       36.6910   49.4110   82.3870 C.ar    8  TRP8        0.0001
     14  CH2       37.6780   49.0080   83.2760 C.ar    8  TRP8        0.0015
     15  N         34.6100   45.3530   87.1630 N.3    10  LEU10      -0.1245
     16  CA        35.9390   44.8450   87.3860 C.3    10  LEU10       0.1561
     17  C         35.8240   43.5670   88.2110 C.2    10  LEU10       0.2260
     18  O         35.1500   43.5450   89.2320 O.2    10  LEU10      -0.2867
     19  CB        36.7660   45.8980   88.1250 C.3    10  LEU10       0.0270
     20  CG        38.1710   45.5390   88.6170 C.3    10  LEU10       0.0019
     21  CD1       39.0910   45.1630   87.4610 C.3    10  LEU10       0.0001
     22  CD2       38.7360   46.7100   89.4150 C.3    10  LEU10       0.0001
     23  N         38.1460   40.2610   89.8880 N.3    12  PHE12      -0.1241
     24  CA        39.3640   39.5200   90.1460 C.3    12  PHE12       0.1605
     25  C         38.9210   38.1340   90.5490 C.2    12  PHE12       0.2264
     26  O         38.3030   37.9620   91.6090 O.2    12  PHE12      -0.2867
     27  CB        40.1530   40.1500   91.2990 C.3    12  PHE12       0.0534
     28  CG        40.5470   41.5730   91.0530 C.ar   12  PHE12      -0.0203
     29  CD1       41.7470   41.8700   90.4210 C.ar   12  PHE12      -0.0042
     30  CD2       39.7200   42.6080   91.4450 C.ar   12  PHE12      -0.0042
     31  CE1       42.1170   43.1800   90.1960 C.ar   12  PHE12      -0.0003
     32  CE2       40.0790   43.9220   91.2270 C.ar   12  PHE12      -0.0003
     33  CZ        41.2780   44.2140   90.5980 C.ar   12  PHE12      -0.0000
     34  N         44.7570   33.2170   88.6300 N.3    25  LEU25      -0.1245
     35  CA        44.1030   34.5010   88.8460 C.3    25  LEU25       0.1561
     36  C         43.7130   35.1420   87.5240 C.2    25  LEU25       0.2260
     37  O         44.5290   35.2650   86.6170 O.2    25  LEU25      -0.2867
     38  CB        45.0100   35.4460   89.6200 C.3    25  LEU25       0.0270
     39  CG        44.5510   36.8950   89.7320 C.3    25  LEU25       0.0019
     40  CD1       43.2980   37.0110   90.5930 C.3    25  LEU25       0.0001
     41  CD2       45.6750   37.7430   90.2840 C.3    25  LEU25       0.0001
     42  N         42.0600   38.6740   86.1360 N.3    27  GLU27      -0.1245
     43  CA        41.6230   40.0440   86.3940 C.3    27  GLU27       0.1567
     44  C         40.9790   40.5950   85.1280 C.2    27  GLU27       0.2260
     45  O         41.5880   40.5740   84.0680 O.2    27  GLU27      -0.2867
     46  CB        42.8250   40.8960   86.7910 C.3    27  GLU27       0.0388
     47  CG        42.5630   42.3940   86.8400 C.3    27  GLU27       0.1160
     48  CD        43.7980   43.1850   87.2580 C.2    27  GLU27       0.3649
     49  OE1       44.7740   42.5450   87.6980 O.co2  27  GLU27      -0.2457
     50  OE2       43.7940   44.4360   87.1420 O.co2  27  GLU27      -0.2457
     51  N         38.4150   43.5860   83.1060 N.3    29  SER29      -0.1217
     52  CA        37.6670   44.8200   82.9470 C.3    29  SER29       0.1889
     53  C         36.5950   44.5740   81.9000 C.2    29  SER29       0.2288
     54  O         36.8880   44.0390   80.8400 O.2    29  SER29      -0.2866
     55  CB        38.5870   45.9240   82.4450 C.3    29  SER29       0.2089
     56  OG        39.5410   46.2660   83.4270 O.3    29  SER29      -0.2183
     57  N         37.1700   43.9400   78.0550 N.3    36  SER36      -0.1202
     58  CA        38.0920   44.7060   77.2070 C.3    36  SER36       0.2020
     59  C         39.5570   44.3270   77.4030 C.2    36  SER36       0.2618
     60  O         40.3110   44.2340   76.4370 O.2    36  SER36      -0.2717
     61  CB        37.9160   46.2120   77.4010 C.3    36  SER36       0.2103
     62  OG        37.9110   46.5510   78.7580 O.3    36  SER36      -0.2182
     63  N         39.9840   44.1970   78.6510 N.am   37  VAL37      -0.1979
     64  CA        41.3610   43.8160   78.9260 C.3    37  VAL37       0.1595
     65  C         41.4260   42.8580   80.1180 C.2    37  VAL37       0.2287
     66  O         40.5780   42.9070   81.0110 O.2    37  VAL37      -0.2864
     67  CB        42.2460   45.0740   79.1480 C.3    37  VAL37       0.0276
     68  CG1       41.6230   46.0080   80.1730 C.3    37  VAL37       0.0022
     69  CG2       43.7030   44.6830   79.5390 C.3    37  VAL37       0.0022
     70  N         49.2520   41.6880   80.9350 N.3    46  TYR46      -0.1241
     71  CA        47.9390   42.0820   80.4450 C.3    46  TYR46       0.1605
     72  C         47.7660   41.8370   78.9480 C.2    46  TYR46       0.2264
     73  O         48.6990   42.0560   78.1730 O.2    46  TYR46      -0.2867
     74  CB        47.7020   43.5520   80.7390 C.3    46  TYR46       0.0534
     75  CG        47.4750   43.8090   82.2030 C.ar   46  TYR46      -0.0201
     76  CD1       46.1940   43.7660   82.7330 C.ar   46  TYR46      -0.0009
     77  CD2       48.5330   44.0580   83.0640 C.ar   46  TYR46      -0.0009
     78  CE1       45.9680   43.9880   84.0580 C.ar   46  TYR46       0.0417
     79  CE2       48.3090   44.2730   84.4160 C.ar   46  TYR46       0.0417
     80  CZ        47.0200   44.2340   84.8990 C.ar   46  TYR46       0.1957
     81  OH        46.7460   44.4390   86.2240 O.3    46  TYR46      -0.2866
     82  N         44.9440   50.1970   74.5670 N.3    55  PRO55      -0.2102
     83  CA        45.7980   51.1780   75.2580 C.3    55  PRO55       0.1504
     84  C         46.0850   50.8190   76.7240 C.2    55  PRO55       0.2575
     85  O         47.1470   51.1520   77.2540 O.2    55  PRO55      -0.2718
     86  CB        44.9630   52.4720   75.2230 C.3    55  PRO55       0.0282
     87  CG        43.8930   52.2510   74.1620 C.3    55  PRO55       0.0208
     88  CD        43.6500   50.7790   74.1420 C.3    55  PRO55       0.0893
     89  N         45.1510   50.1390   77.3770 N.am   56  ASP56      -0.1974
     90  CA        45.3070   49.8410   78.7980 C.3    56  ASP56       0.1708
     91  C         46.3340   48.7370   79.0090 C.2    56  ASP56       0.2293
     92  O         47.1960   48.8320   79.8930 O.2    56  ASP56      -0.2864
     93  CB        43.9610   49.4930   79.3910 C.3    56  ASP56       0.1436
     94  CG        42.9140   50.5000   79.0120 C.2    56  ASP56       0.3671
     95  OD1       43.2020   51.7120   79.1130 O.co2  56  ASP56      -0.2456
     96  OD2       41.8270   50.0830   78.5720 O.co2  56  ASP56      -0.2456
     97  N         49.7640   50.2610   78.3480 N.3    59  TYR59      -0.1227
     98  CA        50.1570   51.1470   79.4260 C.3    59  TYR59       0.1736
     99  C         50.5670   50.3580   80.6680 C.2    59  TYR59       0.2595
    100  O         51.6300   50.6010   81.2380 O.2    59  TYR59      -0.2718
    101  CB        49.0140   52.0930   79.7420 C.3    59  TYR59       0.0548
    102  CG        49.1860   52.9420   80.9890 C.ar   59  TYR59      -0.0200
    103  CD1       50.3760   53.6140   81.2520 C.ar   59  TYR59      -0.0009
    104  CD2       48.1370   53.0920   81.8890 C.ar   59  TYR59      -0.0009
    105  CE1       50.5190   54.3990   82.3890 C.ar   59  TYR59       0.0417
    106  CE2       48.2660   53.8730   83.0260 C.ar   59  TYR59       0.0417
    107  CZ        49.4580   54.5240   83.2720 C.ar   59  TYR59       0.1957
    108  OH        49.5770   55.2990   84.4050 O.3    59  TYR59      -0.2866
    109  N         49.7200   49.4280   81.1000 N.am   60  TRP60      -0.1976
    110  CA        50.0050   48.6700   82.3200 C.3    60  TRP60       0.1640
    111  C         51.2250   47.7600   82.1830 C.2    60  TRP60       0.2290
    112  O         52.0280   47.6460   83.1120 O.2    60  TRP60      -0.2864
    113  CB        48.7780   47.8530   82.7530 C.3    60  TRP60       0.0576
    114  CG        47.6030   48.6960   83.1570 C.ar   60  TRP60       0.0006
    115  CD1       47.6320   49.9630   83.6650 C.ar   60  TRP60       0.0946
    116  CD2       46.2260   48.3280   83.0710 C.ar   60  TRP60       0.0152
    117  NE1       46.3470   50.4080   83.9140 N.ar   60  TRP60      -0.2442
    118  CE2       45.4670   49.4200   83.5550 C.ar   60  TRP60       0.0810
    119  CE3       45.5560   47.1780   82.6390 C.ar   60  TRP60       0.0012
    120  CZ2       44.0750   49.3920   83.6170 C.ar   60  TRP60       0.0191
    121  CZ3       44.1590   47.1570   82.6940 C.ar   60  TRP60       0.0001
    122  CH2       43.4420   48.2560   83.1770 C.ar   60  TRP60       0.0015
    123  N         53.7040   47.0610   88.6660 N.3    66  LEU66      -0.1245
    124  CA        52.3720   46.4750   88.5200 C.3    66  LEU66       0.1561
    125  C         52.4770   45.0100   88.1600 C.2    66  LEU66       0.2260
    126  O         51.8180   44.1750   88.7630 O.2    66  LEU66      -0.2867
    127  CB        51.5480   47.1690   87.4270 C.3    66  LEU66       0.0270
    128  CG        50.9900   48.5800   87.6240 C.3    66  LEU66       0.0019
    129  CD1       49.9130   48.8590   86.5860 C.3    66  LEU66       0.0001
    130  CD2       50.4540   48.8090   89.0370 C.3    66  LEU66       0.0001
    131  N         53.5680   42.9210   91.1060 N.3    69  GLN69      -0.1231
    132  CA        52.4520   42.7430   92.0470 C.3    69  GLN69       0.1698
    133  C         51.4570   41.7070   91.5130 C.2    69  GLN69       0.2592
    134  O         51.0850   40.7620   92.2120 O.2    69  GLN69      -0.2718
    135  CB        51.7140   44.0610   92.3190 C.3    69  GLN69       0.0381
    136  CG        50.8500   44.0750   93.5980 C.3    69  GLN69       0.0905
    137  CD        49.4520   43.4550   93.4300 C.2    69  GLN69       0.2608
    138  OE1       48.8640   43.5020   92.3530 O.2    69  GLN69      -0.2717
    139  NE2       48.9210   42.8760   94.5070 N.am   69  GLN69      -0.0878
    140  N         51.0220   41.8970   90.2750 N.am   70  ARG70      -0.1980
    141  CA        50.0160   41.0150   89.6900 C.3    70  ARG70       0.1597
    142  C         50.5110   39.5660   89.6170 C.2    70  ARG70       0.2287
    143  O         49.7410   38.6380   89.8400 O.2    70  ARG70      -0.2864
    144  CB        49.5840   41.5020   88.2940 C.3    70  ARG70       0.0334
    145  CG        48.7520   42.8000   88.2810 C.3    70  ARG70       0.0492
    146  CD        47.8050   42.8700   89.4400 C.3    70  ARG70       0.2205
    147  NE        46.6140   43.6920   89.2280 N.pl3  70  ARG70      -0.0865
    148  CZ        46.2550   44.7070   90.0140 C.cat  70  ARG70       0.5346
    149  NH1       47.0080   45.0550   91.0560 N.pl3  70  ARG70       0.1354
    150  NH2       45.1410   45.3810   89.7570 N.pl3  70  ARG70       0.1354
    151  N         50.3820   37.9100   92.9120 N.3    73  ALA73      -0.1245
    152  CA        49.0550   37.9670   93.5040 C.3    73  ALA73       0.1562
    153  C         48.4060   36.5940   93.7370 C.2    73  ALA73       0.2260
    154  O         47.5740   36.4500   94.6370 O.2    73  ALA73      -0.2867
    155  CB        48.1230   38.8880   92.6770 C.3    73  ALA73       0.0290
    156  N         49.8820   36.4580   97.2970 N.3    76  THR76      -0.1203
    157  CA        49.5420   37.4990   98.2780 C.3    76  THR76       0.1994
    158  C         48.0390   37.7820   98.3260 C.2    76  THR76       0.2617
    159  O         47.5280   38.3420   99.2920 O.2    76  THR76      -0.2717
    160  CB        50.3070   38.8170   97.9790 C.3    76  THR76       0.1784
    161  OG1       49.8650   39.3570   96.7230 O.3    76  THR76      -0.2211
    162  CG2       51.8520   38.5580   97.9100 C.3    76  THR76       0.0376
    163  N         47.3210   37.3580   97.2950 N.am   77  TYR77      -0.1975
    164  CA        45.8870   37.6480   97.2080 C.3    77  TYR77       0.1639
    165  C         45.0450   36.3760   97.2470 C.2    77  TYR77       0.2290
    166  O         44.3040   36.1700   98.1900 O.2    77  TYR77      -0.2864
    167  CB        45.5980   38.4420   95.9320 C.3    77  TYR77       0.0560
    168  CG        44.1350   38.7180   95.6150 C.ar   77  TYR77      -0.0198
    169  CD1       43.3540   39.5290   96.4350 C.ar   77  TYR77      -0.0009
    170  CD2       43.5620   38.2110   94.4520 C.ar   77  TYR77      -0.0009
    171  CE1       42.0150   39.7990   96.1120 C.ar   77  TYR77       0.0417
    172  CE2       42.2430   38.4750   94.1150 C.ar   77  TYR77       0.0417
    173  CZ        41.4770   39.2570   94.9490 C.ar   77  TYR77       0.1957
    174  OH        40.1790   39.5100   94.5990 O.3    77  TYR77      -0.2866
    175  N         46.1370   33.7470  100.0440 N.3    80  HIS80      -0.1226
    176  CA        45.8720   34.4080  101.3130 C.3    80  HIS80       0.1752
    177  C         44.3880   34.4200  101.6700 C.2    80  HIS80       0.2596
    178  O         44.0090   34.1060  102.8010 O.2    80  HIS80      -0.2718
    179  CB        46.4010   35.8420  101.3180 C.3    80  HIS80       0.0759
    180  CG        46.0050   36.6050  102.5410 C.ar   80  HIS80       0.0818
    181  ND1       46.7400   36.5750  103.7070 N.ar   80  HIS80      -0.2268
    182  CD2       44.9370   37.3990  102.7870 C.ar   80  HIS80       0.1154
    183  CE1       46.1400   37.3180  104.6200 C.ar   80  HIS80       0.1986
    184  NE2       45.0430   37.8310  104.0870 N.ar   80  HIS80      -0.2212
    185  N         43.5430   34.8310  100.7280 N.am   81  ASN81      -0.1974
    186  CA        42.1000   34.8890  101.0060 C.3    81  ASN81       0.1688
    187  C         41.4800   33.5080  101.2040 C.2    81  ASN81       0.2292
    188  O         40.5710   33.3280  102.0140 O.2    81  ASN81      -0.2864
    189  CB        41.3610   35.6530   99.8970 C.3    81  ASN81       0.1181
    190  CG        41.5900   37.1600   99.9890 C.2    81  ASN81       0.2629
    191  OD1       41.9000   37.6900  101.0690 O.2    81  ASN81      -0.2716
    192  ND2       41.4580   37.8520   98.8610 N.am   81  ASN81      -0.0877
    193  N         42.4560   32.6040  104.8750 N.3    84  VAL84      -0.1231
    194  CA        41.7310   33.2590  105.9630 C.3    84  VAL84       0.1692
    195  C         40.2430   32.9120  105.9040 C.2    84  VAL84       0.2592
    196  O         39.5770   32.8660  106.9370 O.2    84  VAL84      -0.2718
    197  CB        41.9170   34.8020  105.9950 C.3    84  VAL84       0.0266
    198  CG1       43.3800   35.1810  106.1910 C.3    84  VAL84       0.0020
    199  CG2       41.3770   35.4290  104.7290 C.3    84  VAL84       0.0020
    200  N         39.7370   32.6260  104.7030 N.am   85  GLY85      -0.1957
    201  CA        38.3190   32.3360  104.5320 C.3    85  GLY85       0.1869
    202  C         37.9610   30.8620  104.6440 C.2    85  GLY85       0.2309
    203  O         36.7910   30.5050  104.7130 O.2    85  GLY85      -0.2863
    204  N         35.0620   28.9000  106.8810 N.3    88  PHE88      -0.1241
    205  CA        33.6300   29.1700  106.7770 C.3    88  PHE88       0.1605
    206  C         33.0820   29.1550  105.3530 C.2    88  PHE88       0.2264
    207  O         31.8880   29.3380  105.1380 O.2    88  PHE88      -0.2867
    208  CB        33.2470   30.4530  107.5300 C.3    88  PHE88       0.0534
    209  CG        33.9810   31.6860  107.0700 C.ar   88  PHE88      -0.0203
    210  CD1       35.1900   32.0460  107.6470 C.ar   88  PHE88      -0.0042
    211  CD2       33.4450   32.5020  106.0790 C.ar   88  PHE88      -0.0042
    212  CE1       35.8670   33.1910  107.2240 C.ar   88  PHE88      -0.0003
    213  CE2       34.1170   33.6510  105.6490 C.ar   88  PHE88      -0.0003
    214  CZ        35.3220   33.9960  106.2250 C.ar   88  PHE88      -0.0000
@<TRIPOS>BOND
     1    88    87    1
     2    88    82    1
     3    87    86    1
     4    82    83    1
     5    86    83    1
     6    83    84    1
     7    60    59    2
     8    84    85    2
     9    84    89   am
    10    58    61    1
    11    58    59    1
    12    58    57    1
    13    89    90    1
    14    61    62    1
    15    59    63   am
    16    73    72    2
    17    97    98    1
    18    96    94   ar
    19    63    64    1
    20    90    91    1
    21    90    93    1
    22    64    67    1
    23    64    65    1
    24    72    71    1
    25    91    92    2
    26    94    95   ar
    27    94    93    1
    28    67    69    1
    29    67    68    1
    30    98   101    1
    31    98    99    1
    32   101   102    1
    33    65    66    2
    34    71    74    1
    35    71    70    1
    36    99   109   am
    37    99   100    2
    38    74    75    1
    39    54    53    2
    40   102   103   ar
    41   102   104   ar
    42   109   110    1
    43   103   105   ar
    44   104   106   ar
    45    53    52    1
    46   111   110    1
    47   111   112    2
    48    75    76   ar
    49    75    77   ar
    50   110   113    1
    51    13    11   ar
    52    13    14   ar
    53   105   107   ar
    54    55    52    1
    55    55    56    1
    56   119   121   ar
    57   119   116   ar
    58   121   122   ar
    59    76    78   ar
    60   113   114    1
    61    11     8   ar
    62    52    51    1
    63   106   107   ar
    64    77    79   ar
    65   116   114   ar
    66   116   118   ar
    67   114   115   ar
    68   122   120   ar
    69   107   108    1
    70    14    12   ar
    71   118   120   ar
    72   118   117   ar
    73   115   117   ar
    74     1     2    1
    75    78    80   ar
    76    45    44    2
    77     2     5    1
    78     2     3    1
    79     8     6   ar
    80     8    10   ar
    81    79    80   ar
    82     5     6    1
    83    12    10   ar
    84    80    81    1
    85     6     7   ar
    86    10     9   ar
    87    44    43    1
    88     3     4    2
    89    42    43    1
    90     7     9   ar
    91    43    46    1
    92   129   128    1
    93    37    36    2
    94    46    47    1
    95    47    48    1
    96    50    48   ar
    97    15    16    1
    98    48    49   ar
    99    16    19    1
   100    16    17    1
   101   127   128    1
   102   127   124    1
   103    21    20    1
   104    36    35    1
   105   128   130    1
   106    19    20    1
   107   125   124    1
   108   125   126    2
   109    17    18    2
   110   145   144    1
   111   145   146    1
   112   144   141    1
   113   124   123    1
   114    20    22    1
   115    34    35    1
   116    35    38    1
   117   147   146    1
   118   147   148    2
   119   142   141    1
   120   142   143    2
   121    38    39    1
   122   141   140    1
   123    39    41    1
   124    39    40    1
   125   150   148    1
   126    23    24    1
   127   148   149    1
   128    24    25    1
   129    24    27    1
   130    31    29   ar
   131    31    33   ar
   132   140   133   am
   133    29    28   ar
   134    25    26    2
   135    33    32   ar
   136    28    27    1
   137    28    30   ar
   138   131   132    1
   139    32    30   ar
   140   133   132    1
   141   133   134    2
   142   132   135    1
   143   135   136    1
   144   138   137    2
   145   155   152    1
   146   151   152    1
   147   137   136    1
   148   137   139   am
   149   152   153    1
   150   153   154    2
   151   172   170   ar
   152   172   173   ar
   153   170   168   ar
   154   174   173    1
   155   173   171   ar
   156   168   167    1
   157   168   169   ar
   158   167   164    1
   159   171   169   ar
   160   161   160    1
   161   164   165    1
   162   164   163    1
   163   165   166    2
   164   163   158   am
   165   156   157    1
   166   162   160    1
   167   160   157    1
   168   157   158    1
   169   158   159    2
   170   192   190   am
   171   189   190    1
   172   189   186    1
   173   190   191    2
   174   175   176    1
   175   185   186    1
   176   185   177   am
   177   186   187    1
   178   187   188    2
   179   176   179    1
   180   176   177    1
   181   179   180    1
   182   177   178    2
   183   180   182   ar
   184   180   181   ar
   185   182   184   ar
   186   181   183   ar
   187   184   183   ar
   188   201   202    1
   189   201   200    1
   190   202   203    2
   191   200   195   am
   192   199   197    1
   193   193   194    1
   194   207   206    2
   195   206   205    1
   196   213   211   ar
   197   213   214   ar
   198   195   194    1
   199   195   196    2
   200   194   197    1
   201   197   198    1
   202   211   209   ar
   203   214   212   ar
   204   205   204    1
   205   205   208    1
   206   209   208    1
   207   209   210   ar
   208   212   210   ar
