@<TRIPOS>MOLECULE
tmp/4i5bD00.pdb
 175 168 0 0 0
SMALL
GASTEIGER

@<TRIPOS>ATOM
      1  N         20.3220   36.4510   57.9020 N.3     8  GLN8       -0.1245
      2  CA        20.9290   35.2870   57.2900 C.3     8  GLN8        0.1566
      3  C         21.9550   34.7530   58.2910 C.2     8  GLN8        0.2260
      4  O         22.9450   35.4150   58.5740 O.2     8  GLN8       -0.2867
      5  CB        21.6080   35.6880   55.9760 C.3     8  GLN8        0.0367
      6  CG        22.4040   34.5710   55.2940 C.3     8  GLN8        0.0905
      7  CD        23.1930   35.0800   54.0910 C.2     8  GLN8        0.2608
      8  OE1       22.8130   36.0630   53.4550 O.2     8  GLN8       -0.2717
      9  NE2       24.2990   34.4180   53.7870 N.am    8  GLN8       -0.0878
     10  N         24.4900   31.5390   59.6050 N.3    10  GLU10      -0.1245
     11  CA        25.1750   30.3290   59.1990 C.3    10  GLU10       0.1567
     12  C         26.0500   29.8600   60.3350 C.2    10  GLU10       0.2260
     13  O         26.5340   30.6660   61.1270 O.2    10  GLU10      -0.2867
     14  CB        26.0700   30.6220   57.9930 C.3    10  GLU10       0.0388
     15  CG        25.3820   31.4270   56.9050 C.3    10  GLU10       0.1160
     16  CD        26.3150   31.8290   55.7710 C.2    10  GLU10       0.3649
     17  OE1       27.4180   31.2620   55.6610 O.co2  10  GLU10      -0.2457
     18  OE2       25.9420   32.7220   54.9860 O.co2  10  GLU10      -0.2457
     19  N         22.5560   26.8190   57.2640 N.3    21  PHE21      -0.1241
     20  CA        22.3660   28.0890   56.5790 C.3    21  PHE21       0.1605
     21  C         20.8680   28.3550   56.6510 C.2    21  PHE21       0.2264
     22  O         20.0670   27.5010   56.2740 O.2    21  PHE21      -0.2867
     23  CB        22.8470   27.9890   55.1170 C.3    21  PHE21       0.0534
     24  CG        22.6960   29.2680   54.3180 C.ar   21  PHE21      -0.0203
     25  CD1       21.4510   29.6930   53.8690 C.ar   21  PHE21      -0.0042
     26  CD2       23.8020   30.0270   53.9980 C.ar   21  PHE21      -0.0042
     27  CE1       21.3120   30.8550   53.1370 C.ar   21  PHE21      -0.0003
     28  CE2       23.6720   31.1900   53.2640 C.ar   21  PHE21      -0.0003
     29  CZ        22.4180   31.6020   52.8260 C.ar   21  PHE21      -0.0000
     30  N         17.4890   31.5910   56.9020 N.3    23  PHE23      -0.1241
     31  CA        17.0120   32.9660   56.9600 C.3    23  PHE23       0.1605
     32  C         15.9320   33.0780   58.0360 C.2    23  PHE23       0.2264
     33  O         15.1320   32.1660   58.2260 O.2    23  PHE23      -0.2867
     34  CB        16.4490   33.4230   55.6140 C.3    23  PHE23       0.0534
     35  CG        17.4330   34.1670   54.7580 C.ar   23  PHE23      -0.0203
     36  CD1       18.4380   33.4950   54.0830 C.ar   23  PHE23      -0.0042
     37  CD2       17.3430   35.5410   54.6120 C.ar   23  PHE23      -0.0042
     38  CE1       19.3380   34.1900   53.2670 C.ar   23  PHE23      -0.0003
     39  CE2       18.2440   36.2510   53.8000 C.ar   23  PHE23      -0.0003
     40  CZ        19.2450   35.5710   53.1330 C.ar   23  PHE23      -0.0000
     41  N         12.3470   31.5230   58.0790 N.3    30  ILE30      -0.1231
     42  CA        11.7470   31.4800   56.7400 C.3    30  ILE30       0.1692
     43  C         12.1160   30.1690   56.0710 C.2    30  ILE30       0.2592
     44  O         11.2450   29.4210   55.6360 O.2    30  ILE30      -0.2718
     45  CB        12.2390   32.6620   55.8500 C.3    30  ILE30       0.0266
     46  CG1       12.0060   34.0050   56.5530 C.3    30  ILE30       0.0019
     47  CG2       11.5380   32.6720   54.4780 C.3    30  ILE30       0.0020
     48  CD1       12.4950   35.2250   55.7330 C.3    30  ILE30       0.0001
     49  N         13.4190   29.8790   56.0090 N.am   31  PHE31      -0.1976
     50  CA        13.8790   28.6060   55.4520 C.3    31  PHE31       0.1639
     51  C         15.2870   28.2640   55.9400 C.2    31  PHE31       0.2290
     52  O         15.9890   29.1130   56.4870 O.2    31  PHE31      -0.2864
     53  CB        13.8770   28.6570   53.9100 C.3    31  PHE31       0.0560
     54  CG        14.9720   29.5160   53.3180 C.ar   31  PHE31      -0.0200
     55  CD1       16.2110   28.9720   53.0090 C.ar   31  PHE31      -0.0042
     56  CD2       14.7630   30.8670   53.0740 C.ar   31  PHE31      -0.0042
     57  CE1       17.2210   29.7530   52.4660 C.ar   31  PHE31      -0.0003
     58  CE2       15.7670   31.6580   52.5430 C.ar   31  PHE31      -0.0003
     59  CZ        17.0070   31.0960   52.2360 C.ar   31  PHE31      -0.0000
     60  N         11.5210   25.0560   53.2570 N.3    42  TRP42      -0.1241
     61  CA        10.6850   26.1660   53.7150 C.3    42  TRP42       0.1605
     62  C          9.9980   25.8680   55.0370 C.2    42  TRP42       0.2264
     63  O          9.5040   24.7630   55.2540 O.2    42  TRP42      -0.2867
     64  CB         9.6570   26.5530   52.6370 C.3    42  TRP42       0.0550
     65  CG        10.3430   26.9540   51.3740 C.ar   42  TRP42       0.0003
     66  CD1       10.6030   26.1590   50.2870 C.ar   42  TRP42       0.0946
     67  CD2       10.9650   28.2140   51.1060 C.ar   42  TRP42       0.0152
     68  NE1       11.2970   26.8680   49.3460 N.ar   42  TRP42      -0.2442
     69  CE2       11.5390   28.1300   49.8230 C.ar   42  TRP42       0.0810
     70  CE3       11.0750   29.4150   51.8200 C.ar   42  TRP42       0.0012
     71  CZ2       12.2030   29.1990   49.2350 C.ar   42  TRP42       0.0191
     72  CZ3       11.7360   30.4730   51.2370 C.ar   42  TRP42       0.0001
     73  CH2       12.2980   30.3570   49.9600 C.ar   42  TRP42       0.0015
     74  N          8.3850   32.2530   47.1430 N.3    51  ALA51      -0.1231
     75  CA         9.7670   32.6800   47.1280 C.3    51  ALA51       0.1694
     76  C         10.6330   31.5450   46.6400 C.2    51  ALA51       0.2593
     77  O         10.1760   30.4280   46.5320 O.2    51  ALA51      -0.2718
     78  CB        10.1970   33.1380   48.5260 C.3    51  ALA51       0.0304
     79  N         11.8810   31.8460   46.3300 N.am   52  SER52      -0.1938
     80  CA        12.8200   30.8210   45.9390 C.3    52  SER52       0.2055
     81  C         14.1910   31.1740   46.4590 C.2    52  SER52       0.2643
     82  O         14.4840   32.3470   46.7430 O.2    52  SER52      -0.2714
     83  CB        12.8840   30.7050   44.4230 C.3    52  SER52       0.2130
     84  OG        13.1590   31.9790   43.8930 O.3    52  SER52      -0.2179
     85  N         15.0300   30.1550   46.5900 N.am   53  PHE53      -0.1959
     86  CA        16.4090   30.3620   46.9710 C.3    53  PHE53       0.1771
     87  C         17.2930   29.2500   46.3960 C.2    53  PHE53       0.2619
     88  O         16.9980   28.0620   46.5330 O.2    53  PHE53      -0.2715
     89  CB        16.5610   30.4370   48.5010 C.3    53  PHE53       0.0574
     90  CG        17.9770   30.6180   48.9340 C.ar   53  PHE53      -0.0200
     91  CD1       18.5580   31.8700   48.9170 C.ar   53  PHE53      -0.0042
     92  CD2       18.7550   29.5250   49.2910 C.ar   53  PHE53      -0.0042
     93  CE1       19.8750   32.0330   49.2900 C.ar   53  PHE53      -0.0003
     94  CE2       20.0720   29.6840   49.6650 C.ar   53  PHE53      -0.0003
     95  CZ        20.6350   30.9380   49.6620 C.ar   53  PHE53      -0.0000
     96  N         18.3850   29.6390   45.7580 N.am   54  GLU54      -0.1977
     97  CA        19.2850   28.6560   45.1780 C.3    54  GLU54       0.1602
     98  C         20.1570   28.0250   46.2560 C.2    54  GLU54       0.2287
     99  O         21.0650   28.6600   46.7940 O.2    54  GLU54      -0.2864
    100  CB        20.1370   29.2660   44.0580 C.3    54  GLU54       0.0415
    101  CG        21.1390   28.2760   43.4360 C.3    54  GLU54       0.1163
    102  CD        20.5080   26.9210   43.1090 C.2    54  GLU54       0.3649
    103  OE1       19.6020   26.8690   42.2420 O.co2  54  GLU54      -0.2457
    104  OE2       20.9140   25.9050   43.7260 O.co2  54  GLU54      -0.2457
    105  N         24.1400   28.2150   46.4780 N.3    57  GLY57      -0.1225
    106  CA        24.7890   29.3710   47.0780 C.3    57  GLY57       0.1811
    107  C         25.0630   29.1880   48.5640 C.2    57  GLY57       0.2280
    108  O         26.0580   29.6940   49.0910 O.2    57  GLY57      -0.2866
    109  N         28.0700   26.8290   49.0950 N.3    60  ALA60      -0.1231
    110  CA        29.2770   27.6210   48.8490 C.3    60  ALA60       0.1694
    111  C         29.6360   28.4680   50.0630 C.2    60  ALA60       0.2592
    112  O         30.8060   28.5690   50.4320 O.2    60  ALA60      -0.2718
    113  CB        29.0970   28.5120   47.6120 C.3    60  ALA60       0.0304
    114  N         28.6360   29.0950   50.6770 N.am   61  ASN61      -0.1974
    115  CA        28.8870   29.8500   51.9020 C.3    61  ASN61       0.1688
    116  C         29.3900   28.9250   53.0190 C.2    61  ASN61       0.2292
    117  O         30.3240   29.2640   53.7430 O.2    61  ASN61      -0.2864
    118  CB        27.6470   30.6560   52.3280 C.3    61  ASN61       0.1181
    119  CG        27.6870   32.0970   51.8210 C.2    61  ASN61       0.2629
    120  OD1       28.3540   32.3980   50.8210 O.2    61  ASN61      -0.2716
    121  ND2       26.9870   33.0010   52.5180 N.am   61  ASN61      -0.0877
    122  N         33.0410   27.8600   52.6550 N.3    64  CYS64      -0.1221
    123  CA        33.8030   29.0170   53.1180 C.3    64  CYS64       0.1808
    124  C         33.7780   29.1290   54.6580 C.2    64  CYS64       0.2601
    125  O         34.8110   29.3870   55.2880 O.2    64  CYS64      -0.2717
    126  CB        33.2510   30.2830   52.4410 C.3    64  CYS64       0.0970
    127  SG        33.8810   31.8970   52.9780 S.3    64  CYS64      -0.0800
    128  N         32.6090   28.9330   55.2670 N.am   65  ASP65      -0.1973
    129  CA        32.5030   28.9620   56.7230 C.3    65  ASP65       0.1709
    130  C         33.4580   27.9510   57.3620 C.2    65  ASP65       0.2293
    131  O         34.1300   28.2590   58.3400 O.2    65  ASP65      -0.2864
    132  CB        31.0740   28.6480   57.1970 C.3    65  ASP65       0.1436
    133  CG        30.0790   29.7420   56.8570 C.2    65  ASP65       0.3671
    134  OD1       30.4380   30.9410   56.8770 O.co2  65  ASP65      -0.2456
    135  OD2       28.9080   29.3940   56.6060 O.co2  65  ASP65      -0.2456
    136  N         36.2330   26.5730   56.0740 N.3    67  ALA67      -0.1231
    137  CA        37.6330   26.9770   55.8970 C.3    67  ALA67       0.1694
    138  C         38.0090   28.0220   56.9320 C.2    67  ALA67       0.2592
    139  O         39.0870   27.9640   57.5370 O.2    67  ALA67      -0.2718
    140  CB        37.8740   27.5080   54.5030 C.3    67  ALA67       0.0304
    141  N         37.1150   28.9830   57.1330 N.am   68  ASN68      -0.1974
    142  CA        37.3500   30.0250   58.1230 C.3    68  ASN68       0.1688
    143  C         37.4400   29.4730   59.5390 C.2    68  ASN68       0.2292
    144  O         38.2840   29.9050   60.3240 O.2    68  ASN68      -0.2864
    145  CB        36.2790   31.1180   58.0450 C.3    68  ASN68       0.1181
    146  CG        36.3890   31.9430   56.7890 C.2    68  ASN68       0.2629
    147  OD1       37.3500   31.8010   56.0350 O.2    68  ASN68      -0.2716
    148  ND2       35.4270   32.8390   56.5700 N.am   68  ASN68      -0.0877
    149  N         40.8670   28.0450   60.0270 N.3    71  ILE71      -0.1231
    150  CA        41.8420   29.1090   60.2000 C.3    71  ILE71       0.1692
    151  C         41.7490   29.7200   61.5970 C.2    71  ILE71       0.2591
    152  O         42.7620   29.9070   62.2670 O.2    71  ILE71      -0.2718
    153  CB        41.6870   30.1950   59.1350 C.3    71  ILE71       0.0266
    154  CG1       42.0460   29.6290   57.7630 C.3    71  ILE71       0.0019
    155  CG2       42.5540   31.4040   59.4640 C.3    71  ILE71       0.0020
    156  CD1       41.6340   30.5250   56.6010 C.3    71  ILE71       0.0001
    157  N         40.5380   30.0280   62.0490 N.am   72  MET72      -0.1979
    158  CA        40.3980   30.6660   63.3480 C.3    72  MET72       0.1605
    159  C         40.6940   29.6880   64.4790 C.2    72  MET72       0.2287
    160  O         41.2300   30.0840   65.5140 O.2    72  MET72      -0.2864
    161  CB        39.0210   31.3010   63.5280 C.3    72  MET72       0.0413
    162  CG        38.9110   32.1140   64.8040 C.3    72  MET72       0.0598
    163  SD        40.0550   33.5150   64.8810 S.3    72  MET72      -0.1393
    164  CE        39.1520   34.7500   63.9380 C.3    72  MET72       0.0692
    165  N         44.3400   29.6640   64.5810 N.3    75  ARG75      -0.1245
    166  CA        44.7930   30.9840   64.9910 C.3    75  ARG75       0.1563
    167  C         44.6420   31.2110   66.4920 C.2    75  ARG75       0.2260
    168  O         45.4380   31.9170   67.0920 O.2    75  ARG75      -0.2867
    169  CB        44.0360   32.0650   64.2180 C.3    75  ARG75       0.0307
    170  CG        44.6710   33.4400   64.2840 C.3    75  ARG75       0.0489
    171  CD        43.7490   34.5150   63.7140 C.3    75  ARG75       0.2205
    172  NE        43.6950   34.4870   62.2540 N.pl3  75  ARG75      -0.0865
    173  CZ        42.9020   35.2640   61.5220 C.cat  75  ARG75       0.5346
    174  NH1       42.0900   36.1330   62.1140 N.pl3  75  ARG75       0.1354
    175  NH2       42.9210   35.1750   60.1990 N.pl3  75  ARG75       0.1354
@<TRIPOS>BOND
     1   103   102   ar
     2   102   101    1
     3   102   104   ar
     4   101   100    1
     5    84    83    1
     6   100    97    1
     7    83    80    1
     8    97    96    1
     9    97    98    1
    10    96    87   am
    11    80    79    1
    12    80    81    1
    13    98    99    2
    14    79    76   am
    15    87    88    2
    16    87    86    1
    17    81    85   am
    18    81    82    2
    19   105   106    1
    20    77    76    2
    21    85    86    1
    22    76    75    1
    23    86    89    1
    24   106   107    1
    25    75    74    1
    26    75    78    1
    27   113   110    1
    28    89    90    1
    29   107   108    2
    30   110   109    1
    31   110   111    1
    32    91    90   ar
    33    91    93   ar
    34    90    92   ar
    35    71    69   ar
    36    71    73   ar
    37    93    95   ar
    38    92    94   ar
    39    68    69   ar
    40    68    66   ar
    41    95    94   ar
    42    69    67   ar
    43    73    72   ar
    44   111   112    2
    45   111   114   am
    46    66    65   ar
    47   114   115    1
    48   120   119    2
    49    67    65   ar
    50    67    70   ar
    51    72    70   ar
    52    65    64    1
    53   119   118    1
    54   119   121   am
    55   115   118    1
    56   115   116    1
    57    59    57   ar
    58    59    58   ar
    59   126   127    1
    60   126   123    1
    61    57    55   ar
    62    58    56   ar
    63    64    61    1
    64   122   123    1
    65    29    27   ar
    66    29    28   ar
    67    55    54   ar
    68   116   117    2
    69    56    54   ar
    70   123   124    1
    71    40    38   ar
    72    40    39   ar
    73    27    25   ar
    74    60    61    1
    75    28    26   ar
    76    38    36   ar
    77    54    53    1
    78     8     7    2
    79    61    62    1
    80     9     7   am
    81    39    37   ar
    82    25    24   ar
    83    53    50    1
    84    26    24   ar
    85    36    35   ar
    86     7     6    1
    87    24    23    1
    88    47    45    1
    89   140   137    1
    90    37    35   ar
    91   124   128   am
    92   124   125    2
    93    35    34    1
    94    18    16   ar
    95    62    63    2
    96    23    20    1
    97   128   129    1
    98     6     5    1
    99    50    51    1
   100    50    49    1
   101    34    31    1
   102    44    43    2
   103    17    16   ar
   104    48    46    1
   105    16    15    1
   106    45    46    1
   107    45    42    1
   108   137   136    1
   109   137   138    1
   110    51    52    2
   111     5     2    1
   112    49    43   am
   113   147   146    2
   114    43    42    1
   115    22    21    2
   116   148   146   am
   117    20    21    1
   118    20    19    1
   119   156   154    1
   120   135   133   ar
   121   129   132    1
   122   129   130    1
   123    42    41    1
   124   146   145    1
   125   133   134   ar
   126   133   132    1
   127    30    31    1
   128    15    14    1
   129   138   141   am
   130   138   139    2
   131    31    32    1
   132   141   142    1
   133     2     1    1
   134     2     3    1
   135   130   131    2
   136   154   153    1
   137    14    11    1
   138    32    33    2
   139   145   142    1
   140   142   143    1
   141     3     4    2
   142   153   155    1
   143   153   150    1
   144    11    10    1
   145    11    12    1
   146   143   144    2
   147   149   150    1
   148   175   173    1
   149   150   151    1
   150    12    13    2
   151   173   174    1
   152   173   172    2
   153   151   157   am
   154   151   152    2
   155   157   158    1
   156   172   171    1
   157   158   161    1
   158   158   159    1
   159   161   162    1
   160   171   170    1
   161   164   163    1
   162   169   170    1
   163   169   166    1
   164   159   160    2
   165   165   166    1
   166   162   163    1
   167   166   167    1
   168   167   168    2
