@<TRIPOS>MOLECULE
tmp/4i5cA00.pdb
 160 150 0 0 0
SMALL
GASTEIGER

@<TRIPOS>ATOM
      1  N         14.1330    6.4460   -6.0550 N.3    17  LEU17      -0.1231
      2  CA        13.3860    5.8990   -4.9180 C.3    17  LEU17       0.1693
      3  C         12.9130    7.0170   -3.9830 C.2    17  LEU17       0.2593
      4  O         11.8110    6.9600   -3.4200 O.2    17  LEU17      -0.2718
      5  CB        14.2000    4.8130   -4.1840 C.3    17  LEU17       0.0284
      6  CG        14.3660    3.4760   -4.9380 C.3    17  LEU17       0.0019
      7  CD1       15.2730    2.4830   -4.1560 C.3    17  LEU17       0.0001
      8  CD2       13.0010    2.8310   -5.2950 C.3    17  LEU17       0.0001
      9  N         13.7410    8.0460   -3.8780 N.am   18  GLY18      -0.1942
     10  CA        13.4540    9.2250   -3.0880 C.3    18  GLY18       0.2014
     11  C         14.6130   10.1820   -3.1280 C.2    18  GLY18       0.2642
     12  O         15.6690    9.8760   -3.6950 O.2    18  GLY18      -0.2714
     13  N         14.4220   11.3410   -2.5160 N.am   19  GLU19      -0.1917
     14  CA        15.4630   12.3450   -2.3780 C.3    19  GLU19       0.1949
     15  C         15.3050   13.1530   -1.0960 C.2    19  GLU19       0.2659
     16  O         14.2070   13.2560   -0.5490 O.2    19  GLU19      -0.2711
     17  CB        15.5570   13.2580   -3.6140 C.2    19  GLU19       0.0111
     18  CG        14.3050   14.0730   -3.9250 C.2    19  GLU19       0.0838
     19  CD        14.2480   14.7120   -5.3020 C.2    19  GLU19       0.3877
     20  OE1       14.8990   14.1980   -6.2440 O.co2  19  GLU19      -0.2406
     21  OE2       13.4980   15.7040   -5.4490 O.co2  19  GLU19      -0.2406
     22  N         16.4320   13.6470   -0.5980 N.am   20  GLY20      -0.1952
     23  CA        16.5100   14.6000    0.4960 C.3    20  GLY20       0.1869
     24  C         16.6450   15.9500   -0.1950 C.2    20  GLY20       0.2309
     25  O         15.9120   16.2390   -1.1590 O.2    20  GLY20      -0.2863
     26  N         20.9660   14.6890   -0.9770 N.3    23  GLY23      -0.1210
     27  CA        21.0670   13.2740   -1.2840 C.3    23  GLY23       0.1956
     28  C         19.9060   12.7560   -2.1040 C.2    23  GLY23       0.2612
     29  O         18.8510   13.3850   -2.2010 O.2    23  GLY23      -0.2717
     30  N         20.1110   11.5990   -2.7230 N.am   24  LYS24      -0.1965
     31  CA        19.0940   10.9230   -3.4990 C.3    24  LYS24       0.1728
     32  C         19.3480    9.4200   -3.4530 C.2    24  LYS24       0.2616
     33  O         20.4960    9.0100   -3.3280 O.2    24  LYS24      -0.2715
     34  CB        19.0310   11.4820   -4.9410 C.3    24  LYS24       0.0311
     35  CG        20.1200   11.0400   -5.9280 C.3    24  LYS24       0.0038
     36  CD        19.7230   11.4010   -7.3720 C.3    24  LYS24       0.0206
     37  CE        18.3830   10.8200   -7.8030 C.3    24  LYS24       0.1093
     38  NZ        18.0480   11.1100   -9.2270 N.3    24  LYS24      -0.1314
     39  N         18.2880    8.6180   -3.4640 N.am   25  VAL25      -0.1977
     40  CA        18.3950    7.1560   -3.4670 C.3    25  VAL25       0.1596
     41  C         17.7460    6.6610   -4.7510 C.2    25  VAL25       0.2287
     42  O         16.6290    7.0730   -5.0880 O.2    25  VAL25      -0.2864
     43  CB        17.8580    6.4420   -2.2060 C.3    25  VAL25       0.0276
     44  CG1       18.0780    4.9210   -2.2860 C.3    25  VAL25       0.0022
     45  CG2       18.5240    6.9960   -0.9490 C.3    25  VAL25       0.0022
     46  N         19.9620   -0.6230   -3.6830 N.3    42  ALA42      -0.1245
     47  CA        19.5480    0.7800   -3.5370 C.3    42  ALA42       0.1562
     48  C         20.8280    1.5720   -3.4190 C.2    42  ALA42       0.2260
     49  O         21.7590    1.1500   -2.7230 O.2    42  ALA42      -0.2867
     50  CB        18.6830    0.9660   -2.3070 C.3    42  ALA42       0.0290
     51  N         22.6290    5.3480   -2.7600 N.3    44  LYS44      -0.1245
     52  CA        22.5440    6.7180   -2.2760 C.3    44  LYS44       0.1561
     53  C         23.7230    7.5040   -2.8270 C.2    44  LYS44       0.2260
     54  O         24.8740    7.1080   -2.6400 O.2    44  LYS44      -0.2867
     55  CB        22.5060    6.8040   -0.7450 C.3    44  LYS44       0.0271
     56  CG        22.1090    8.2120   -0.2880 C.3    44  LYS44       0.0035
     57  CD        21.6490    8.2740    1.1410 C.3    44  LYS44       0.0206
     58  CE        21.2020    9.6770    1.4940 C.3    44  LYS44       0.1093
     59  NZ        20.7940    9.7510    2.9210 N.3    44  LYS44      -0.1314
     60  N         18.3790   -1.3180    7.7460 N.3    70  VAL70      -0.1245
     61  CA        18.6710   -1.6550    6.3380 C.3    70  VAL70       0.1561
     62  C         20.1620   -2.0370    6.2010 C.2    70  VAL70       0.2260
     63  O         21.0420   -1.3970    6.8150 O.2    70  VAL70      -0.2867
     64  CB        18.2730   -0.5260    5.3690 C.3    70  VAL70       0.0252
     65  CG1       19.1990    0.6830    5.5300 C.3    70  VAL70       0.0019
     66  CG2       18.2680   -1.0190    3.9160 C.3    70  VAL70       0.0019
     67  N         23.0970   -0.2940   -0.7210 N.3    84  MET84      -0.1230
     68  CA        22.3300   -0.9580    0.3130 C.3    84  MET84       0.1702
     69  C         21.4420   -1.9690   -0.3500 C.2    84  MET84       0.2592
     70  O         21.2300   -1.9140   -1.5580 O.2    84  MET84      -0.2718
     71  CB        21.4500    0.0460    1.1160 C.3    84  MET84       0.0401
     72  CG        22.2400    1.2520    1.7490 C.3    84  MET84       0.0596
     73  SD        21.1250    2.5660    2.2970 S.3    84  MET84      -0.1393
     74  CE        20.8730    3.4620    0.7660 C.3    84  MET84       0.0692
     75  N         20.8830   -2.8700    0.4490 N.am   85  GLU85      -0.1966
     76  CA        19.8800   -3.8010   -0.0460 C.3    85  GLU85       0.1733
     77  C         18.6710   -2.9850   -0.4310 C.2    85  GLU85       0.2616
     78  O         18.3860   -1.9300    0.1750 O.2    85  GLU85      -0.2715
     79  CB        19.4950   -4.8120    1.0380 C.3    85  GLU85       0.0429
     80  CG        18.9440   -4.1820    2.3030 C.3    85  GLU85       0.1163
     81  CD        18.4410   -5.1870    3.3030 C.2    85  GLU85       0.3649
     82  OE1       18.2240   -6.3520    2.9030 O.co2  85  GLU85      -0.2457
     83  OE2       18.2750   -4.8160    4.4880 O.co2  85  GLU85      -0.2457
     84  N         17.9810   -3.4620   -1.4500 N.am   86  PHE86      -0.1960
     85  CA        16.7960   -2.8480   -1.9760 C.3    86  PHE86       0.1771
     86  C         15.5790   -3.5340   -1.3880 C.2    86  PHE86       0.2619
     87  O         15.4790   -4.7650   -1.4170 O.2    86  PHE86      -0.2715
     88  CB        16.8010   -2.9450   -3.5130 C.3    86  PHE86       0.0574
     89  CG        15.4840   -2.5890   -4.1600 C.ar   86  PHE86      -0.0200
     90  CD1       14.9340   -1.3230   -4.0040 C.ar   86  PHE86      -0.0042
     91  CD2       14.8020   -3.5140   -4.9420 C.ar   86  PHE86      -0.0042
     92  CE1       13.6920   -1.0100   -4.5580 C.ar   86  PHE86      -0.0003
     93  CE2       13.5830   -3.1790   -5.5440 C.ar   86  PHE86      -0.0003
     94  CZ        13.0500   -1.9210   -5.3680 C.ar   86  PHE86      -0.0000
     95  N         14.6400   -2.7360   -0.8640 N.am   87  LEU87      -0.1977
     96  CA        13.4000   -3.2730   -0.2980 C.3    87  LEU87       0.1596
     97  C         12.2570   -2.8490   -1.1960 C.2    87  LEU87       0.2287
     98  O         11.8560   -1.6890   -1.1370 O.2    87  LEU87      -0.2864
     99  CB        13.2020   -2.8510    1.1890 C.3    87  LEU87       0.0297
    100  CG        13.7690   -3.8320    2.2560 C.3    87  LEU87       0.0022
    101  CD1       15.2770   -4.0270    2.1320 C.3    87  LEU87       0.0001
    102  CD2       13.4890   -3.3140    3.6730 C.3    87  LEU87       0.0001
    103  N          9.2310   -0.4820   -0.4060 N.3    90  GLY90      -0.1210
    104  CA         9.5230    0.9130   -0.1260 C.3    90  GLY90       0.1956
    105  C          9.2970    1.2610    1.3280 C.2    90  GLY90       0.2612
    106  O          9.3590    0.3930    2.2050 O.2    90  GLY90      -0.2717
    107  N          9.0040    2.5430    1.5760 N.am   91  SER91      -0.1952
    108  CA         8.7890    3.0770    2.8990 C.3    91  SER91       0.1924
    109  C          7.3510    2.8550    3.3430 C.2    91  SER91       0.2314
    110  O          6.5130    2.4490    2.5410 O.2    91  SER91      -0.2863
    111  CB         9.1790    4.5570    2.9450 C.3    91  SER91       0.2116
    112  OG         8.0540    5.4020    2.7650 O.3    91  SER91      -0.2180
    113  N          4.7230    4.6580    1.3680 N.3    94  GLU94      -0.1245
    114  CA         4.2700    4.0320    0.1360 C.3    94  GLU94       0.1567
    115  C          3.3700    2.8430    0.4520 C.2    94  GLU94       0.2260
    116  O          2.3090    2.6760   -0.1460 O.2    94  GLU94      -0.2867
    117  CB         5.4830    3.5230   -0.6730 C.3    94  GLU94       0.0388
    118  CG         6.2010    4.6040   -1.4510 C.3    94  GLU94       0.1160
    119  CD         7.1290    5.4420   -0.6050 C.2    94  GLU94       0.3649
    120  OE1        8.1040    4.8710   -0.0670 O.co2  94  GLU94      -0.2457
    121  OE2        6.8510    6.6520   -0.4350 O.co2  94  GLU94      -0.2457
    122  N          8.5400    8.0040    6.3780 N.3   135  ARG135     -0.1231
    123  CA         9.2180    8.0320    5.0930 C.3   135  ARG135      0.1694
    124  C         10.6250    7.3840    5.1940 C.2   135  ARG135      0.2592
    125  O         11.1940    7.0380    4.1540 O.2   135  ARG135     -0.2718
    126  CB         9.3180    9.4810    4.5510 C.3   135  ARG135      0.0321
    127  CG        10.2450   10.3640    5.3810 C.3   135  ARG135      0.0489
    128  CD        10.5170   11.7490    4.8020 C.3   135  ARG135      0.2205
    129  NE        10.7190   12.6840    5.9070 N.pl3 135  ARG135     -0.0865
    130  CZ        11.8970   13.0080    6.4230 C.cat 135  ARG135      0.5346
    131  NH1       13.0160   12.5330    5.8900 N.pl3 135  ARG135      0.1354
    132  NH2       11.9690   13.8300    7.4620 N.pl3 135  ARG135      0.1354
    133  N         11.1770    7.2130    6.4180 N.am  136  ASN136     -0.1974
    134  CA        12.5270    6.6240    6.5640 C.3   136  ASN136      0.1688
    135  C         12.5170    5.1950    7.0730 C.2   136  ASN136      0.2292
    136  O         13.5720    4.5970    7.3540 O.2   136  ASN136     -0.2864
    137  CB        13.4730    7.5370    7.3770 C.3   136  ASN136      0.1181
    138  CG        13.8690    8.7830    6.6300 C.2   136  ASN136      0.2629
    139  OD1       14.0450    8.7690    5.4170 O.2   136  ASN136     -0.2716
    140  ND2       14.0090    9.8890    7.3310 N.am  136  ASN136     -0.0877
    141  N         11.5950    1.5270    6.1580 N.3   138  LEU138     -0.1245
    142  CA        11.3980    0.6260    5.0330 C.3   138  LEU138      0.1561
    143  C         10.6150   -0.6200    5.4530 C.2   138  LEU138      0.2260
    144  O         10.7050   -1.0340    6.6060 O.2   138  LEU138     -0.2867
    145  CB        12.7490    0.2190    4.4020 C.3   138  LEU138      0.0270
    146  CG        13.5630    1.3130    3.7160 C.3   138  LEU138      0.0019
    147  CD1       14.9420    0.7840    3.3460 C.3   138  LEU138      0.0001
    148  CD2       12.8500    1.7940    2.4850 C.3   138  LEU138      0.0001
    149  N         15.6660    2.9310    7.3020 N.3   148  GLY148     -0.1210
    150  CA        16.3230    2.9150    5.9960 C.3   148  GLY148      0.1956
    151  C         17.1230    4.0970    5.5390 C.2   148  GLY148      0.2611
    152  O         17.4540    4.1730    4.3590 O.2   148  GLY148     -0.2717
    153  N         17.4340    5.0280    6.4530 N.am  149  ASP149     -0.1973
    154  CA        18.1830    6.2430    6.1170 C.3   149  ASP149      0.1709
    155  C         18.7830    6.8100    7.3720 C.2   149  ASP149      0.2293
    156  O         18.1630    6.7610    8.4380 O.2   149  ASP149     -0.2864
    157  CB        17.2920    7.2890    5.4350 C.3   149  ASP149      0.1436
    158  CG        18.0720    8.3720    4.7060 C.2   149  ASP149      0.3671
    159  OD1       18.3220    8.2070    3.4780 O.co2 149  ASP149     -0.2456
    160  OD2       18.3780    9.4120    5.3380 O.co2 149  ASP149     -0.2456
@<TRIPOS>BOND
     1    38    37    1
     2    37    36    1
     3    36    35    1
     4    20    19   ar
     5     1     2    1
     6    35    34    1
     7    93    94   ar
     8    93    91   ar
     9    21    19   ar
    10    94    92   ar
    11    19    18    1
    12     8     6    1
    13    42    41    2
    14    91    89   ar
    15    34    31    1
    16     6     5    1
    17     6     7    1
    18     2     5    1
    19     2     3    1
    20    41    40    1
    21    92    90   ar
    22    89    90   ar
    23    89    88    1
    24     3     9   am
    25     3     4    2
    26    18    17    2
    27     9    10    1
    28    12    11    2
    29    46    47    1
    30    17    14    1
    31    47    48    1
    32    47    50    1
    33    88    85    1
    34    31    32    1
    35    31    30    1
    36    40    39    1
    37    40    43    1
    38    39    32   am
    39    32    33    2
    40    48    49    2
    41    11    10    1
    42    11    13   am
    43    53    54    2
    44    53    52    1
    45    51    52    1
    46    30    28   am
    47    13    14    1
    48    14    15    1
    49    44    43    1
    50    52    55    1
    51    43    45    1
    52    29    28    2
    53    28    27    1
    54    85    84    1
    55    85    86    1
    56    70    69    2
    57   118   117    1
    58   118   119    1
    59    84    77   am
    60    87    86    2
    61    86    95   am
    62    27    26    1
    63    97    98    2
    64    97    96    1
    65    25    24    2
    66    15    22   am
    67    15    16    2
    68    95    96    1
    69    55    56    1
    70    67    68    1
    71   117   114    1
    72   119   121   ar
    73   119   120   ar
    74    22    23    1
    75    77    76    1
    76    77    78    2
    77   103   104    1
    78    69    68    1
    79    69    75   am
    80    96    99    1
    81    56    57    1
    82    24    23    1
    83   116   115    2
    84   104   105    1
    85    76    75    1
    86    76    79    1
    87   114   115    1
    88   114   113    1
    89    68    71    1
    90    74    73    1
    91    79    80    1
    92    71    72    1
    93    57    58    1
    94    99   100    1
    95   105   107   am
    96   105   106    2
    97    58    59    1
    98   107   108    1
    99    72    73    1
   100   101   100    1
   101   100   102    1
   102    80    81    1
   103   148   146    1
   104   110   109    2
   105   112   111    1
   106   108   111    1
   107   108   109    1
   108    82    81   ar
   109    81    83   ar
   110   147   146    1
   111   159   158   ar
   112   146   145    1
   113    66    64    1
   114   125   124    2
   115   152   151    2
   116   145   142    1
   117   126   123    1
   118   126   127    1
   119   158   160   ar
   120   158   157    1
   121   128   127    1
   122   128   129    1
   123   142   143    1
   124   142   141    1
   125   123   124    1
   126   123   122    1
   127   124   133   am
   128    64    65    1
   129    64    61    1
   130   139   138    2
   131   157   154    1
   132   143   144    2
   133   151   150    1
   134   151   153   am
   135   131   130    1
   136   129   130    2
   137   150   149    1
   138   154   153    1
   139   154   155    1
   140    62    61    1
   141    62    63    2
   142    61    60    1
   143   133   134    1
   144   130   132    1
   145   134   135    1
   146   134   137    1
   147   138   140   am
   148   138   137    1
   149   135   136    2
   150   155   156    2
