@<TRIPOS>MOLECULE
tmp/4i5iB00.pdb
 133 128 0 0 0
SMALL
GASTEIGER

@<TRIPOS>ATOM
      1  N          8.4600   -2.6030   20.6370 N.3    22  ALA22      -0.1245
      2  CA         8.6870   -2.6920   19.1930 C.3    22  ALA22       0.1562
      3  C          8.5210   -1.3660   18.4390 C.2    22  ALA22       0.2260
      4  O          9.0190   -1.2160   17.3220 O.2    22  ALA22      -0.2867
      5  CB         7.8050   -3.7750   18.5930 C.3    22  ALA22       0.0290
      6  N         11.6620    0.5570   16.9150 N.3    25  SER25      -0.1217
      7  CA        12.3520    0.0180   15.7460 C.3    25  SER25       0.1889
      8  C         11.5340    0.1250   14.4510 C.2    25  SER25       0.2288
      9  O         11.9790   -0.3250   13.3910 O.2    25  SER25      -0.2866
     10  CB        12.7810   -1.4280   16.0110 C.3    25  SER25       0.2089
     11  OG        13.6780   -1.4920   17.1110 O.3    25  SER25      -0.2183
     12  N         11.5760   -2.2710   11.0280 N.3    30  ILE30      -0.1231
     13  CA        11.0530   -3.4450   11.7290 C.3    30  ILE30       0.1678
     14  C          9.6490   -3.1340   12.2480 C.2    30  ILE30       0.2434
     15  O          9.4800   -2.2200   13.0540 O.2    30  ILE30      -0.2733
     16  CB        11.9620   -3.8820   12.9020 C.3    30  ILE30       0.0265
     17  CG1       13.4210   -3.9930   12.4450 C.3    30  ILE30       0.0019
     18  CG2       11.4870   -5.2070   13.4870 C.3    30  ILE30       0.0020
     19  CD1       14.4190   -4.1630   13.5720 C.3    30  ILE30       0.0001
     20  N          8.6360   -3.8880   11.7830 N.am   31  PRO31      -0.2729
     21  CA         7.2550   -3.6400   12.2190 C.3    31  PRO31       0.1401
     22  C          7.0290   -3.9670   13.6990 C.2    31  PRO31       0.2269
     23  O          7.7550   -4.7840   14.2700 O.2    31  PRO31      -0.2865
     24  CB         6.4310   -4.5890   11.3390 C.3    31  PRO31       0.0296
     25  CG         7.3820   -5.6750   10.9580 C.3    31  PRO31       0.0237
     26  CD         8.7270   -5.0200   10.8400 C.3    31  PRO31       0.0939
     27  N          4.0870   -5.2700   16.7290 N.3    33  PHE33      -0.1241
     28  CA         3.2270   -6.4510   16.7660 C.3    33  PHE33       0.1605
     29  C          1.7570   -6.1790   16.4570 C.2    33  PHE33       0.2264
     30  O          1.1640   -6.8680   15.6280 O.2    33  PHE33      -0.2867
     31  CB         3.3440   -7.1730   18.1140 C.3    33  PHE33       0.0534
     32  CG         4.4840   -8.1460   18.1800 C.ar   33  PHE33      -0.0203
     33  CD1        5.7490   -7.7270   18.5670 C.ar   33  PHE33      -0.0042
     34  CD2        4.2920   -9.4820   17.8480 C.ar   33  PHE33      -0.0042
     35  CE1        6.8010   -8.6230   18.6210 C.ar   33  PHE33      -0.0003
     36  CE2        5.3420  -10.3840   17.9020 C.ar   33  PHE33      -0.0003
     37  CZ         6.5980   -9.9540   18.2920 C.ar   33  PHE33      -0.0000
     38  N          3.2220   -7.1910   12.9260 N.3    39  ILE39      -0.1245
     39  CA         3.5710   -8.5930   12.6950 C.3    39  ILE39       0.1561
     40  C          2.3350   -9.4800   12.5150 C.2    39  ILE39       0.2260
     41  O          2.2690  -10.2670   11.5700 O.2    39  ILE39      -0.2867
     42  CB         4.4950   -9.1280   13.8260 C.3    39  ILE39       0.0252
     43  CG1        5.8990   -8.5090   13.7240 C.3    39  ILE39       0.0019
     44  CG2        4.5810  -10.6500   13.8230 C.3    39  ILE39       0.0019
     45  CD1        6.7290   -8.9920   12.5480 C.3    39  ILE39       0.0001
     46  N          4.9680  -17.4460   17.9510 N.3    57  PHE57      -0.1241
     47  CA         5.8650  -17.3180   19.0940 C.3    57  PHE57       0.1605
     48  C          5.2000  -17.8470   20.3670 C.2    57  PHE57       0.2264
     49  O          5.2760  -17.2290   21.4340 O.2    57  PHE57      -0.2867
     50  CB         6.3060  -15.8610   19.2800 C.3    57  PHE57       0.0534
     51  CG         6.8650  -15.2160   18.0410 C.ar   57  PHE57      -0.0203
     52  CD1        6.2350  -14.1090   17.4780 C.ar   57  PHE57      -0.0042
     53  CD2        8.0320  -15.6920   17.4490 C.ar   57  PHE57      -0.0042
     54  CE1        6.7520  -13.4980   16.3410 C.ar   57  PHE57      -0.0003
     55  CE2        8.5510  -15.0860   16.3130 C.ar   57  PHE57      -0.0003
     56  CZ         7.9110  -13.9880   15.7590 C.ar   57  PHE57      -0.0000
     57  N         13.4730  -12.2650   11.1180 N.3    76  ILE76      -0.1245
     58  CA        13.6030  -11.5040   12.3680 C.3    76  ILE76       0.1561
     59  C         14.9860  -11.6420   13.0200 C.2    76  ILE76       0.2260
     60  O         15.2030  -11.1600   14.1350 O.2    76  ILE76      -0.2867
     61  CB        12.4930  -11.8570   13.3900 C.3    76  ILE76       0.0252
     62  CG1       12.4940  -13.3590   13.7020 C.3    76  ILE76       0.0019
     63  CG2       11.1350  -11.3850   12.8820 C.3    76  ILE76       0.0019
     64  CD1       11.8300  -13.7290   15.0100 C.3    76  ILE76       0.0001
     65  N         12.0700   -5.0100   25.2130 N.3   105  GLN105     -0.1231
     66  CA        11.2460   -6.1590   24.8690 C.3   105  GLN105      0.1698
     67  C         11.5910   -6.6630   23.4730 C.2   105  GLN105      0.2592
     68  O         11.0930   -7.7010   23.0410 O.2   105  GLN105     -0.2718
     69  CB         9.7650   -5.7890   24.9410 C.3   105  GLN105      0.0381
     70  CG         9.3040   -5.3340   26.3130 C.3   105  GLN105      0.0905
     71  CD         7.8610   -4.8750   26.3140 C.2   105  GLN105      0.2608
     72  OE1        7.5780   -3.6760   26.2920 O.2   105  GLN105     -0.2717
     73  NE2        6.9400   -5.8280   26.3370 N.am  105  GLN105     -0.0878
     74  N         12.4400   -5.9170   22.7740 N.am  106  ASN106     -0.1960
     75  CA        12.8620   -6.2630   21.4220 C.3   106  ASN106      0.1819
     76  C         13.9820   -7.2900   21.4070 C.2   106  ASN106      0.2621
     77  O         14.7710   -7.3780   22.3500 O.2   106  ASN106     -0.2715
     78  CB        13.3030   -5.0090   20.6640 C.3   106  ASN106      0.1195
     79  CG        12.1870   -3.9970   20.5180 C.2   106  ASN106      0.2630
     80  OD1       11.0100   -4.3370   20.6310 O.2   106  ASN106     -0.2716
     81  ND2       12.5490   -2.7440   20.2670 N.am  106  ASN106     -0.0877
     82  N         14.0430   -8.0620   20.3270 N.am  107  ILE107     -0.1963
     83  CA        15.0990   -9.0480   20.1340 C.3   107  ILE107      0.1727
     84  C         16.0520   -8.6210   19.0160 C.2   107  ILE107      0.2616
     85  O         17.0450   -9.3020   18.7520 O.2   107  ILE107     -0.2715
     86  CB        14.5250  -10.4480   19.8170 C.3   107  ILE107      0.0290
     87  CG1       13.7370  -10.4190   18.4990 C.3   107  ILE107      0.0022
     88  CG2       13.6700  -10.9430   20.9780 C.3   107  ILE107      0.0023
     89  CD1       13.6420  -11.7510   17.7900 C.3   107  ILE107      0.0001
     90  N         15.7480   -7.4900   18.3760 N.am  108  ASP108     -0.1971
     91  CA        16.4960   -7.0120   17.2060 C.3   108  ASP108      0.1709
     92  C         17.9670   -6.6750   17.4890 C.2   108  ASP108      0.2293
     93  O         18.7750   -6.5820   16.5620 O.2   108  ASP108     -0.2864
     94  CB        15.7740   -5.8300   16.5380 C.3   108  ASP108      0.1436
     95  CG        15.5890   -4.6300   17.4720 C.2   108  ASP108      0.3671
     96  OD1       16.4910   -4.3290   18.2890 O.co2 108  ASP108     -0.2456
     97  OD2       14.5340   -3.9670   17.3700 O.co2 108  ASP108     -0.2456
     98  N         13.0990  -10.1560   26.7220 N.3   123  HIS123     -0.1241
     99  CA        12.5080  -11.2480   25.9600 C.3   123  HIS123      0.1621
    100  C         13.5380  -12.0720   25.2340 C.2   123  HIS123      0.2264
    101  O         13.2340  -12.7280   24.2340 O.2   123  HIS123     -0.2867
    102  CB        11.4260  -10.7250   25.0160 C.3   123  HIS123      0.0745
    103  CG        10.2390  -10.1170   25.7280 C.ar  123  HIS123      0.0817
    104  ND1        9.3450   -9.3310   25.1030 N.ar  123  HIS123     -0.2268
    105  CD2        9.8310  -10.1930   27.0600 C.ar  123  HIS123      0.1154
    106  CE1        8.4020   -8.9360   25.9810 C.ar  123  HIS123      0.1986
    107  NE2        8.7040   -9.4600   27.1790 N.ar  123  HIS123     -0.2212
    108  N         14.8070  -16.7840   22.6200 N.3   171  ILE171     -0.1231
    109  CA        13.8700  -15.6650   22.6370 C.3   171  ILE171      0.1692
    110  C         12.6160  -16.1530   23.3610 C.2   171  ILE171      0.2592
    111  O         12.2280  -17.3130   23.2130 O.2   171  ILE171     -0.2718
    112  CB        13.5390  -15.1500   21.2120 C.3   171  ILE171      0.0266
    113  CG1       12.9870  -16.2690   20.3160 C.3   171  ILE171      0.0019
    114  CG2       14.7740  -14.5320   20.5680 C.3   171  ILE171      0.0020
    115  CD1       12.5540  -15.8090   18.9360 C.3   171  ILE171      0.0001
    116  N         11.9900  -15.2820   24.1470 N.am  172  VAL172     -0.1966
    117  CA        10.9200  -15.7150   25.0470 C.3   172  VAL172      0.1727
    118  C          9.5490  -15.7960   24.3680 C.2   172  VAL172      0.2616
    119  O          8.9730  -14.7820   23.9560 O.2   172  VAL172     -0.2715
    120  CB        10.8660  -14.8610   26.3390 C.3   172  VAL172      0.0290
    121  CG1        9.7720  -15.3630   27.2710 C.3   172  VAL172      0.0023
    122  CG2       12.2130  -14.8970   27.0540 C.3   172  VAL172      0.0023
    123  N          9.0490  -17.0250   24.2610 N.am  173  PHE173     -0.1974
    124  CA         7.7250  -17.3170   23.7160 C.3   173  PHE173      0.1639
    125  C          6.6890  -17.2340   24.8340 C.2   173  PHE173      0.2290
    126  O          7.0490  -17.2900   26.0140 O.2   173  PHE173     -0.2864
    127  CB         7.7140  -18.7320   23.1250 C.3   173  PHE173      0.0560
    128  CG         8.3120  -18.8370   21.7450 C.ar  173  PHE173     -0.0200
    129  CD1        8.0120  -19.9300   20.9360 C.ar  173  PHE173     -0.0042
    130  CD2        9.1630  -17.8520   21.2430 C.ar  173  PHE173     -0.0042
    131  CE1        8.5530  -20.0460   19.6650 C.ar  173  PHE173     -0.0003
    132  CE2        9.7020  -17.9610   19.9700 C.ar  173  PHE173     -0.0003
    133  CZ         9.3990  -19.0600   19.1810 C.ar  173  PHE173     -0.0000
@<TRIPOS>BOND
     1    26    25    1
     2    26    20    1
     3    25    24    1
     4    12    13    1
     5    57    58    1
     6    24    21    1
     7    41    40    2
     8    13    14    1
     9    13    16    1
    10    20    21    1
    11    20    14   am
    12    21    22    1
    13    14    15    2
    14    58    59    1
    15    58    61    1
    16    17    16    1
    17    17    19    1
    18    40    39    1
    19    45    43    1
    20    39    38    1
    21    39    42    1
    22    63    61    1
    23    16    18    1
    24    59    60    2
    25    61    62    1
    26     9     8    2
    27    22    23    2
    28    62    64    1
    29    43    42    1
    30    44    42    1
    31     8     7    1
    32    30    29    2
    33     7    10    1
    34     7     6    1
    35    56    55   ar
    36    56    54   ar
    37    10    11    1
    38    55    53   ar
    39    54    52   ar
    40    29    28    1
    41    94    91    1
    42    94    95    1
    43    93    92    2
    44    27    28    1
    45    28    31    1
    46    91    92    1
    47    91    90    1
    48     4     3    2
    49    97    95   ar
    50    53    51   ar
    51    95    96   ar
    52    52    51   ar
    53    89    87    1
    54    34    36   ar
    55    34    32   ar
    56    36    37   ar
    57    46    47    1
    58    51    50    1
    59    31    32    1
    60    32    33   ar
    61    37    35   ar
    62    90    84   am
    63     3     2    1
    64    87    86    1
    65    33    35   ar
    66     5     2    1
    67    85    84    2
    68   115   113    1
    69    84    83    1
    70    47    50    1
    71    47    48    1
    72   133   131   ar
    73   133   132   ar
    74     2     1    1
    75   131   129   ar
    76    86    83    1
    77    86    88    1
    78   132   130   ar
    79    83    82    1
    80    81    79   am
    81   113   112    1
    82    82    76   am
    83    48    49    2
    84    79    80    2
    85    79    78    1
    86   114   112    1
    87    78    75    1
    88   129   128   ar
    89   112   109    1
    90   130   128   ar
    91    76    75    1
    92    76    77    2
    93    75    74    1
    94   128   127    1
    95   108   109    1
    96   109   110    1
    97    74    67   am
    98    68    67    2
    99   127   124    1
   100   111   110    2
   101   110   116   am
   102    67    66    1
   103   124   123    1
   104   124   125    1
   105   119   118    2
   106   116   117    1
   107   101   100    2
   108   123   118   am
   109   118   117    1
   110   125   126    2
   111    66    69    1
   112    66    65    1
   113    69    70    1
   114   102   103    1
   115   102    99    1
   116   117   120    1
   117   104   103   ar
   118   104   106   ar
   119   100    99    1
   120   103   105   ar
   121    99    98    1
   122   106   107   ar
   123    72    71    2
   124    70    71    1
   125    71    73   am
   126   120   122    1
   127   120   121    1
   128   105   107   ar
