@<TRIPOS>MOLECULE
tmp/4i5lB01.pdb
 80 75 0 0 0
SMALL
GASTEIGER

@<TRIPOS>ATOM
      1  N         55.7660   30.2120  119.7370 N.3   211  LEU211     -0.1245
      2  CA        57.0700   30.2570  119.1200 C.3   211  LEU211      0.1561
      3  C         57.0600   29.4000  117.8650 C.2   211  LEU211      0.2260
      4  O         56.6000   28.2470  117.8700 O.2   211  LEU211     -0.2867
      5  CB        58.1520   29.7600  120.0940 C.3   211  LEU211      0.0270
      6  CG        59.0740   30.7050  120.8840 C.3   211  LEU211      0.0019
      7  CD1       58.6400   32.1590  120.8940 C.3   211  LEU211      0.0001
      8  CD2       59.2720   30.2100  122.3130 C.3   211  LEU211      0.0001
      9  N         65.5210   41.3390  110.3420 N.3   238  VAL238     -0.1231
     10  CA        64.2530   42.0060  110.6720 C.3   238  VAL238      0.1692
     11  C         63.8270   41.9240  112.1380 C.2   238  VAL238      0.2593
     12  O         62.7010   42.2760  112.4680 O.2   238  VAL238     -0.2718
     13  CB        63.0750   41.5830  109.7560 C.3   238  VAL238      0.0266
     14  CG1       63.2830   42.0720  108.3280 C.3   238  VAL238      0.0020
     15  CG2       62.8330   40.0780  109.8100 C.3   238  VAL238      0.0020
     16  N         64.7340   41.5050  113.0130 N.am  239  THR239     -0.1939
     17  CA        64.4420   41.4070  114.4440 C.3   239  THR239      0.2028
     18  C         65.5320   42.0550  115.3040 C.2   239  THR239      0.2642
     19  O         66.7170   41.9180  115.0100 O.2   239  THR239     -0.2714
     20  CB        64.2560   39.9350  114.8840 C.3   239  THR239      0.1808
     21  OG1       65.3720   39.1440  114.4430 O.3   239  THR239     -0.2208
     22  CG2       62.9810   39.3550  114.3020 C.3   239  THR239      0.0379
     23  N         65.1240   42.7610  116.3610 N.am  240  ARG240     -0.1977
     24  CA        66.0520   43.3050  117.3460 C.3   240  ARG240      0.1597
     25  C         66.7660   42.1780  118.0770 C.2   240  ARG240      0.2287
     26  O         66.1770   41.1170  118.2780 O.2   240  ARG240     -0.2864
     27  CB        65.3010   44.1520  118.3620 C.3   240  ARG240      0.0334
     28  CG        64.7960   45.4770  117.8200 C.3   240  ARG240      0.0492
     29  CD        63.9710   46.2520  118.8510 C.3   240  ARG240      0.2205
     30  NE        63.0890   47.2140  118.1940 N.pl3 240  ARG240     -0.0865
     31  CZ        61.8670   46.9290  117.7430 C.cat 240  ARG240      0.5346
     32  NH1       61.3560   45.7090  117.8830 N.pl3 240  ARG240      0.1354
     33  NH2       61.1470   47.8640  117.1430 N.pl3 240  ARG240      0.1354
     34  N         68.4910   36.9450  120.1340 N.3   243  LYS243     -0.1231
     35  CA        67.7110   35.7430  120.3930 C.3   243  LYS243      0.1693
     36  C         67.3260   34.9800  119.1120 C.2   243  LYS243      0.2591
     37  O         67.6420   33.8110  118.9810 O.2   243  LYS243     -0.2718
     38  CB        66.5190   36.0400  121.3150 C.3   243  LYS243      0.0285
     39  CG        65.6050   34.8490  121.5820 C.3   243  LYS243      0.0035
     40  CD        65.0410   34.8310  123.0030 C.3   243  LYS243      0.0206
     41  CE        63.7140   34.0740  123.0570 C.3   243  LYS243      0.1093
     42  NZ        63.5770   33.2160  124.2680 N.3   243  LYS243     -0.1314
     43  N         66.6770   35.6450  118.1650 N.am  244  VAL244     -0.1980
     44  CA        66.2450   34.9960  116.9120 C.3   244  VAL244      0.1595
     45  C         67.3740   34.2960  116.1240 C.2   244  VAL244      0.2287
     46  O         67.1920   33.1760  115.6450 O.2   244  VAL244     -0.2864
     47  CB        65.4590   35.9850  116.0220 C.3   244  VAL244      0.0276
     48  CG1       65.0350   35.3280  114.7140 C.3   244  VAL244      0.0022
     49  CG2       64.2280   36.4850  116.7710 C.3   244  VAL244      0.0022
     50  N         63.9040   30.7410  116.2140 N.3   249  LYS249     -0.1231
     51  CA        62.4860   30.8770  116.4760 C.3   249  LYS249      0.1693
     52  C         62.0690   32.3530  116.6070 C.2   249  LYS249      0.2592
     53  O         62.8120   33.1810  117.1560 O.2   249  LYS249     -0.2718
     54  CB        62.0720   30.1250  117.7420 C.3   249  LYS249      0.0285
     55  CG        62.5640   28.6890  117.8690 C.3   249  LYS249      0.0035
     56  CD        62.0840   28.1020  119.1960 C.3   249  LYS249      0.0206
     57  CE        63.0320   27.0770  119.8080 C.3   249  LYS249      0.1093
     58  NZ        63.6090   26.1240  118.8180 N.3   249  LYS249     -0.1314
     59  N         60.8710   32.6600  116.0990 N.am  250  ILE250     -0.1966
     60  CA        60.2240   33.9620  116.2950 C.3   250  ILE250      0.1727
     61  C         58.9500   33.8420  117.1260 C.2   250  ILE250      0.2616
     62  O         58.3110   32.7950  117.1550 O.2   250  ILE250     -0.2715
     63  CB        59.9160   34.6880  114.9560 C.3   250  ILE250      0.0290
     64  CG1       58.9360   33.8830  114.0960 C.3   250  ILE250      0.0022
     65  CG2       61.2080   35.0070  114.1930 C.3   250  ILE250      0.0023
     66  CD1       58.5420   34.5820  112.8090 C.3   250  ILE250      0.0001
     67  N         58.6150   34.9290  117.8110 N.am  251  SER251     -0.1950
     68  CA        57.4050   35.0540  118.6230 C.3   251  SER251      0.1924
     69  C         56.1820   35.3610  117.7530 C.2   251  SER251      0.2314
     70  O         56.3140   35.6450  116.5590 O.2   251  SER251     -0.2863
     71  CB        57.5870   36.2140  119.6040 C.3   251  SER251      0.2116
     72  OG        57.6340   37.4670  118.8980 O.3   251  SER251     -0.2180
     73  N         56.4640   38.9850  116.2650 N.3   254  ASP254     -0.1239
     74  CA        57.3170   38.9880  115.0780 C.3   254  ASP254      0.1674
     75  C         56.5900   38.4260  113.8800 C.2   254  ASP254      0.2266
     76  O         56.6740   38.9770  112.7800 O.2   254  ASP254     -0.2867
     77  CB        58.5820   38.1840  115.3250 C.3   254  ASP254      0.1410
     78  CG        59.5590   38.9080  116.2250 C.2   254  ASP254      0.3668
     79  OD1       59.6480   40.1550  116.1190 O.co2 254  ASP254     -0.2456
     80  OD2       60.2390   38.2290  117.0360 O.co2 254  ASP254     -0.2456
@<TRIPOS>BOND
     1    14    13    1
     2    13    15    1
     3    13    10    1
     4     9    10    1
     5    10    11    1
     6    11    12    2
     7    11    16   am
     8    76    75    2
     9    66    64    1
    10    16    17    1
    11    75    74    1
    12    64    63    1
    13    65    63    1
    14    22    20    1
    15    21    20    1
    16    17    20    1
    17    17    18    1
    18    48    47    1
    19    63    60    1
    20    19    18    2
    21    74    77    1
    22    74    73    1
    23    18    23   am
    24    77    78    1
    25    46    45    2
    26    47    49    1
    27    47    44    1
    28    59    60    1
    29    59    52   am
    30    79    78   ar
    31    45    44    1
    32    50    51    1
    33    78    80   ar
    34    60    61    1
    35    23    24    1
    36    51    52    1
    37    51    54    1
    38    70    69    2
    39    52    53    2
    40    44    43    1
    41    61    62    2
    42    61    67   am
    43    33    31    1
    44    24    25    1
    45    24    27    1
    46    54    55    1
    47    31    32    1
    48    31    30    2
    49    69    68    1
    50    67    68    1
    51    28    27    1
    52    28    29    1
    53     3     4    2
    54     3     2    1
    55    55    56    1
    56    25    26    2
    57    43    36   am
    58    30    29    1
    59    68    71    1
    60    58    57    1
    61    72    71    1
    62    37    36    2
    63    36    35    1
    64     2     1    1
    65     2     5    1
    66    56    57    1
    67     5     6    1
    68    34    35    1
    69    35    38    1
    70     6     7    1
    71     6     8    1
    72    38    39    1
    73    39    40    1
    74    40    41    1
    75    41    42    1
