@<TRIPOS>MOLECULE
tmp/4i5lC02.pdb
 85 82 0 0 0
SMALL
GASTEIGER

@<TRIPOS>ATOM
      1  N         40.6300   65.0460   64.6890 N.3    39  THR39      -0.1203
      2  CA        39.2720   65.1840   64.2020 C.3    39  THR39       0.1994
      3  C         39.2070   65.6450   62.7290 C.2    39  THR39       0.2618
      4  O         38.2350   65.4020   62.0440 O.2    39  THR39      -0.2717
      5  CB        38.4500   66.0700   65.1620 C.3    39  THR39       0.1784
      6  OG1       37.0690   65.7430   65.0340 O.3    39  THR39      -0.2211
      7  CG2       38.6630   67.5500   64.9010 C.3    39  THR39       0.0376
      8  N         40.2710   66.2830   62.2500 N.am   40  LYS40      -0.1965
      9  CA        40.3780   66.7010   60.8500 C.3    40  LYS40       0.1728
     10  C         40.9170   65.5900   59.9500 C.2    40  LYS40       0.2616
     11  O         40.9240   65.7190   58.7390 O.2    40  LYS40      -0.2715
     12  CB        41.2610   67.9540   60.7280 C.3    40  LYS40       0.0311
     13  CG        40.6670   69.2070   61.3490 C.3    40  LYS40       0.0038
     14  CD        39.4820   69.7150   60.5440 C.3    40  LYS40       0.0206
     15  CE        39.9330   70.4060   59.2580 C.3    40  LYS40       0.1093
     16  NZ        38.7730   70.8160   58.4070 N.3    40  LYS40      -0.1314
     17  N         41.3730   64.4980   60.5450 N.am   41  GLU41      -0.1963
     18  CA        41.9140   63.4080   59.7620 C.3    41  GLU41       0.1733
     19  C         40.8410   62.4030   59.4020 C.2    41  GLU41       0.2617
     20  O         39.8890   62.2250   60.1380 O.2    41  GLU41      -0.2715
     21  CB        43.0980   62.7590   60.4820 C.3    41  GLU41       0.0429
     22  CG        44.3210   63.6720   60.4600 C.3    41  GLU41       0.1163
     23  CD        45.5280   63.0730   61.1530 C.2    41  GLU41       0.3649
     24  OE1       45.4840   61.8750   61.5330 O.co2  41  GLU41      -0.2457
     25  OE2       46.5190   63.8080   61.3170 O.co2  41  GLU41      -0.2457
     26  N         41.0200   61.7700   58.2480 N.am   42  SER42      -0.1936
     27  CA        40.0570   60.8510   57.6670 C.3    42  SER42       0.2055
     28  C         40.2090   59.4240   58.2170 C.2    42  SER42       0.2643
     29  O         41.2620   59.0710   58.7620 O.2    42  SER42      -0.2714
     30  CB        40.2550   60.8490   56.1540 C.3    42  SER42       0.2130
     31  OG        39.6250   59.7230   55.5730 O.3    42  SER42      -0.2179
     32  N         39.1580   58.6120   58.0790 N.am   43  ASN43      -0.1971
     33  CA        39.2310   57.1790   58.4190 C.3    43  ASN43       0.1688
     34  C         40.2630   56.4420   57.5670 C.2    43  ASN43       0.2292
     35  O         40.7670   55.3840   57.9620 O.2    43  ASN43      -0.2864
     36  CB        37.8690   56.4910   58.2570 C.3    43  ASN43       0.1181
     37  CG        36.8400   56.9680   59.2660 C.2    43  ASN43       0.2629
     38  OD1       37.1350   57.7710   60.1440 O.2    43  ASN43      -0.2716
     39  ND2       35.6130   56.4730   59.1360 N.am   43  ASN43      -0.0877
     40  N         35.6490   55.0630   54.6780 N.3   180  ARG180     -0.1245
     41  CA        35.4670   56.5200   54.8750 C.3   180  ARG180      0.1563
     42  C         34.0700   56.8580   55.3950 C.2   180  ARG180      0.2260
     43  O         33.8780   57.8950   56.0400 O.2   180  ARG180     -0.2867
     44  CB        35.7920   57.3120   53.5940 C.3   180  ARG180      0.0307
     45  CG        37.2540   57.2320   53.1910 C.3   180  ARG180      0.0489
     46  CD        37.6180   58.1690   52.0450 C.3   180  ARG180      0.2205
     47  NE        37.6450   57.4290   50.7950 N.pl3 180  ARG180     -0.0865
     48  CZ        38.7440   57.0600   50.1430 C.cat 180  ARG180      0.5346
     49  NH1       39.9390   57.4010   50.5900 N.pl3 180  ARG180      0.1354
     50  NH2       38.6330   56.3590   49.0170 N.pl3 180  ARG180      0.1354
     51  N         32.3360   54.9630   57.5840 N.3   182  LEU182     -0.1231
     52  CA        32.2410   54.5720   59.0020 C.3   182  LEU182      0.1693
     53  C         32.2510   55.7650   59.9490 C.2   182  LEU182      0.2592
     54  O         32.7860   56.8270   59.6170 O.2   182  LEU182     -0.2718
     55  CB        33.4000   53.6360   59.3850 C.3   182  LEU182      0.0284
     56  CG        33.4700   52.2860   58.6480 C.3   182  LEU182      0.0019
     57  CD1       34.6180   51.4340   59.1660 C.3   182  LEU182      0.0001
     58  CD2       32.1510   51.5250   58.7510 C.3   182  LEU182      0.0001
     59  N         31.6560   55.6010   61.1270 N.am  183  ASP183     -0.1960
     60  CA        31.8680   56.5740   62.1880 C.3   183  ASP183      0.1840
     61  C         32.9060   55.9930   63.1430 C.2   183  ASP183      0.2622
     62  O         32.6070   55.0540   63.8810 O.2   183  ASP183     -0.2715
     63  CB        30.5690   56.9230   62.9290 C.3   183  ASP183      0.1450
     64  CG        30.7910   57.9260   64.0770 C.2   183  ASP183      0.3671
     65  OD1       31.8780   58.5430   64.1830 O.co2 183  ASP183     -0.2456
     66  OD2       29.8680   58.1160   64.8840 O.co2 183  ASP183     -0.2456
     67  N         34.1190   56.5460   63.1160 N.am  184  ARG184     -0.1963
     68  CA        35.2210   56.0460   63.9540 C.3   184  ARG184      0.1729
     69  C         35.1130   56.5080   65.4100 C.2   184  ARG184      0.2616
     70  O         35.6680   55.8640   66.2980 O.2   184  ARG184     -0.2715
     71  CB        36.6010   56.4310   63.3730 C.3   184  ARG184      0.0348
     72  CG        37.2400   57.6460   64.0210 C.3   184  ARG184      0.0492
     73  CD        38.6890   57.8710   63.5980 C.3   184  ARG184      0.2205
     74  NE        38.6960   58.4940   62.2980 N.pl3 184  ARG184     -0.0865
     75  CZ        39.1090   59.7240   62.0430 C.cat 184  ARG184      0.5346
     76  NH1       39.6350   60.4940   62.9910 N.pl3 184  ARG184      0.1354
     77  NH2       39.0140   60.1570   60.8020 N.pl3 184  ARG184      0.1354
     78  N         34.3890   57.6080   65.6380 N.am  185  LEU185     -0.1977
     79  CA        34.3810   58.3330   66.9170 C.3   185  LEU185      0.1596
     80  C         33.5450   57.6260   67.9950 C.2   185  LEU185      0.2287
     81  O         32.5290   58.1390   68.4670 O.2   185  LEU185     -0.2864
     82  CB        33.9040   59.7840   66.7070 C.3   185  LEU185      0.0297
     83  CG        34.8470   60.9000   66.2030 C.3   185  LEU185      0.0022
     84  CD1       35.7820   60.4710   65.0730 C.3   185  LEU185      0.0001
     85  CD2       34.0710   62.1480   65.7820 C.3   185  LEU185      0.0001
@<TRIPOS>BOND
     1    50    48    1
     2    48    49    1
     3    48    47    2
     4    47    46    1
     5    46    45    1
     6    45    44    1
     7    44    41    1
     8    40    41    1
     9    41    42    1
    10    42    43    2
    11    31    30    1
    12    30    27    1
    13    34    35    2
    14    34    33    1
    15    51    52    1
    16    27    28    1
    17    27    26    1
    18    32    28   am
    19    32    33    1
    20    28    29    2
    21    26    19   am
    22    36    33    1
    23    36    37    1
    24    16    15    1
    25    56    58    1
    26    56    57    1
    27    56    55    1
    28    11    10    2
    29    52    55    1
    30    52    53    1
    31    39    37   am
    32    15    14    1
    33    37    38    2
    34    19    18    1
    35    19    20    2
    36    54    53    2
    37    18    21    1
    38    18    17    1
    39    53    59   am
    40    10    17   am
    41    10     9    1
    42    22    21    1
    43    22    23    1
    44    14    13    1
    45    12     9    1
    46    12    13    1
    47    77    75    1
    48     9     8    1
    49    59    60    1
    50    23    25   ar
    51    23    24   ar
    52    75    74    2
    53    75    76    1
    54     4     3    2
    55    60    63    1
    56    60    61    1
    57     8     3   am
    58    74    73    1
    59     3     2    1
    60    63    64    1
    61    67    61   am
    62    67    68    1
    63    61    62    2
    64    71    68    1
    65    71    72    1
    66    73    72    1
    67    68    69    1
    68    64    65   ar
    69    64    66   ar
    70     2     1    1
    71     2     5    1
    72     7     5    1
    73     6     5    1
    74    84    83    1
    75    69    78   am
    76    69    70    2
    77    78    79    1
    78    85    83    1
    79    83    82    1
    80    82    79    1
    81    79    80    1
    82    80    81    2
