@<TRIPOS>MOLECULE
tmp/4i5mA00.pdb
 167 159 0 0 0
SMALL
GASTEIGER

@<TRIPOS>ATOM
      1  N          3.4970   12.2750    2.0290 N.3    16  LYS16      -0.1231
      2  CA         3.6950   13.2460    3.1020 C.3    16  LYS16       0.1693
      3  C          5.1070   13.1970    3.6920 C.2    16  LYS16       0.2593
      4  O          5.7640   12.1520    3.6760 O.2    16  LYS16      -0.2718
      5  CB         2.6670   12.9980    4.2080 C.3    16  LYS16       0.0285
      6  CG         2.0070   14.2570    4.7410 C.3    16  LYS16       0.0035
      7  CD         1.3350   14.0110    6.0880 C.3    16  LYS16       0.0206
      8  CE         2.2810   14.3180    7.2460 C.3    16  LYS16       0.1093
      9  NZ         1.6200   14.1510    8.5690 N.3    16  LYS16      -0.1314
     10  N          5.6360   14.3350    4.0950 N.am   17  THR17      -0.1939
     11  CA         6.8290   14.4430    4.8950 C.3    17  THR17       0.2028
     12  C          6.6460   13.8410    6.2920 C.2    17  THR17       0.2642
     13  O          5.6870   14.1700    6.9610 O.2    17  THR17      -0.2714
     14  CB         7.2310   15.9080    5.0130 C.3    17  THR17       0.1808
     15  OG1        8.4220   16.0360    5.7450 O.3    17  THR17      -0.2208
     16  CG2        7.4810   16.4580    3.6920 C.3    17  THR17       0.0379
     17  N          7.5680   12.9630    6.7000 N.am   18  LEU18      -0.1963
     18  CA         7.5190   12.2810    7.9940 C.3    18  LEU18       0.1728
     19  C          8.3670   12.9960    9.0400 C.2    18  LEU18       0.2617
     20  O          8.0680   12.9520   10.2340 O.2    18  LEU18      -0.2715
     21  CB         7.9800   10.8280    7.8510 C.3    18  LEU18       0.0311
     22  CG         7.1900    9.9300    6.8950 C.3    18  LEU18       0.0022
     23  CD1        7.9010    8.5980    6.7110 C.3    18  LEU18       0.0001
     24  CD2        5.7560    9.7270    7.3810 C.3    18  LEU18       0.0001
     25  N          9.4280   13.6480    8.5760 N.am   19  GLY19      -0.1940
     26  CA        10.3130   14.4110    9.4420 C.3    19  GLY19       0.2014
     27  C         11.7550   14.3420    8.9880 C.2    19  GLY19       0.2639
     28  O         12.0380   14.0940    7.8120 O.2    19  GLY19      -0.2714
     29  N         12.6660   14.5650    9.9310 N.am   20  LYS20      -0.1963
     30  CA        14.0990   14.5260    9.6600 C.3    20  LYS20       0.1728
     31  C         14.7490   13.3660   10.4060 C.2    20  LYS20       0.2616
     32  O         14.2370   12.9170   11.4330 O.2    20  LYS20      -0.2715
     33  CB        14.7600   15.8550   10.0490 C.3    20  LYS20       0.0311
     34  CG        14.1040   17.1040    9.4420 C.3    20  LYS20       0.0038
     35  CD        14.3860   17.2610    7.9420 C.3    20  LYS20       0.0206
     36  CE        15.7890   17.7970    7.6730 C.3    20  LYS20       0.1093
     37  NZ        16.0190   19.1280    8.3010 N.3    20  LYS20      -0.1314
     38  N         15.8760   12.8900    9.8820 N.am   21  GLY21      -0.1955
     39  CA        16.5980   11.7550   10.4570 C.3    21  GLY21       0.1869
     40  C         17.1290   11.9890   11.8620 C.2    21  GLY21       0.2309
     41  O         16.5290   11.5250   12.8330 O.2    21  GLY21      -0.2863
     42  N         12.9850   12.7050    5.4680 N.3    26  CYS26      -0.1235
     43  CA        12.1490   11.5050    5.3950 C.3    26  CYS26       0.1677
     44  C         10.7680   11.7660    4.8040 C.2    26  CYS26       0.2270
     45  O         10.1420   12.7860    5.0900 O.2    26  CYS26      -0.2867
     46  CB        12.0150   10.8530    6.7700 C.3    26  CYS26       0.0956
     47  SG        13.5300   10.0910    7.3720 S.3    26  CYS26      -0.0801
     48  N          6.9930    9.6460    3.0300 N.3    28  GLU28      -0.1245
     49  CA         6.2180    8.4740    2.6310 C.3    28  GLU28       0.1567
     50  C          6.5350    8.1620    1.1730 C.2    28  GLU28       0.2260
     51  O          6.6210    9.0710    0.3460 O.2    28  GLU28      -0.2867
     52  CB         4.7190    8.7370    2.7740 C.3    28  GLU28       0.0388
     53  CG         4.2130    8.7650    4.2040 C.3    28  GLU28       0.1160
     54  CD         2.7480    9.1540    4.3090 C.2    28  GLU28       0.3649
     55  OE1        2.0880    9.3370    3.2590 O.co2  28  GLU28      -0.2457
     56  OE2        2.2550    9.2790    5.4520 O.co2  28  GLU28      -0.2457
     57  N          7.9300    3.9440    4.7510 N.3    39  ALA39      -0.1231
     58  CA         8.6290    5.0700    5.3510 C.3    39  ALA39       0.1694
     59  C         10.0130    5.1210    4.7270 C.2    39  ALA39       0.2592
     60  O         10.7540    4.1420    4.7770 O.2    39  ALA39      -0.2718
     61  CB         8.7210    4.8990    6.8440 C.3    39  ALA39       0.0304
     62  N         10.3600    6.2580    4.1320 N.am   40  ALA40      -0.1966
     63  CA        11.5670    6.3350    3.3210 C.3    40  ALA40       0.1728
     64  C         12.5260    7.4630    3.6970 C.2    40  ALA40       0.2616
     65  O         12.1130    8.6000    3.9220 O.2    40  ALA40      -0.2715
     66  CB        11.1980    6.4210    1.8530 C.3    40  ALA40       0.0334
     67  N         13.8090    7.1190    3.7660 N.am   41  LYS41      -0.1977
     68  CA        14.8820    8.0990    3.9100 C.3    41  LYS41       0.1596
     69  C         15.2980    8.5940    2.5310 C.2    41  LYS41       0.2287
     70  O         15.6380    7.7950    1.6590 O.2    41  LYS41      -0.2864
     71  CB        16.0980    7.4760    4.6010 C.3    41  LYS41       0.0298
     72  CG        15.8880    7.0640    6.0450 C.3    41  LYS41       0.0038
     73  CD        17.1640    6.4520    6.6090 C.3    41  LYS41       0.0206
     74  CE        17.0310    6.1520    8.0910 C.3    41  LYS41       0.1093
     75  NZ        18.3080    5.6560    8.6700 N.3    41  LYS41      -0.1314
     76  N         21.4460   -3.7280    7.0000 N.3    64  HIS64      -0.1241
     77  CA        19.9830   -3.7700    7.1010 C.3    64  HIS64       0.1621
     78  C         19.3280   -4.6940    6.0700 C.2    64  HIS64       0.2264
     79  O         18.3080   -5.3160    6.3640 O.2    64  HIS64      -0.2867
     80  CB        19.3830   -2.3640    6.9820 C.3    64  HIS64       0.0745
     81  CG        18.0550   -2.2070    7.6600 C.ar   64  HIS64       0.0817
     82  ND1       17.5750   -0.9840    8.0760 N.ar   64  HIS64      -0.2268
     83  CD2       17.1150   -3.1170    8.0130 C.ar   64  HIS64       0.1154
     84  CE1       16.3900   -1.1440    8.6380 C.ar   64  HIS64       0.1986
     85  NE2       16.0910   -2.4310    8.6180 N.ar   64  HIS64      -0.2212
     86  N         12.6600   -3.6830   12.0420 N.3    73  VAL73      -0.1245
     87  CA        12.2090   -2.8720   10.9130 C.3    73  VAL73       0.1561
     88  C         12.6460   -3.5640    9.6300 C.2    73  VAL73       0.2260
     89  O         13.8150   -3.9190    9.4760 O.2    73  VAL73      -0.2867
     90  CB        12.7900   -1.4350   10.9620 C.3    73  VAL73       0.0252
     91  CG1       12.6380   -0.7280    9.6110 C.3    73  VAL73       0.0019
     92  CG2       12.1370   -0.6200   12.0760 C.3    73  VAL73       0.0019
     93  N         11.7640    1.7370    3.8090 N.3    89  LEU89      -0.1231
     94  CA        11.6920    0.9750    5.0540 C.3    89  LEU89       0.1693
     95  C         10.2550    0.7540    5.5140 C.2    89  LEU89       0.2592
     96  O          9.3620    1.5270    5.1690 O.2    89  LEU89      -0.2718
     97  CB        12.5010    1.6790    6.1520 C.3    89  LEU89       0.0284
     98  CG        13.9910    1.9340    5.8830 C.3    89  LEU89       0.0019
     99  CD1       14.5210    3.0710    6.7470 C.3    89  LEU89       0.0001
    100  CD2       14.8240    0.6720    6.0740 C.3    89  LEU89       0.0001
    101  N         10.0540   -0.3050    6.2990 N.am   90  GLU90      -0.1966
    102  CA         8.7470   -0.6680    6.8550 C.3    90  GLU90       0.1733
    103  C          8.0280    0.5020    7.5430 C.2    90  GLU90       0.2616
    104  O          8.5570    1.1130    8.4720 O.2    90  GLU90      -0.2715
    105  CB         8.9100   -1.8420    7.8250 C.3    90  GLU90       0.0429
    106  CG         7.6390   -2.2810    8.5240 C.3    90  GLU90       0.1163
    107  CD         7.8370   -3.5090    9.3950 C.2    90  GLU90       0.3649
    108  OE1        6.8470   -4.2350    9.6090 O.co2  90  GLU90      -0.2457
    109  OE2        8.9720   -3.7530    9.8630 O.co2  90  GLU90      -0.2457
    110  N          6.8160    0.7880    7.0710 N.am   91  TYR91      -0.1960
    111  CA         5.9930    1.8960    7.5590 C.3    91  TYR91       0.1771
    112  C          5.4330    1.5850    8.9470 C.2    91  TYR91       0.2620
    113  O          4.6670    0.6330    9.1150 O.2    91  TYR91      -0.2715
    114  CB         4.8530    2.1350    6.5570 C.3    91  TYR91       0.0574
    115  CG         4.0380    3.4060    6.7180 C.ar   91  TYR91      -0.0198
    116  CD1        4.5550    4.6490    6.3430 C.ar   91  TYR91      -0.0009
    117  CD2        2.7250    3.3580    7.1920 C.ar   91  TYR91      -0.0009
    118  CE1        3.7940    5.8160    6.4670 C.ar   91  TYR91       0.0417
    119  CE2        1.9580    4.5190    7.3190 C.ar   91  TYR91       0.0417
    120  CZ         2.4980    5.7430    6.9550 C.ar   91  TYR91       0.1957
    121  OH         1.7410    6.8900    7.0760 O.3    91  TYR91      -0.2866
    122  N          5.8330    2.3780    9.9390 N.am   92  CYS92      -0.1954
    123  CA         5.3160    2.2450   11.3040 C.3    92  CYS92       0.1843
    124  C          4.5380    3.5000   11.6780 C.2    92  CYS92       0.2626
    125  O          5.1240    4.5370   11.9830 O.2    92  CYS92      -0.2714
    126  CB         6.4490    1.9800   12.3020 C.3    92  CYS92       0.0997
    127  SG         7.3980    0.4700   11.9730 S.3    92  CYS92      -0.0797
    128  N          3.2130    3.3890   11.6480 N.am   93  SER93      -0.1950
    129  CA         2.3120    4.5420   11.7250 C.3    93  SER93       0.1924
    130  C          2.2180    5.2310   13.0910 C.2    93  SER93       0.2314
    131  O          1.9670    6.4360   13.1550 O.2    93  SER93      -0.2863
    132  CB         0.9140    4.1480   11.2510 C.3    93  SER93       0.2116
    133  OG         0.4150    3.0790   12.0280 O.3    93  SER93      -0.2180
    134  N          4.5600    5.8470   15.0190 N.3    95  ARG95      -0.1245
    135  CA         5.8660    6.4850   15.2390 C.3    95  ARG95       0.1563
    136  C          6.7930    5.6260   16.1060 C.2    95  ARG95       0.2260
    137  O          7.1240    4.5070   15.7180 O.2    95  ARG95      -0.2867
    138  CB         5.7100    7.9150   15.7850 C.3    95  ARG95       0.0307
    139  CG         4.7780    8.7940   14.9540 C.3    95  ARG95       0.0489
    140  CD         4.7220   10.2170   15.4760 C.3    95  ARG95       0.2205
    141  NE         5.9450   10.9560   15.1770 N.pl3  95  ARG95      -0.0865
    142  CZ         6.1340   12.2440   15.4530 C.cat  95  ARG95       0.5346
    143  NH1        5.1790   12.9560   16.0370 N.pl3  95  ARG95       0.1354
    144  NH2        7.2860   12.8240   15.1420 N.pl3  95  ARG95       0.1354
    145  N         13.6080    6.0700   20.8560 N.3   139  GLY139     -0.1225
    146  CA        13.4100    6.6450   19.5260 C.3   139  GLY139      0.1811
    147  C         13.6470    5.6740   18.3810 C.2   139  GLY139      0.2280
    148  O         13.2270    5.9290   17.2480 O.2   139  GLY139     -0.2866
    149  N         10.2710    1.4150   16.8140 N.3   142  PHE142     -0.1241
    150  CA         9.1530    1.8630   15.9860 C.3   142  PHE142      0.1605
    151  C          7.9020    1.0070   16.1880 C.2   142  PHE142      0.2264
    152  O          7.9950   -0.2100   16.3370 O.2   142  PHE142     -0.2867
    153  CB         9.5730    1.8770   14.5150 C.3   142  PHE142      0.0534
    154  CG        10.7530    2.7700   14.2320 C.ar  142  PHE142     -0.0203
    155  CD1       12.0550    2.2830   14.3290 C.ar  142  PHE142     -0.0042
    156  CD2       10.5620    4.0980   13.8770 C.ar  142  PHE142     -0.0042
    157  CE1       13.1490    3.1090   14.0770 C.ar  142  PHE142     -0.0003
    158  CE2       11.6450    4.9270   13.6180 C.ar  142  PHE142     -0.0003
    159  CZ        12.9430    4.4330   13.7200 C.ar  142  PHE142     -0.0000
    160  N         16.8810    1.7100   12.8280 N.3   153  ASP153     -0.1239
    161  CA        18.0910    2.5110   12.7950 C.3   153  ASP153      0.1674
    162  C         19.4040    1.8050   13.0300 C.2   153  ASP153      0.2266
    163  O         19.9880    1.8610   14.0630 O.2   153  ASP153     -0.2867
    164  CB        17.9470    3.8600   13.5150 C.3   153  ASP153      0.1410
    165  CG        18.8220    4.9380   12.9290 C.2   153  ASP153      0.3668
    166  OD1       19.8430    4.6470   12.3580 O.co2 153  ASP153     -0.2456
    167  OD2       18.4740    6.0700   13.0430 O.co2 153  ASP153     -0.2456
@<TRIPOS>BOND
     1    51    50    2
     2    50    49    1
     3    70    69    2
     4    66    63    1
     5     1     2    1
     6    69    68    1
     7    49    52    1
     8    49    48    1
     9    52    53    1
    10     2     3    1
    11     2     5    1
    12    55    54   ar
    13    63    64    1
    14    63    62    1
    15     4     3    2
    16    16    14    1
    17     3    10   am
    18    64    67   am
    19    64    65    2
    20    67    68    1
    21    93    94    1
    22    68    71    1
    23    10    11    1
    24    62    59   am
    25    53    54    1
    26     5     6    1
    27    54    56   ar
    28    71    72    1
    29    59    60    2
    30    59    58    1
    31     6     7    1
    32    57    58    1
    33    44    45    2
    34    44    43    1
    35    11    14    1
    36    11    12    1
    37    14    15    1
    38    94    95    1
    39    94    97    1
    40    96    95    2
    41    58    61    1
    42    43    42    1
    43    43    46    1
    44    95   101   am
    45    98   100    1
    46    98    97    1
    47    98    99    1
    48    72    73    1
    49    78    79    2
    50    78    77    1
    51     7     8    1
    52    12    17   am
    53    12    13    2
    54   101   102    1
    55   116   118   ar
    56   116   115   ar
    57   118   120   ar
    58   114   115    1
    59   114   111    1
    60    73    74    1
    61    17    18    1
    62    23    22    1
    63   115   117   ar
    64    46    47    1
    65   102   103    1
    66   102   105    1
    67    22    24    1
    68    22    21    1
    69   120   121    1
    70   120   119   ar
    71    80    77    1
    72    80    81    1
    73    76    77    1
    74   110   103   am
    75   110   111    1
    76   117   119   ar
    77     8     9    1
    78   103   104    2
    79   111   112    1
    80    81    83   ar
    81    81    82   ar
    82    36    35    1
    83    36    37    1
    84    28    27    2
    85   105   106    1
    86    21    18    1
    87    35    34    1
    88    18    19    1
    89    83    85   ar
    90    82    84   ar
    91    74    75    1
    92   106   107    1
    93    25    19   am
    94    25    26    1
    95    85    84   ar
    96   112   113    2
    97   112   122   am
    98    27    26    1
    99    27    29   am
   100    19    20    2
   101   107   108   ar
   102   107   109   ar
   103    34    33    1
   104    89    88    2
   105    91    90    1
   106    88    87    1
   107    30    29    1
   108    30    33    1
   109    30    31    1
   110    38    31   am
   111    38    39    1
   112   122   123    1
   113    31    32    2
   114    39    40    1
   115    87    90    1
   116    87    86    1
   117    90    92    1
   118   132   129    1
   119   132   133    1
   120   123   124    1
   121   123   126    1
   122   128   124   am
   123   128   129    1
   124   124   125    2
   125   129   130    1
   126    40    41    2
   127   127   126    1
   128   166   165   ar
   129   161   160    1
   130   161   162    1
   131   161   164    1
   132   165   167   ar
   133   165   164    1
   134   162   163    2
   135   130   131    2
   136   158   159   ar
   137   158   156   ar
   138   159   157   ar
   139   156   154   ar
   140   157   155   ar
   141   154   155   ar
   142   154   153    1
   143   153   150    1
   144   139   140    1
   145   139   138    1
   146   134   135    1
   147   144   142    1
   148   141   142    2
   149   141   140    1
   150   135   138    1
   151   135   136    1
   152   142   143    1
   153   137   136    2
   154   150   151    1
   155   150   149    1
   156   151   152    2
   157   148   147    2
   158   147   146    1
   159   146   145    1
