@<TRIPOS>MOLECULE
tmp/4i5pA00.pdb
 138 132 0 0 0
SMALL
GASTEIGER

@<TRIPOS>ATOM
      1  N          7.6670   13.0920    6.6540 N.3    18  LEU18      -0.1231
      2  CA         7.5960   12.4420    7.9650 C.3    18  LEU18       0.1693
      3  C          8.5670   13.0930    8.9530 C.2    18  LEU18       0.2593
      4  O          8.4810   12.8680   10.1650 O.2    18  LEU18      -0.2718
      5  CB         7.8890   10.9400    7.8440 C.3    18  LEU18       0.0284
      6  CG         7.0560   10.1220    6.8480 C.3    18  LEU18       0.0019
      7  CD1        7.5800    8.6970    6.7570 C.3    18  LEU18       0.0001
      8  CD2        5.5700   10.1360    7.2100 C.3    18  LEU18       0.0001
      9  N          9.4910   13.8920    8.4250 N.am   19  GLY19      -0.1942
     10  CA        10.4180   14.6570    9.2530 C.3    19  GLY19       0.2014
     11  C         11.8800   14.3790    8.9610 C.2    19  GLY19       0.2639
     12  O         12.2140   13.6020    8.0630 O.2    19  GLY19      -0.2714
     13  N         12.7440   15.0260    9.7370 N.am   20  LYS20      -0.1963
     14  CA        14.1950   14.8990    9.6170 C.3    20  LYS20       0.1728
     15  C         14.7050   13.6130   10.2660 C.2    20  LYS20       0.2616
     16  O         14.2300   13.2100   11.3300 O.2    20  LYS20      -0.2715
     17  CB        14.8610   16.1400   10.2360 C.3    20  LYS20       0.0311
     18  CG        16.2590   15.9580   10.8270 C.3    20  LYS20       0.0038
     19  CD        16.6060   17.1420   11.7330 C.3    20  LYS20       0.0206
     20  CE        17.6140   16.7550   12.8100 C.3    20  LYS20       0.1093
     21  NZ        17.6100   17.7230   13.9560 N.3    20  LYS20      -0.1314
     22  N         15.6720   12.9760    9.6090 N.am   21  GLY21      -0.1955
     23  CA        16.3500   11.8060   10.1530 C.3    21  GLY21       0.1869
     24  C         17.8380   11.8700    9.8730 C.2    21  GLY21       0.2309
     25  O         18.3480   11.1330    9.0260 O.2    21  GLY21      -0.2863
     26  N         12.7020   12.6190    5.4370 N.3    26  CYS26      -0.1235
     27  CA        11.8840   11.4070    5.3510 C.3    26  CYS26       0.1677
     28  C         10.4680   11.6560    4.8360 C.2    26  CYS26       0.2270
     29  O          9.8380   12.6450    5.2030 O.2    26  CYS26      -0.2867
     30  CB        11.8430   10.6950    6.7020 C.3    26  CYS26       0.0956
     31  SG        13.4670   10.2100    7.3090 S.3    26  CYS26      -0.0801
     32  N          7.9420    4.0700    4.6000 N.3    39  ALA39      -0.1231
     33  CA         8.5860    5.2500    5.1480 C.3    39  ALA39       0.1694
     34  C          9.9630    5.3070    4.5120 C.2    39  ALA39       0.2592
     35  O         10.7650    4.3840    4.6680 O.2    39  ALA39      -0.2718
     36  CB         8.6920    5.1540    6.6560 C.3    39  ALA39       0.0304
     37  N         10.2310    6.3720    3.7680 N.am   40  ALA40      -0.1966
     38  CA        11.4980    6.4720    3.0580 C.3    40  ALA40       0.1728
     39  C         12.4210    7.5460    3.6100 C.2    40  ALA40       0.2616
     40  O         11.9840    8.6410    3.9600 O.2    40  ALA40      -0.2715
     41  CB        11.2630    6.6810    1.5800 C.3    40  ALA40       0.0334
     42  N         13.7010    7.2060    3.6970 N.am   41  LYS41      -0.1977
     43  CA        14.7430    8.1890    3.9430 C.3    41  LYS41       0.1596
     44  C         15.2460    8.6790    2.5980 C.2    41  LYS41       0.2287
     45  O         15.6360    7.8760    1.7470 O.2    41  LYS41      -0.2864
     46  CB        15.8900    7.5810    4.7490 C.3    41  LYS41       0.0298
     47  CG        15.5460    7.3310    6.2020 C.3    41  LYS41       0.0038
     48  CD        16.7880    7.2290    7.0640 C.3    41  LYS41       0.0206
     49  CE        17.1660    5.7910    7.3500 C.3    41  LYS41       0.1093
     50  NZ        18.1420    5.7320    8.4800 N.3    41  LYS41      -0.1314
     51  N         12.7390   -3.4990   12.0100 N.3    73  VAL73      -0.1245
     52  CA        12.2260   -2.7010   10.8960 C.3    73  VAL73       0.1561
     53  C         12.6020   -3.4040    9.5910 C.2    73  VAL73       0.2260
     54  O         13.7710   -3.7250    9.3670 O.2    73  VAL73      -0.2867
     55  CB        12.8010   -1.2670   10.9090 C.3    73  VAL73       0.0252
     56  CG1       12.5090   -0.5570    9.5940 C.3    73  VAL73       0.0019
     57  CG2       12.2510   -0.4720   12.0910 C.3    73  VAL73       0.0019
     58  N         11.6390    1.8340    3.9150 N.3    89  LEU89      -0.1231
     59  CA        11.5490    1.0090    5.1180 C.3    89  LEU89       0.1693
     60  C         10.1050    0.7610    5.5410 C.2    89  LEU89       0.2592
     61  O          9.1860    1.4760    5.1290 O.2    89  LEU89      -0.2718
     62  CB        12.3210    1.6720    6.2680 C.3    89  LEU89       0.0284
     63  CG        13.7800    2.0760    6.0280 C.3    89  LEU89       0.0019
     64  CD1       14.2810    2.9970    7.1340 C.3    89  LEU89       0.0001
     65  CD2       14.6800    0.8470    5.8850 C.3    89  LEU89       0.0001
     66  N          9.9210   -0.2670    6.3630 N.am   90  GLU90      -0.1966
     67  CA         8.6290   -0.5880    6.9490 C.3    90  GLU90       0.1733
     68  C          7.9950    0.6520    7.5840 C.2    90  GLU90       0.2616
     69  O          8.6030    1.3070    8.4330 O.2    90  GLU90      -0.2715
     70  CB         8.8100   -1.6940    7.9840 C.3    90  GLU90       0.0429
     71  CG         7.5390   -2.1910    8.6430 C.3    90  GLU90       0.1163
     72  CD         7.7900   -3.3880    9.5450 C.2    90  GLU90       0.3649
     73  OE1        6.8060   -3.9370   10.0840 O.co2  90  GLU90      -0.2457
     74  OE2        8.9670   -3.7800    9.7160 O.co2  90  GLU90      -0.2457
     75  N          6.7820    0.9630    7.1380 N.am   91  TYR91      -0.1960
     76  CA         6.0170    2.1110    7.6090 C.3    91  TYR91       0.1771
     77  C          5.4270    1.8230    8.9880 C.2    91  TYR91       0.2620
     78  O          4.6430    0.8820    9.1590 O.2    91  TYR91      -0.2715
     79  CB         4.9110    2.4220    6.5960 C.3    91  TYR91       0.0574
     80  CG         4.1440    3.7010    6.8300 C.ar   91  TYR91      -0.0198
     81  CD1        4.5410    4.8940    6.2230 C.ar   91  TYR91      -0.0009
     82  CD2        3.0060    3.7160    7.6310 C.ar   91  TYR91      -0.0009
     83  CE1        3.8280    6.0740    6.4170 C.ar   91  TYR91       0.0417
     84  CE2        2.2850    4.8950    7.8390 C.ar   91  TYR91       0.0417
     85  CZ         2.7040    6.0680    7.2310 C.ar   91  TYR91       0.1957
     86  OH         1.9970    7.2310    7.4290 O.3    91  TYR91      -0.2866
     87  N          5.8140    2.6340    9.9680 N.am   92  CYS92      -0.1954
     88  CA         5.3890    2.4460   11.3540 C.3    92  CYS92       0.1843
     89  C          4.5730    3.6550   11.8190 C.2    92  CYS92       0.2626
     90  O          5.1220    4.6520   12.2810 O.2    92  CYS92      -0.2714
     91  CB         6.6110    2.1960   12.2450 C.3    92  CYS92       0.0997
     92  SG         7.4690    0.6390   11.8610 S.3    92  CYS92      -0.0797
     93  N          3.2530    3.5470   11.6880 N.am   93  SER93      -0.1950
     94  CA         2.3530    4.7050   11.7700 C.3    93  SER93       0.1924
     95  C          2.2380    5.3540   13.1550 C.2    93  SER93       0.2314
     96  O          1.7230    6.4660   13.2760 O.2    93  SER93      -0.2863
     97  CB         0.9590    4.3110   11.2770 C.3    93  SER93       0.2116
     98  OG         0.3590    3.4240   12.1920 O.3    93  SER93      -0.2180
     99  N          4.7830    6.0490   15.2870 N.3    95  ARG95      -0.1245
    100  CA         6.0290    6.7280   15.6440 C.3    95  ARG95       0.1563
    101  C          6.9810    5.8250   16.4260 C.2    95  ARG95       0.2260
    102  O          7.2020    4.6790   16.0300 O.2    95  ARG95      -0.2867
    103  CB         5.7520    8.0610   16.3600 C.3    95  ARG95       0.0307
    104  CG         4.7500    8.9540   15.6250 C.3    95  ARG95       0.0489
    105  CD         4.8220   10.3820   16.0980 C.3    95  ARG95       0.2205
    106  NE         6.0120   11.0620   15.5840 N.pl3  95  ARG95      -0.0865
    107  CZ         6.2230   12.3730   15.6720 C.cat  95  ARG95       0.5346
    108  NH1        5.3240   13.1580   16.2550 N.pl3  95  ARG95       0.1354
    109  NH2        7.3370   12.9000   15.1760 N.pl3  95  ARG95       0.1354
    110  N          8.4010    9.0660   21.4480 N.3    99  HIS99      -0.1241
    111  CA         7.1930    9.8880   21.3890 C.3    99  HIS99       0.1621
    112  C          6.1800    9.4490   22.4380 C.2    99  HIS99       0.2264
    113  O          5.5750   10.2880   23.1040 O.2    99  HIS99      -0.2867
    114  CB         6.5810    9.8470   19.9870 C.3    99  HIS99       0.0745
    115  CG         7.5570   10.1980   18.9070 C.ar   99  HIS99       0.0817
    116  ND1        7.8170   11.5000   18.5300 N.ar   99  HIS99      -0.2268
    117  CD2        8.3690    9.4200   18.1540 C.ar   99  HIS99       0.1154
    118  CE1        8.7340   11.5050   17.5790 C.ar   99  HIS99       0.1986
    119  NE2        9.0840   10.2550   17.3310 N.ar   99  HIS99      -0.2212
    120  N         10.4210    1.4860   16.8480 N.3   142  PHE142     -0.1241
    121  CA         9.3520    2.0080   16.0180 C.3   142  PHE142      0.1605
    122  C          8.0990    1.1790   16.2270 C.2   142  PHE142      0.2264
    123  O          8.1760   -0.0340   16.4210 O.2   142  PHE142     -0.2867
    124  CB         9.8050    2.0360   14.5540 C.3   142  PHE142      0.0534
    125  CG        10.9930    2.9350   14.3160 C.ar  142  PHE142     -0.0203
    126  CD1       12.2940    2.4390   14.4180 C.ar  142  PHE142     -0.0042
    127  CD2       10.8130    4.2860   14.0290 C.ar  142  PHE142     -0.0042
    128  CE1       13.3980    3.2680   14.2170 C.ar  142  PHE142     -0.0003
    129  CE2       11.9100    5.1260   13.8310 C.ar  142  PHE142     -0.0003
    130  CZ        13.2060    4.6160   13.9210 C.ar  142  PHE142     -0.0000
    131  N         16.8220    1.8560   12.8630 N.3   153  ASP153     -0.1239
    132  CA        17.9990    2.6770   12.6980 C.3   153  ASP153      0.1674
    133  C         19.4180    2.1070   12.8760 C.2   153  ASP153      0.2266
    134  O         20.0640    2.3000   13.8190 O.2   153  ASP153     -0.2867
    135  CB        17.9090    3.9770   13.4470 C.3   153  ASP153      0.1410
    136  CG        18.9780    5.0000   13.0210 C.2   153  ASP153      0.3668
    137  OD1       18.7090    6.1760   13.2140 O.co2 153  ASP153     -0.2456
    138  OD2       19.9800    4.6180   12.5100 O.co2 153  ASP153     -0.2456
@<TRIPOS>BOND
     1    41    38    1
     2    45    44    2
     3    44    43    1
     4    38    39    1
     5    38    37    1
     6    39    42   am
     7    39    40    2
     8    42    43    1
     9    37    34   am
    10    58    59    1
    11    43    46    1
    12    34    35    2
    13    34    33    1
    14    32    33    1
    15    46    47    1
    16    28    29    2
    17    28    27    1
    18    59    60    1
    19    59    62    1
    20    61    60    2
    21    33    36    1
    22    27    26    1
    23    27    30    1
    24    60    66   am
    25    65    63    1
    26    63    62    1
    27    63    64    1
    28    47    48    1
    29    81    83   ar
    30    81    80   ar
    31    66    67    1
    32    83    85   ar
    33    79    80    1
    34    79    76    1
    35     1     2    1
    36    30    31    1
    37     7     6    1
    38    80    82   ar
    39     6     8    1
    40     6     5    1
    41    67    68    1
    42    67    70    1
    43    48    49    1
    44    75    68   am
    45    75    76    1
    46    85    86    1
    47    85    84   ar
    48    49    50    1
    49    68    69    2
    50    76    77    1
    51    82    84   ar
    52     5     2    1
    53     2     3    1
    54    70    71    1
    55    12    11    2
    56     9     3   am
    57     9    10    1
    58    71    72    1
    59     3     4    2
    60    11    10    1
    61    11    13   am
    62    77    78    2
    63    77    87   am
    64    25    24    2
    65    54    53    2
    66    72    74   ar
    67    72    73   ar
    68    53    52    1
    69    56    55    1
    70    22    23    1
    71    22    15   am
    72    14    13    1
    73    14    17    1
    74    14    15    1
    75    24    23    1
    76    87    88    1
    77    17    18    1
    78    15    16    2
    79    18    19    1
    80    52    55    1
    81    52    51    1
    82    55    57    1
    83    97    94    1
    84    97    98    1
    85    88    89    1
    86    88    91    1
    87    93    94    1
    88    93    89   am
    89    19    20    1
    90    94    95    1
    91    89    90    2
    92    92    91    1
    93   138   136   ar
    94   132   131    1
    95   132   133    1
    96   132   135    1
    97    20    21    1
    98   133   134    2
    99   136   137   ar
   100   136   135    1
   101    95    96    2
   102   129   130   ar
   103   129   127   ar
   104   130   128   ar
   105   127   125   ar
   106   128   126   ar
   107   125   126   ar
   108   125   124    1
   109   124   121    1
   110   109   107    1
   111    99   100    1
   112   106   107    2
   113   106   105    1
   114   104   105    1
   115   104   103    1
   116   100   103    1
   117   100   101    1
   118   107   108    1
   119   121   122    1
   120   121   120    1
   121   102   101    2
   122   122   123    2
   123   119   118   ar
   124   119   117   ar
   125   118   116   ar
   126   117   115   ar
   127   116   115   ar
   128   115   114    1
   129   114   111    1
   130   111   110    1
   131   111   112    1
   132   112   113    2
