@<TRIPOS>MOLECULE
tmp/4i5rA01.pdb
 79 74 0 0 0
SMALL
GASTEIGER

@<TRIPOS>ATOM
      1  N        -31.4640   -9.9070   14.6410 N.3    13  ASN13      -0.1240
      2  CA       -32.1560   -9.5330   15.9010 C.3    13  ASN13       0.1653
      3  C        -32.3050  -10.6410   16.9090 C.2    13  ASN13       0.2266
      4  O        -32.7020  -10.3360   18.0450 O.2    13  ASN13      -0.2867
      5  CB       -33.5810   -8.9840   15.5210 C.3    13  ASN13       0.1155
      6  CG       -34.1370   -8.1760   16.6600 C.2    13  ASN13       0.2627
      7  OD1      -33.4720   -7.2970   17.2190 O.2    13  ASN13      -0.2716
      8  ND2      -35.3350   -8.5280   17.0860 N.am   13  ASN13      -0.0877
      9  N        -29.1780   -9.9280   18.9060 N.3    16  ARG16      -0.1231
     10  CA       -29.3670   -8.6220   19.5530 C.3    16  ARG16       0.1694
     11  C        -30.3660   -8.7980   20.6920 C.2    16  ARG16       0.2592
     12  O        -30.1640   -8.1480   21.7330 O.2    16  ARG16      -0.2718
     13  CB       -29.9170   -7.5780   18.5190 C.3    16  ARG16       0.0321
     14  CG       -30.0730   -6.1840   19.1120 C.3    16  ARG16       0.0489
     15  CD       -30.7400   -5.2360   18.1070 C.3    16  ARG16       0.2205
     16  NE       -29.7820   -5.0300   17.0000 N.pl3  16  ARG16      -0.0865
     17  CZ       -29.9540   -5.5860   15.7970 C.cat  16  ARG16       0.5346
     18  NH1      -31.0100   -6.3560   15.4960 N.pl3  16  ARG16       0.1354
     19  NH2      -29.0860   -5.3900   14.9190 N.pl3  16  ARG16       0.1354
     20  N        -31.4510   -9.5860   20.4720 N.am   17  SER17      -0.1952
     21  CA       -32.4390   -9.6940   21.5590 C.3    17  SER17       0.1924
     22  C        -31.8550  -10.4920   22.7280 C.2    17  SER17       0.2314
     23  O        -32.0830  -10.1720   23.8810 O.2    17  SER17      -0.2863
     24  CB       -33.7130  -10.2710   20.9890 C.3    17  SER17       0.2116
     25  OG       -33.6310  -11.6800   20.9010 O.3    17  SER17      -0.2180
     26  N        -29.7330   -7.7590   24.5620 N.3    20  HIS20      -0.1226
     27  CA       -30.4950   -6.6800   25.1890 C.3    20  HIS20       0.1752
     28  C        -31.3720   -7.2110   26.3100 C.2    20  HIS20       0.2596
     29  O        -31.5360   -6.5590   27.3620 O.2    20  HIS20      -0.2718
     30  CB       -31.3600   -6.0870   24.0910 C.3    20  HIS20       0.0759
     31  CG       -30.6300   -5.1460   23.1260 C.ar   20  HIS20       0.0818
     32  ND1      -29.2980   -5.0360   23.0420 N.ar   20  HIS20      -0.2268
     33  CD2      -31.1470   -4.2780   22.1390 C.ar   20  HIS20       0.1154
     34  CE1      -28.9680   -4.1120   22.1040 C.ar   20  HIS20       0.1986
     35  NE2      -30.1040   -3.6540   21.5510 N.ar   20  HIS20      -0.2212
     36  N        -31.9960   -8.3610   26.0890 N.am   21  THR21      -0.1953
     37  CA       -33.0130   -8.8300   27.0640 C.3    21  THR21       0.1897
     38  C        -32.4130   -9.7320   28.1250 C.2    21  THR21       0.2313
     39  O        -32.8820   -9.7620   29.2830 O.2    21  THR21      -0.2863
     40  CB       -34.2460   -9.4440   26.4150 C.3    21  THR21       0.1794
     41  OG1      -33.9280  -10.7290   25.9410 O.3    21  THR21      -0.2208
     42  CG2      -34.7300   -8.5980   25.2690 C.3    21  THR21       0.0378
     43  N        -27.6130   -7.5830   29.0780 N.3    24  ILE24      -0.1245
     44  CA       -27.4480   -6.2090   29.6030 C.3    24  ILE24       0.1561
     45  C        -28.1500   -6.0250   30.9900 C.2    24  ILE24       0.2260
     46  O        -27.5190   -5.3950   31.8630 O.2    24  ILE24      -0.2867
     47  CB       -27.8950   -5.1870   28.5290 C.3    24  ILE24       0.0252
     48  CG1      -26.7790   -5.1200   27.4920 C.3    24  ILE24       0.0019
     49  CG2      -28.1050   -3.7910   29.1250 C.3    24  ILE24       0.0019
     50  CD1      -27.1890   -4.3520   26.2350 C.3    24  ILE24       0.0001
     51  N        -21.3980    0.4130   34.1180 N.3    30  PRO30      -0.2116
     52  CA       -21.8650    1.1820   32.9500 C.3    30  PRO30       0.1372
     53  C        -21.0150    0.9990   31.6740 C.2    30  PRO30       0.2244
     54  O        -21.5810    0.9230   30.5500 O.2    30  PRO30      -0.2868
     55  CB       -21.8030    2.6300   33.3920 C.3    30  PRO30       0.0268
     56  CG       -22.0740    2.6180   34.9040 C.3    30  PRO30       0.0207
     57  CD       -21.3380    1.3460   35.3570 C.3    30  PRO30       0.0892
     58  N        -21.8110   -2.3230   30.1390 N.3    33  ARG33      -0.1231
     59  CA       -23.1370   -2.3480   29.4810 C.3    33  ARG33       0.1694
     60  C        -23.0130   -1.7280   28.1080 C.2    33  ARG33       0.2591
     61  O        -23.6520   -2.1880   27.1500 O.2    33  ARG33      -0.2718
     62  CB       -24.2220   -1.5200   30.2850 C.3    33  ARG33       0.0321
     63  CG       -24.7330   -2.1790   31.5420 C.3    33  ARG33       0.0489
     64  CD       -25.5420   -1.1910   32.3970 C.3    33  ARG33       0.2205
     65  NE       -26.7860   -0.7030   31.7870 N.pl3  33  ARG33      -0.0865
     66  CZ       -27.9370   -1.3920   31.7520 C.cat  33  ARG33       0.5346
     67  NH1      -28.0100   -2.6450   32.1820 N.pl3  33  ARG33       0.1354
     68  NH2      -29.0470   -0.8280   31.2760 N.pl3  33  ARG33       0.1354
     69  N        -22.2260   -0.6350   28.0030 N.am   34  ALA34      -0.1980
     70  CA       -22.0610    0.0370   26.6880 C.3    34  ALA34       0.1597
     71  C        -21.3180   -0.8710   25.7250 C.2    34  ALA34       0.2287
     72  O        -21.7580   -0.9780   24.5420 O.2    34  ALA34      -0.2864
     73  CB       -21.3020    1.3810   26.8060 C.3    34  ALA34       0.0319
     74  N        -23.7350   -3.5080   24.4810 N.3    37  SER37      -0.1217
     75  CA       -24.6310   -2.9560   23.4730 C.3    37  SER37       0.1889
     76  C        -23.9360   -2.9420   22.0840 C.2    37  SER37       0.2288
     77  O        -24.5800   -3.2920   21.0450 O.2    37  SER37      -0.2866
     78  CB       -24.9810   -1.4950   23.8600 C.3    37  SER37       0.2089
     79  OG       -26.0230   -1.1390   22.9770 O.3    37  SER37      -0.2183
@<TRIPOS>BOND
     1     1     2    1
     2    19    17    1
     3    18    17    1
     4     5     2    1
     5     5     6    1
     6    17    16    2
     7     2     3    1
     8     6     8   am
     9     6     7    2
    10     3     4    2
    11    16    15    1
    12    15    14    1
    13    13    14    1
    14    13    10    1
    15     9    10    1
    16    10    11    1
    17    20    11   am
    18    20    21    1
    19    11    12    2
    20    25    24    1
    21    24    21    1
    22    77    76    2
    23    35    34   ar
    24    35    33   ar
    25    21    22    1
    26    76    75    1
    27    34    32   ar
    28    33    31   ar
    29    22    23    2
    30    79    78    1
    31    32    31   ar
    32    31    30    1
    33    75    78    1
    34    75    74    1
    35    30    27    1
    36    72    71    2
    37    26    27    1
    38    27    28    1
    39    42    40    1
    40    71    70    1
    41    41    40    1
    42    36    28   am
    43    36    37    1
    44    50    48    1
    45    28    29    2
    46    40    37    1
    47    70    73    1
    48    70    69    1
    49    37    38    1
    50    61    60    2
    51    48    47    1
    52    69    60   am
    53    60    59    1
    54    38    39    2
    55    47    49    1
    56    47    44    1
    57    43    44    1
    58    59    58    1
    59    59    62    1
    60    44    45    1
    61    62    63    1
    62    54    53    2
    63    45    46    2
    64    68    66    1
    65    63    64    1
    66    53    52    1
    67    66    65    2
    68    66    67    1
    69    65    64    1
    70    52    55    1
    71    52    51    1
    72    55    56    1
    73    51    57    1
    74    56    57    1
