@<TRIPOS>MOLECULE
tmp/4i5uA02.pdb
 78 76 0 0 0
SMALL
GASTEIGER

@<TRIPOS>ATOM
      1  N        -17.7680  -13.9840   -2.6800 N.3     3  PRO3       -0.2116
      2  CA       -19.1430  -13.5540   -2.3240 C.3     3  PRO3        0.1372
      3  C        -19.2150  -12.6320   -1.1770 C.2     3  PRO3        0.2244
      4  O        -20.3080  -12.0630   -0.9600 O.2     3  PRO3       -0.2868
      5  CB       -19.8730  -14.8560   -2.0220 C.3     3  PRO3        0.0268
      6  CG       -18.8320  -15.7730   -1.6900 C.3     3  PRO3        0.0207
      7  CD       -17.5200  -15.4140   -2.4020 C.3     3  PRO3        0.0892
      8  N        -34.6490  -14.7700   -3.7240 N.3   122  SER122     -0.1202
      9  CA       -33.5940  -14.8880   -4.7340 C.3   122  SER122      0.2020
     10  C        -32.9350  -13.5570   -4.9740 C.2   122  SER122      0.2619
     11  O        -31.8220  -13.5350   -5.5780 O.2   122  SER122     -0.2717
     12  CB       -34.1340  -15.4300   -6.0540 C.3   122  SER122      0.2103
     13  OG       -35.0960  -14.5390   -6.5700 O.3   122  SER122     -0.2182
     14  N        -33.4960  -12.4370   -4.4860 N.am  123  ASP123     -0.1959
     15  CA       -32.8330  -11.1160   -4.5330 C.3   123  ASP123      0.1840
     16  C        -31.7710  -10.9380   -3.5000 C.2   123  ASP123      0.2622
     17  O        -31.0950   -9.8750   -3.5210 O.2   123  ASP123     -0.2715
     18  CB       -33.9540  -10.0020   -4.3750 C.3   123  ASP123      0.1450
     19  CG       -34.8120  -10.2120   -3.1360 C.2   123  ASP123      0.3671
     20  OD1      -35.1580  -11.3830   -2.7680 O.co2 123  ASP123     -0.2456
     21  OD2      -35.3120   -9.2170   -2.5580 O.co2 123  ASP123     -0.2456
     22  N        -31.6200  -11.8160   -2.5060 N.am  124  ILE124     -0.1963
     23  CA       -30.7380  -11.6330   -1.3640 C.3   124  ILE124      0.1727
     24  C        -29.5510  -12.5730   -1.4180 C.2   124  ILE124      0.2616
     25  O        -29.7560  -13.8170   -1.5040 O.2   124  ILE124     -0.2715
     26  CB       -31.4630  -11.8130   -0.0290 C.3   124  ILE124      0.0290
     27  CG1      -32.7550  -11.0140    0.0510 C.3   124  ILE124      0.0022
     28  CG2      -30.5180  -11.5390    1.0970 C.3   124  ILE124      0.0023
     29  CD1      -32.6660   -9.5050   -0.1940 C.3   124  ILE124      0.0001
     30  N        -28.3460  -12.0820   -1.3690 N.am  125  ARG125     -0.1977
     31  CA       -27.1790  -12.9540   -1.3510 C.3   125  ARG125      0.1597
     32  C        -27.1780  -13.6830   -0.0100 C.2   125  ARG125      0.2287
     33  O        -27.3420  -13.0860    1.0670 O.2   125  ARG125     -0.2864
     34  CB       -25.8930  -12.0900   -1.4760 C.3   125  ARG125      0.0334
     35  CG       -24.6740  -13.0640   -1.6030 C.3   125  ARG125      0.0492
     36  CD       -23.4020  -12.2850   -1.8810 C.3   125  ARG125      0.2205
     37  NE       -23.5680  -11.5870   -3.2150 N.pl3 125  ARG125     -0.0865
     38  CZ       -22.5820  -10.8100   -3.6850 C.cat 125  ARG125      0.5346
     39  NH1      -21.4410  -10.5750   -3.0440 N.pl3 125  ARG125      0.1354
     40  NH2      -22.8180  -10.1540   -4.8750 N.pl3 125  ARG125      0.1354
     41  N        -28.3060  -19.0830   -7.8030 N.3   168  PRO168     -0.2102
     42  CA       -27.4440  -17.9620   -8.2020 C.3   168  PRO168      0.1504
     43  C        -27.1350  -16.9480   -7.1000 C.2   168  PRO168      0.2576
     44  O        -26.0950  -16.3200   -7.1180 O.2   168  PRO168     -0.2718
     45  CB       -28.2730  -17.2650   -9.3140 C.3   168  PRO168      0.0282
     46  CG       -29.1720  -18.3440   -9.8540 C.3   168  PRO168      0.0208
     47  CD       -29.5250  -19.2320   -8.6660 C.3   168  PRO168      0.0893
     48  N        -27.9770  -16.9150   -6.0450 N.am  169  ASN169     -0.1961
     49  CA       -27.7700  -16.0080   -4.9320 C.3   169  ASN169      0.1819
     50  C        -27.0650  -16.6600   -3.7640 C.2   169  ASN169      0.2621
     51  O        -26.8610  -15.9950   -2.7530 O.2   169  ASN169     -0.2715
     52  CB       -29.1510  -15.4090   -4.4330 C.3   169  ASN169      0.1195
     53  CG       -30.1290  -16.4640   -3.9980 C.2   169  ASN169      0.2630
     54  OD1      -30.2230  -17.5700   -4.5850 O.2   169  ASN169     -0.2716
     55  ND2      -30.8910  -16.1550   -2.9850 N.am  169  ASN169     -0.0877
     56  N        -26.5870  -17.9100   -3.8980 N.am  170  VAL170     -0.1963
     57  CA       -26.0170  -18.6470   -2.7490 C.3   170  VAL170      0.1727
     58  C        -24.5020  -18.7610   -2.9370 C.2   170  VAL170      0.2616
     59  O        -23.9810  -19.0160   -4.0660 O.2   170  VAL170     -0.2715
     60  CB       -26.6110  -20.0310   -2.6860 C.3   170  VAL170      0.0290
     61  CG1      -25.8260  -20.9390   -1.7020 C.3   170  VAL170      0.0023
     62  CG2      -28.0840  -19.9310   -2.2350 C.3   170  VAL170      0.0023
     63  N        -23.7570  -18.6550   -1.8210 N.am  171  ALA171     -0.1977
     64  CA       -22.3910  -19.2330   -1.7630 C.3   171  ALA171      0.1597
     65  C        -22.3430  -20.1680   -0.5610 C.2   171  ALA171      0.2287
     66  O        -22.7570  -19.7470    0.5440 O.2   171  ALA171     -0.2864
     67  CB       -21.3280  -18.1700   -1.6100 C.3   171  ALA171      0.0319
     68  N        -21.6250  -24.4760   -9.0630 N.3   206  ARG206     -0.1245
     69  CA       -21.0670  -23.1500   -9.0510 C.3   206  ARG206      0.1563
     70  C        -21.1620  -22.5290   -7.6960 C.2   206  ARG206      0.2260
     71  O        -20.2760  -21.7640   -7.2870 O.2   206  ARG206     -0.2867
     72  CB       -21.8760  -22.2940  -10.0680 C.3   206  ARG206      0.0307
     73  CG       -21.4570  -20.8410  -10.1640 C.3   206  ARG206      0.0489
     74  CD       -22.6220  -19.8130  -10.4260 C.3   206  ARG206      0.2205
     75  NE       -23.5150  -19.7470   -9.2130 N.pl3 206  ARG206     -0.0865
     76  CZ       -23.2530  -19.1410   -8.0630 C.cat 206  ARG206      0.5346
     77  NH1      -24.1340  -19.3190   -7.0860 N.pl3 206  ARG206      0.1354
     78  NH2      -22.1710  -18.3720   -7.8630 N.pl3 206  ARG206      0.1354
@<TRIPOS>BOND
     1    74    73    1
     2    74    75    1
     3    73    72    1
     4    72    69    1
     5    46    45    1
     6    46    47    1
     7    45    42    1
     8    75    76    2
     9    68    69    1
    10    69    70    1
    11    47    41    1
    12    42    41    1
    13    42    43    1
    14    76    78    1
    15    76    77    1
    16    70    71    2
    17    44    43    2
    18    43    48   am
    19    13    12    1
    20    12     9    1
    21    48    49    1
    22    11    10    2
    23    10     9    1
    24    10    14   am
    25    49    52    1
    26    49    50    1
    27    40    38    1
    28     9     8    1
    29    54    53    2
    30    15    14    1
    31    15    18    1
    32    15    16    1
    33    52    53    1
    34    18    19    1
    35    59    58    2
    36    53    55   am
    37    56    50   am
    38    56    57    1
    39    50    51    2
    40    38    37    2
    41    38    39    1
    42    17    16    2
    43    16    22   am
    44    37    36    1
    45    19    20   ar
    46    19    21   ar
    47    58    57    1
    48    58    63   am
    49    57    60    1
    50    60    62    1
    51    60    61    1
    52     1     7    1
    53     1     2    1
    54    22    23    1
    55     7     6    1
    56     2     5    1
    57     2     3    1
    58     5     6    1
    59    36    35    1
    60    63    64    1
    61    64    67    1
    62    64    65    1
    63    35    34    1
    64    25    24    2
    65    34    31    1
    66    24    30   am
    67    24    23    1
    68    30    31    1
    69    23    26    1
    70    31    32    1
    71     3     4    2
    72    65    66    2
    73    29    27    1
    74    26    27    1
    75    26    28    1
    76    32    33    2
