@<TRIPOS>MOLECULE
tmp/4i5wA01.pdb
 155 150 0 0 0
SMALL
GASTEIGER

@<TRIPOS>ATOM
      1  N         34.8950   -3.6040   20.5350 N.3    54  PRO54      -0.2102
      2  CA        34.9790   -2.4970   21.4970 C.3    54  PRO54       0.1504
      3  C         33.9420   -2.5890   22.6120 C.2    54  PRO54       0.2575
      4  O         34.0360   -1.8780   23.6050 O.2    54  PRO54      -0.2718
      5  CB        34.7260   -1.2570   20.6320 C.3    54  PRO54       0.0282
      6  CG        35.0060   -1.7020   19.2240 C.3    54  PRO54       0.0208
      7  CD        34.5760   -3.1320   19.1780 C.3    54  PRO54       0.0893
      8  N         32.9370   -3.4310   22.4410 N.am   55  PHE55      -0.1977
      9  CA        31.8790   -3.4930   23.4350 C.3    55  PHE55       0.1639
     10  C         32.2330   -4.5450   24.4570 C.2    55  PHE55       0.2290
     11  O         31.5280   -4.7290   25.4380 O.2    55  PHE55      -0.2864
     12  CB        30.5240   -3.7780   22.7760 C.3    55  PHE55       0.0560
     13  CG        30.0810   -2.7010   21.8170 C.ar   55  PHE55      -0.0200
     14  CD1       30.7870   -1.5050   21.7230 C.ar   55  PHE55      -0.0042
     15  CD2       28.9650   -2.8870   21.0060 C.ar   55  PHE55      -0.0042
     16  CE1       30.3940   -0.5320   20.8390 C.ar   55  PHE55      -0.0003
     17  CE2       28.5490   -1.9090   20.1250 C.ar   55  PHE55      -0.0003
     18  CZ        29.2610   -0.7320   20.0390 C.ar   55  PHE55      -0.0000
     19  N         34.9210   -1.8230   26.9520 N.3    58  PRO58      -0.2116
     20  CA        34.8570   -0.4220   26.5540 C.3    58  PRO58       0.1372
     21  C         35.4170    0.4330   27.6710 C.2    58  PRO58       0.2244
     22  O         35.3400    0.0280   28.8280 O.2    58  PRO58      -0.2868
     23  CB        33.3560   -0.1830   26.4220 C.3    58  PRO58       0.0268
     24  CG        32.7740   -1.0390   27.4880 C.3    58  PRO58       0.0207
     25  CD        33.6370   -2.2880   27.5080 C.3    58  PRO58       0.0892
     26  N         33.1130    5.3780   29.6540 N.3    62  LEU62      -0.1245
     27  CA        31.9640    5.2880   28.7600 C.3    62  LEU62       0.1561
     28  C         30.8520    4.3750   29.2560 C.2    62  LEU62       0.2260
     29  O         29.8520    4.1870   28.5690 O.2    62  LEU62      -0.2867
     30  CB        32.4060    4.7510   27.4080 C.3    62  LEU62       0.0270
     31  CG        33.2610    5.6130   26.4990 C.3    62  LEU62       0.0019
     32  CD1       33.0570    5.1160   25.0800 C.3    62  LEU62       0.0001
     33  CD2       32.8600    7.0720   26.6340 C.3    62  LEU62       0.0001
     34  N         26.3710    1.6390   27.4900 N.3    77  LEU77      -0.1231
     35  CA        27.5470    2.4210   27.0920 C.3    77  LEU77       0.1693
     36  C         27.1250    3.6960   26.3760 C.2    77  LEU77       0.2592
     37  O         26.0220    3.7920   25.8380 O.2    77  LEU77      -0.2718
     38  CB        28.4460    1.6480   26.1210 C.3    77  LEU77       0.0284
     39  CG        29.0670    0.2890   26.4120 C.3    77  LEU77       0.0019
     40  CD1       28.0140   -0.6790   26.9070 C.3    77  LEU77       0.0001
     41  CD2       29.7410   -0.2400   25.1490 C.3    77  LEU77       0.0001
     42  N         28.0080    4.6820   26.3760 N.am   78  LEU78      -0.1966
     43  CA        27.7900    5.8620   25.5720 C.3    78  LEU78       0.1728
     44  C         28.4730    5.6890   24.2390 C.2    78  LEU78       0.2616
     45  O         29.6450    5.3360   24.1730 O.2    78  LEU78      -0.2715
     46  CB        28.3410    7.1050   26.2640 C.3    78  LEU78       0.0311
     47  CG        27.6000    7.5820   27.5240 C.3    78  LEU78       0.0022
     48  CD1       28.3700    8.7220   28.1890 C.3    78  LEU78       0.0001
     49  CD2       26.1430    7.9750   27.2340 C.3    78  LEU78       0.0001
     50  N         27.7330    5.9550   23.1710 N.am   79  ASN79      -0.1958
     51  CA        28.3200    6.0380   21.8560 C.3    79  ASN79       0.1819
     52  C         29.4920    7.0050   21.9710 C.2    79  ASN79       0.2621
     53  O         29.3210    8.1500   22.4080 O.2    79  ASN79      -0.2715
     54  CB        27.2760    6.5960   20.8950 C.3    79  ASN79       0.1195
     55  CG        27.7460    6.6170   19.4530 C.2    79  ASN79       0.2630
     56  OD1       28.7900    6.0650   19.1160 O.2    79  ASN79      -0.2716
     57  ND2       26.9570    7.2420   18.5890 N.am   79  ASN79      -0.0877
     58  N         30.6800    6.5450   21.5780 N.am   80  LYS80      -0.1963
     59  CA        31.9020    7.3320   21.7340 C.3    80  LYS80       0.1728
     60  C         32.0180    8.4310   20.6980 C.2    80  LYS80       0.2616
     61  O         32.8430    9.3310   20.8310 O.2    80  LYS80      -0.2715
     62  CB        33.1410    6.4410   21.6570 C.3    80  LYS80       0.0311
     63  CG        34.4530    7.1990   21.8430 C.3    80  LYS80       0.0038
     64  CD        35.6520    6.2960   21.6760 C.3    80  LYS80       0.0206
     65  CE        36.8180    6.8580   22.4470 C.3    80  LYS80       0.1093
     66  NZ        36.4440    7.1350   23.8650 N.3    80  LYS80      -0.1314
     67  N         31.1880    8.3480   19.6670 N.am   81  PHE81      -0.1974
     68  CA        31.2050    9.3310   18.5970 C.3    81  PHE81       0.1639
     69  C         29.8020    9.8150   18.2650 C.2    81  PHE81       0.2290
     70  O         29.3170    9.5960   17.1620 O.2    81  PHE81      -0.2864
     71  CB        31.8610    8.7380   17.3540 C.3    81  PHE81       0.0560
     72  CG        33.2840    8.3310   17.5650 C.ar   81  PHE81      -0.0200
     73  CD1       34.2860    9.2790   17.6310 C.ar   81  PHE81      -0.0042
     74  CD2       33.6230    6.9910   17.7010 C.ar   81  PHE81      -0.0042
     75  CE1       35.6030    8.8900   17.8230 C.ar   81  PHE81      -0.0003
     76  CE2       34.9440    6.5990   17.8970 C.ar   81  PHE81      -0.0003
     77  CZ        35.9280    7.5390   17.9530 C.ar   81  PHE81      -0.0000
     78  N         23.4890    9.6700   22.9630 N.3    87  HIS87      -0.1241
     79  CA        23.1150    8.4270   22.2800 C.3    87  HIS87       0.1621
     80  C         23.7960    7.2030   22.9490 C.2    87  HIS87       0.2264
     81  O         25.0220    7.1210   23.0360 O.2    87  HIS87      -0.2867
     82  CB        23.5000    8.5780   20.7850 C.3    87  HIS87       0.0745
     83  CG        23.3000    7.3480   19.9420 C.ar   87  HIS87       0.0817
     84  ND1       23.6380    7.3040   18.6050 N.ar   87  HIS87      -0.2268
     85  CD2       22.7990    6.1230   20.2390 C.ar   87  HIS87       0.1154
     86  CE1       23.3610    6.1100   18.1180 C.ar   87  HIS87       0.1986
     87  NE2       22.8560    5.3710   19.0910 N.ar   87  HIS87      -0.2212
     88  N         24.3740    2.9260   23.9520 N.3    89  LEU89      -0.1245
     89  CA        24.3430    1.5490   23.5170 C.3    89  LEU89       0.1561
     90  C         23.8400    0.6660   24.6470 C.2    89  LEU89       0.2260
     91  O         24.3080    0.7450   25.7810 O.2    89  LEU89      -0.2867
     92  CB        25.7210    1.0730   23.0390 C.3    89  LEU89       0.0270
     93  CG        26.4170    1.7260   21.8360 C.3    89  LEU89       0.0019
     94  CD1       25.4530    2.0580   20.7060 C.3    89  LEU89       0.0001
     95  CD2       27.1350    2.9670   22.2810 C.3    89  LEU89       0.0001
     96  N         19.8660   -2.5380   14.3190 N.3   128  ASN128     -0.1240
     97  CA        20.2860   -2.8200   12.9470 C.3   128  ASN128      0.1653
     98  C         20.6800   -4.2910   12.8180 C.2   128  ASN128      0.2266
     99  O         21.6260   -4.7570   13.4220 O.2   128  ASN128     -0.2867
    100  CB        21.4320   -1.8940   12.5110 C.3   128  ASN128      0.1155
    101  CG        21.0830   -0.4000   12.6450 C.2   128  ASN128      0.2627
    102  OD1       20.0430    0.0410   12.1830 O.2   128  ASN128     -0.2716
    103  ND2       21.9580    0.3680   13.2960 N.am  128  ASN128     -0.0877
    104  N         22.7480   -1.5870    8.1310 N.3   134  GLY134     -0.1210
    105  CA        23.4440   -0.4090    8.5930 C.3   134  GLY134      0.1956
    106  C         24.3230   -0.6960    9.7950 C.2   134  GLY134      0.2613
    107  O         24.8960    0.2200   10.3900 O.2   134  GLY134     -0.2717
    108  N         24.4530   -1.9720   10.1370 N.am  135  SER135     -0.1938
    109  CA        25.2720   -2.3870   11.2680 C.3   135  SER135      0.2055
    110  C         26.7600   -2.2350   11.0020 C.2   135  SER135      0.2644
    111  O         27.2500   -2.6700    9.9680 O.2   135  SER135     -0.2714
    112  CB        24.9710   -3.8410   11.6220 C.3   135  SER135      0.2130
    113  OG        25.9320   -4.3710   12.5260 O.3   135  SER135     -0.2179
    114  N         27.4650   -1.5470   11.8940 N.am  136  SER136     -0.1935
    115  CA        28.9350   -1.5870   11.9190 C.3   136  SER136      0.2055
    116  C         29.6060   -2.4590   13.0150 C.2   136  SER136      0.2642
    117  O         30.8280   -2.4140   13.1550 O.2   136  SER136     -0.2714
    118  CB        29.5410   -0.1790   11.8830 C.3   136  SER136      0.2130
    119  OG        29.2690    0.5180   13.0840 O.3   136  SER136     -0.2179
    120  N         28.8220   -3.1860   13.8190 N.am  137  GLN137     -0.1976
    121  CA        29.3560   -3.9570   14.9570 C.3   137  GLN137      0.1601
    122  C         28.6620   -5.2900   15.1890 C.2   137  GLN137      0.2287
    123  O         27.4350   -5.3540   15.2260 O.2   137  GLN137     -0.2864
    124  CB        29.2330   -3.1370   16.2270 C.3   137  GLN137      0.0394
    125  CG        30.1360   -1.9350   16.2530 C.3   137  GLN137      0.0908
    126  CD        31.5640   -2.3200   16.5390 C.2   137  GLN137      0.2608
    127  OE1       31.8570   -2.9670   17.5490 O.2   137  GLN137     -0.2717
    128  NE2       32.4620   -1.9450   15.6460 N.am  137  GLN137     -0.0878
    129  N         23.9920   -5.3080   20.1700 N.3   141  HIS141     -0.1241
    130  CA        23.7660   -4.0500   20.8430 C.3   141  HIS141      0.1621
    131  C         22.4990   -3.4240   20.3260 C.2   141  HIS141      0.2264
    132  O         22.1330   -3.6040   19.1700 O.2   141  HIS141     -0.2867
    133  CB        24.9560   -3.0990   20.6870 C.3   141  HIS141      0.0745
    134  CG        25.2960   -2.7420   19.2650 C.ar  141  HIS141      0.0817
    135  ND1       25.4150   -3.6760   18.2600 N.ar  141  HIS141     -0.2268
    136  CD2       25.5950   -1.5470   18.6990 C.ar  141  HIS141      0.1154
    137  CE1       25.7390   -3.0690   17.1310 C.ar  141  HIS141      0.1986
    138  NE2       25.8620   -1.7790   17.3720 N.ar  141  HIS141     -0.2212
    139  N         20.2550    0.3600   20.3200 N.3   143  GLN143     -0.1245
    140  CA        20.6060    1.7620   20.3520 C.3   143  GLN143      0.1566
    141  C         19.4580    2.6040   20.9090 C.2   143  GLN143      0.2260
    142  O         18.2850    2.3470   20.6270 O.2   143  GLN143     -0.2867
    143  CB        21.0720    2.2180   18.9640 C.3   143  GLN143      0.0367
    144  CG        22.2130    1.3510   18.4280 C.3   143  GLN143      0.0905
    145  CD        23.0050    1.9790   17.3000 C.2   143  GLN143      0.2608
    146  OE1       23.2670    1.3350   16.2930 O.2   143  GLN143     -0.2717
    147  NE2       23.4150    3.2250   17.4730 N.am  143  GLN143     -0.0878
    148  N         20.5030    3.3320    8.2470 N.3   250  ASN250     -0.1240
    149  CA        20.1630    2.4190    9.3140 C.3   250  ASN250      0.1653
    150  C         18.7320    2.5680    9.8590 C.2   250  ASN250      0.2266
    151  O         17.8900    3.0780    9.1530 O.2   250  ASN250     -0.2867
    152  CB        21.2860    2.2340   10.3350 C.3   250  ASN250      0.1155
    153  CG        21.5850    3.4560   11.1510 C.2   250  ASN250      0.2627
    154  OD1       20.7640    4.3360   11.3240 O.2   250  ASN250     -0.2716
    155  ND2       22.7860    3.4800   11.7110 N.am  250  ASN250     -0.0877
@<TRIPOS>BOND
     1   104   105    1
     2   148   149    1
     3   105   106    1
     4   151   150    2
     5   149   150    1
     6   149   152    1
     7   106   108   am
     8   106   107    2
     9   111   110    2
    10   108   109    1
    11   152   153    1
    12   110   109    1
    13   110   114   am
    14   153   154    2
    15   153   155   am
    16   109   112    1
    17   112   113    1
    18   118   115    1
    19   118   119    1
    20   114   115    1
    21   115   116    1
    22   102   101    2
    23   100   101    1
    24   100    97    1
    25   101   103   am
    26    98    97    1
    27    98    99    2
    28    97    96    1
    29   116   117    2
    30   116   120   am
    31   120   121    1
    32   121   122    1
    33   121   124    1
    34   122   123    2
    35   128   126   am
    36   124   125    1
    37   125   126    1
    38   146   145    2
    39   126   127    2
    40   137   138   ar
    41   137   135   ar
    42    70    69    2
    43   145   147   am
    44   145   144    1
    45    71    72    1
    46    71    68    1
    47   138   136   ar
    48    72    73   ar
    49    72    74   ar
    50    73    75   ar
    51    74    76   ar
    52    75    77   ar
    53    76    77   ar
    54    86    84   ar
    55    86    87   ar
    56   135   134   ar
    57    69    68    1
    58   144   143    1
    59    57    55   am
    60    68    67    1
    61    84    83   ar
    62   136   134   ar
    63   143   140    1
    64    87    85   ar
    65    56    55    2
    66   132   131    2
    67     7     6    1
    68     7     1    1
    69     6     5    1
    70   134   133    1
    71    55    54    1
    72    67    60   am
    73    83    85   ar
    74    83    82    1
    75    18    17   ar
    76    18    16   ar
    77    17    15   ar
    78   129   130    1
    79   139   140    1
    80   131   130    1
    81   140   141    1
    82     1     2    1
    83   142   141    2
    84     5     2    1
    85   133   130    1
    86    60    61    2
    87    60    59    1
    88    94    93    1
    89    82    79    1
    90    16    14   ar
    91    54    51    1
    92    15    13   ar
    93     2     3    1
    94    58    59    1
    95    58    52   am
    96    62    59    1
    97    62    63    1
    98    64    63    1
    99    64    65    1
   100    14    13   ar
   101    13    12    1
   102    93    95    1
   103    93    92    1
   104    51    52    1
   105    51    50    1
   106    52    53    2
   107    79    80    1
   108    79    78    1
   109     8     3   am
   110     8     9    1
   111    65    66    1
   112     3     4    2
   113    12     9    1
   114    80    81    2
   115    92    89    1
   116    50    44   am
   117     9    10    1
   118    89    88    1
   119    89    90    1
   120    45    44    2
   121    44    43    1
   122    10    11    2
   123    90    91    2
   124    32    31    1
   125    41    39    1
   126    43    46    1
   127    43    42    1
   128    37    36    2
   129    38    39    1
   130    38    35    1
   131    46    47    1
   132    42    36   am
   133    36    35    1
   134    39    40    1
   135    23    20    1
   136    23    24    1
   137    31    33    1
   138    31    30    1
   139    20    19    1
   140    20    21    1
   141    19    25    1
   142    35    34    1
   143    49    47    1
   144    30    27    1
   145    24    25    1
   146    47    48    1
   147    21    22    2
   148    29    28    2
   149    27    28    1
   150    27    26    1
