@<TRIPOS>MOLECULE
tmp/4i5wA00.pdb
 149 140 0 0 0
SMALL
GASTEIGER

@<TRIPOS>ATOM
      1  N         19.9670   15.6260    9.0100 N.3    45  THR45      -0.1218
      2  CA        21.1410   16.1330    9.7120 C.3    45  THR45       0.1862
      3  C         22.3880   16.1480    8.8250 C.2    45  THR45       0.2287
      4  O         22.7200   15.1480    8.1700 O.2    45  THR45      -0.2866
      5  CB        21.4410   15.3090   10.9570 C.3    45  THR45       0.1770
      6  OG1       20.3630   15.4430   11.8780 O.3    45  THR45      -0.2211
      7  CG2       22.7120   15.7970   11.6160 C.3    45  THR45       0.0375
      8  N         32.1780   14.1620    9.2100 N.3    50  LEU50      -0.1245
      9  CA        32.1290   12.7310    9.0400 C.3    50  LEU50       0.1561
     10  C         32.5410   12.3920    7.6340 C.2    50  LEU50       0.2260
     11  O         32.7770   11.2300    7.3250 O.2    50  LEU50      -0.2867
     12  CB        30.7050   12.2310    9.2600 C.3    50  LEU50       0.0270
     13  CG        30.2730   11.5900   10.5740 C.3    50  LEU50       0.0019
     14  CD1       30.5400   12.5020   11.7250 C.3    50  LEU50       0.0001
     15  CD2       28.7990   11.3060   10.4720 C.3    50  LEU50       0.0001
     16  N         27.7330    5.9550   23.1710 N.3    79  ASN79      -0.1240
     17  CA        28.3200    6.0380   21.8560 C.3    79  ASN79       0.1653
     18  C         29.4920    7.0050   21.9710 C.2    79  ASN79       0.2266
     19  O         29.3210    8.1500   22.4080 O.2    79  ASN79      -0.2867
     20  CB        27.2760    6.5960   20.8950 C.3    79  ASN79       0.1155
     21  CG        27.7460    6.6170   19.4530 C.2    79  ASN79       0.2627
     22  OD1       28.7900    6.0650   19.1160 O.2    79  ASN79      -0.2716
     23  ND2       26.9570    7.2420   18.5890 N.am   79  ASN79      -0.0877
     24  N         31.1880    8.3480   19.6670 N.3    81  PHE81      -0.1228
     25  CA        31.2050    9.3310   18.5970 C.3    81  PHE81       0.1721
     26  C         29.8020    9.8150   18.2650 C.2    81  PHE81       0.2437
     27  O         29.3170    9.5960   17.1620 O.2    81  PHE81      -0.2733
     28  CB        31.8610    8.7380   17.3540 C.3    81  PHE81       0.0547
     29  CG        33.2840    8.3310   17.5650 C.ar   81  PHE81      -0.0202
     30  CD1       34.2860    9.2790   17.6310 C.ar   81  PHE81      -0.0042
     31  CD2       33.6230    6.9910   17.7010 C.ar   81  PHE81      -0.0042
     32  CE1       35.6030    8.8900   17.8230 C.ar   81  PHE81      -0.0003
     33  CE2       34.9440    6.5990   17.8970 C.ar   81  PHE81      -0.0003
     34  CZ        35.9280    7.5390   17.9530 C.ar   81  PHE81      -0.0000
     35  N         29.1530   10.4760   19.2290 N.am   82  PRO82      -0.2718
     36  CA        27.7490   10.8950   19.1360 C.3    82  PRO82       0.1535
     37  C         27.5140   12.0630   18.1850 C.2    82  PRO82       0.2598
     38  O         28.2830   13.0110   18.2080 O.2    82  PRO82      -0.2715
     39  CB        27.4300   11.3320   20.5620 C.3    82  PRO82       0.0310
     40  CG        28.7350   11.8160   21.0980 C.3    82  PRO82       0.0237
     41  CD        29.8090   10.9870   20.4430 C.3    82  PRO82       0.0939
     42  N         26.4990   11.9700   17.3300 N.am   83  VAL83      -0.1964
     43  CA        25.9240   13.1490   16.6960 C.3    83  VAL83       0.1727
     44  C         24.8380   13.8280   17.5320 C.2    83  VAL83       0.2616
     45  O         24.7960   15.0470   17.6300 O.2    83  VAL83      -0.2715
     46  CB        25.3930   12.8400   15.3130 C.3    83  VAL83       0.0290
     47  CG1       24.4460   13.9460   14.8610 C.3    83  VAL83       0.0023
     48  CG2       26.5510   12.6580   14.3530 C.3    83  VAL83       0.0023
     49  N         23.9640   13.0230   18.1210 N.am   84  VAL84      -0.1977
     50  CA        22.9220   13.4940   19.0300 C.3    84  VAL84       0.1596
     51  C         23.4430   13.3400   20.4590 C.2    84  VAL84       0.2287
     52  O         23.6990   12.2410   20.9110 O.2    84  VAL84      -0.2864
     53  CB        21.6300   12.6290   18.8710 C.3    84  VAL84       0.0276
     54  CG1       20.6050   12.9390   19.9530 C.3    84  VAL84       0.0022
     55  CG2       21.0320   12.7820   17.4930 C.3    84  VAL84       0.0022
     56  N         23.4890    9.6700   22.9630 N.3    87  HIS87      -0.1241
     57  CA        23.1150    8.4270   22.2800 C.3    87  HIS87       0.1621
     58  C         23.7960    7.2030   22.9490 C.2    87  HIS87       0.2264
     59  O         25.0220    7.1210   23.0360 O.2    87  HIS87      -0.2867
     60  CB        23.5000    8.5780   20.7850 C.3    87  HIS87       0.0745
     61  CG        23.3000    7.3480   19.9420 C.ar   87  HIS87       0.0817
     62  ND1       23.6380    7.3040   18.6050 N.ar   87  HIS87      -0.2268
     63  CD2       22.7990    6.1230   20.2390 C.ar   87  HIS87       0.1154
     64  CE1       23.3610    6.1100   18.1180 C.ar   87  HIS87       0.1986
     65  NE2       22.8560    5.3710   19.0910 N.ar   87  HIS87      -0.2212
     66  N         16.4270    1.4870   18.4690 N.3   126  PHE126     -0.1241
     67  CA        16.5310    0.7160   17.2480 C.3   126  PHE126      0.1605
     68  C         17.6010   -0.3490   17.2520 C.2   126  PHE126      0.2264
     69  O         18.5340   -0.3540   18.0680 O.2   126  PHE126     -0.2867
     70  CB        16.7300    1.6260   16.0350 C.3   126  PHE126      0.0534
     71  CG        17.9140    2.5470   16.1410 C.ar  126  PHE126     -0.0203
     72  CD1       19.1230    2.2240   15.5300 C.ar  126  PHE126     -0.0042
     73  CD2       17.8150    3.7440   16.8370 C.ar  126  PHE126     -0.0042
     74  CE1       20.2030    3.0780   15.6140 C.ar  126  PHE126     -0.0003
     75  CE2       18.8910    4.5940   16.9320 C.ar  126  PHE126     -0.0003
     76  CZ        20.0880    4.2620   16.3130 C.ar  126  PHE126     -0.0000
     77  N         20.2550    0.3600   20.3200 N.3   143  GLN143     -0.1245
     78  CA        20.6060    1.7620   20.3520 C.3   143  GLN143      0.1566
     79  C         19.4580    2.6040   20.9090 C.2   143  GLN143      0.2260
     80  O         18.2850    2.3470   20.6270 O.2   143  GLN143     -0.2867
     81  CB        21.0720    2.2180   18.9640 C.3   143  GLN143      0.0367
     82  CG        22.2130    1.3510   18.4280 C.3   143  GLN143      0.0905
     83  CD        23.0050    1.9790   17.3000 C.2   143  GLN143      0.2608
     84  OE1       23.2670    1.3350   16.2930 O.2   143  GLN143     -0.2717
     85  NE2       23.4150    3.2250   17.4730 N.am  143  GLN143     -0.0878
     86  N         18.4300    6.7230   21.1620 N.3   145  MET145     -0.1245
     87  CA        18.7060    8.1390   20.9780 C.3   145  MET145      0.1570
     88  C         17.4700    9.0540   20.9700 C.2   145  MET145      0.2261
     89  O         16.3770    8.6820   20.5300 O.2   145  MET145     -0.2867
     90  CB        19.6110    8.3950   19.7620 C.3   145  MET145      0.0387
     91  CG        19.0900    7.8920   18.4520 C.3   145  MET145      0.0595
     92  SD        19.6820    8.9280   17.1040 S.3   145  MET145     -0.1393
     93  CE        21.4110    9.0850   17.5250 C.3   145  MET145      0.0692
     94  N         24.1710    5.8640    3.1050 N.3   248  ASN248     -0.1240
     95  CA        24.1950    4.8170    4.1050 C.3   248  ASN248      0.1653
     96  C         22.9730    4.9800    4.9740 C.2   248  ASN248      0.2266
     97  O         22.7190    6.0690    5.4570 O.2   248  ASN248     -0.2867
     98  CB        25.3940    4.9870    5.0190 C.3   248  ASN248      0.1155
     99  CG        26.7010    4.8890    4.3020 C.2   248  ASN248      0.2627
    100  OD1       26.9320    3.9770    3.5010 O.2   248  ASN248     -0.2716
    101  ND2       27.5860    5.8280    4.5960 N.am  248  ASN248     -0.0877
    102  N         20.5030    3.3320    8.2470 N.3   250  ASN250     -0.1240
    103  CA        20.1630    2.4190    9.3140 C.3   250  ASN250      0.1653
    104  C         18.7320    2.5680    9.8590 C.2   250  ASN250      0.2266
    105  O         17.8900    3.0780    9.1530 O.2   250  ASN250     -0.2867
    106  CB        21.2860    2.2340   10.3350 C.3   250  ASN250      0.1155
    107  CG        21.5850    3.4560   11.1510 C.2   250  ASN250      0.2627
    108  OD1       20.7640    4.3360   11.3240 O.2   250  ASN250     -0.2716
    109  ND2       22.7860    3.4800   11.7110 N.am  250  ASN250     -0.0877
    110  N         17.2280    4.4520   11.7810 N.3   252  THR252     -0.1218
    111  CA        16.7000    5.8010   11.9890 C.3   252  THR252      0.1862
    112  C         16.0800    6.3600   10.7330 C.2   252  THR252      0.2287
    113  O         15.1210    7.1300   10.7840 O.2   252  THR252     -0.2866
    114  CB        17.7850    6.7940   12.4030 C.3   252  THR252      0.1770
    115  OG1       18.7170    6.9230   11.3290 O.3   252  THR252     -0.2211
    116  CG2       18.5100    6.3320   13.6600 C.3   252  THR252      0.0375
    117  N         14.6220    9.7630    9.6320 N.3   257  MET257     -0.1230
    118  CA        15.7810   10.4860   10.1540 C.3   257  MET257      0.1702
    119  C         17.0630   10.1890    9.3660 C.2   257  MET257      0.2592
    120  O         17.6270    9.1190    9.5130 O.2   257  MET257     -0.2718
    121  CB        15.9770   10.1200   11.6250 C.3   257  MET257      0.0401
    122  CG        14.8890   10.6580   12.5420 C.3   257  MET257      0.0596
    123  SD        15.1100   10.3270   14.2910 S.3   257  MET257     -0.1393
    124  CE        16.8380   10.6900   14.5860 C.3   257  MET257      0.0692
    125  N         17.5460   11.1650    8.5820 N.am  258  ILE258     -0.1966
    126  CA        18.6430   10.9610    7.6080 C.3   258  ILE258      0.1727
    127  C         19.9380   11.6710    8.0320 C.2   258  ILE258      0.2616
    128  O         19.9120   12.8210    8.4520 O.2   258  ILE258     -0.2715
    129  CB        18.2400   11.4660    6.1670 C.3   258  ILE258      0.0290
    130  CG1       17.0280   10.7110    5.6040 C.3   258  ILE258      0.0022
    131  CG2       19.3920   11.3650    5.1880 C.3   258  ILE258      0.0023
    132  CD1       17.2000    9.1950    5.5180 C.3   258  ILE258      0.0001
    133  N         21.0740   10.9940    7.9300 N.am  259  LEU259     -0.1977
    134  CA        22.3610   11.6330    8.2330 C.3   259  LEU259      0.1596
    135  C         23.2600   11.7730    6.9880 C.2   259  LEU259      0.2287
    136  O         23.7840   10.7730    6.4810 O.2   259  LEU259     -0.2864
    137  CB        23.0890   10.8420    9.3190 C.3   259  LEU259      0.0297
    138  CG        24.4780   11.2870    9.7860 C.3   259  LEU259      0.0022
    139  CD1       24.4230   12.6500   10.5070 C.3   259  LEU259      0.0001
    140  CD2       25.0860   10.2110   10.6870 C.3   259  LEU259      0.0001
    141  N         26.6950   13.4750    4.9800 N.3   261  LYS261     -0.1245
    142  CA        28.0240   14.0340    5.1910 C.3   261  LYS261      0.1561
    143  C         28.4960   15.0840    4.1680 C.2   261  LYS261      0.2260
    144  O         29.5190   15.7290    4.3980 O.2   261  LYS261     -0.2867
    145  CB        29.0470   12.9080    5.3330 C.3   261  LYS261      0.0271
    146  CG        28.6080   11.7920    6.2800 C.3   261  LYS261      0.0035
    147  CD        29.1240   10.4210    5.8190 C.3   261  LYS261      0.0206
    148  CE        28.6120    9.2900    6.7060 C.3   261  LYS261      0.1093
    149  NZ        28.9990    9.5060    8.1280 N.3   261  LYS261     -0.1314
@<TRIPOS>BOND
     1    94    95    1
     2   100    99    2
     3    95    96    1
     4    95    98    1
     5   143   144    2
     6   143   142    1
     7    99   101   am
     8    99    98    1
     9    96    97    2
    10   141   142    1
    11   131   129    1
    12   142   145    1
    13   145   146    1
    14   132   130    1
    15   130   129    1
    16   147   146    1
    17   147   148    1
    18   129   126    1
    19   136   135    2
    20   148   149    1
    21   135   134    1
    22    11    10    2
    23   126   127    1
    24   126   125    1
    25    10     9    1
    26   133   127   am
    27   133   134    1
    28   127   128    2
    29     4     3    2
    30   134   137    1
    31   102   103    1
    32   125   119   am
    33     3     2    1
    34     1     2    1
    35     9     8    1
    36     9    12    1
    37   105   104    2
    38    12    13    1
    39   103   104    1
    40   103   106    1
    41   137   138    1
    42   119   120    2
    43   119   118    1
    44   117   118    1
    45     2     5    1
    46   138   139    1
    47   138   140    1
    48   118   121    1
    49   106   107    1
    50    15    13    1
    51    13    14    1
    52   112   113    2
    53   112   111    1
    54     5     7    1
    55     5     6    1
    56   107   108    2
    57   107   109   am
    58   115   114    1
    59   121   122    1
    60   110   111    1
    61   111   114    1
    62   114   116    1
    63   122   123    1
    64   123   124    1
    65    48    46    1
    66    47    46    1
    67    46    43    1
    68    72    74   ar
    69    72    71   ar
    70    74    76   ar
    71    70    71    1
    72    70    67    1
    73    71    73   ar
    74    84    83    2
    75    76    75   ar
    76    43    42    1
    77    43    44    1
    78    73    75   ar
    79    92    93    1
    80    92    91    1
    81    27    26    2
    82    67    68    1
    83    67    66    1
    84    68    69    2
    85    83    85   am
    86    83    82    1
    87    42    37   am
    88    28    29    1
    89    28    25    1
    90    55    53    1
    91    44    45    2
    92    44    49   am
    93    29    30   ar
    94    29    31   ar
    95    30    32   ar
    96    31    33   ar
    97    32    34   ar
    98    33    34   ar
    99    64    62   ar
   100    64    65   ar
   101    49    50    1
   102    37    38    2
   103    37    36    1
   104    26    25    1
   105    26    35   am
   106    82    81    1
   107    91    90    1
   108    23    21   am
   109    25    24    1
   110    62    61   ar
   111    53    50    1
   112    53    54    1
   113    81    78    1
   114    50    51    1
   115    65    63   ar
   116    22    21    2
   117    36    35    1
   118    36    39    1
   119    35    41    1
   120    21    20    1
   121    90    87    1
   122    61    63   ar
   123    61    60    1
   124    77    78    1
   125    78    79    1
   126    41    40    1
   127    51    52    2
   128    89    88    2
   129    39    40    1
   130    80    79    2
   131    60    57    1
   132    20    17    1
   133    88    87    1
   134    87    86    1
   135    17    18    1
   136    17    16    1
   137    18    19    2
   138    57    58    1
   139    57    56    1
   140    58    59    2
