@<TRIPOS>MOLECULE
tmp/4i5xA00.pdb
 171 172 0 0 0
SMALL
GASTEIGER

@<TRIPOS>ATOM
      1  N         25.0210  -21.3200   -0.1500 N.3    23  TRP23      -0.1227
      2  CA        25.6240  -20.6680    1.0270 C.3    23  TRP23       0.1737
      3  C         25.6300  -19.1350    0.9280 C.2    23  TRP23       0.2595
      4  O         25.9120  -18.5650   -0.1350 O.2    23  TRP23      -0.2718
      5  CB        27.0560  -21.1830    1.2150 C.3    23  TRP23       0.0564
      6  CG        27.7340  -20.7940    2.5040 C.ar   23  TRP23       0.0003
      7  CD1       28.3970  -19.6280    2.7610 C.ar   23  TRP23       0.0946
      8  CD2       27.8520  -21.5910    3.6990 C.ar   23  TRP23       0.0152
      9  NE1       28.9120  -19.6420    4.0420 N.ar   23  TRP23      -0.2442
     10  CE2       28.5910  -20.8340    4.6370 C.ar   23  TRP23       0.0810
     11  CE3       27.4030  -22.8660    4.0670 C.ar   23  TRP23       0.0012
     12  CZ2       28.8870  -21.3100    5.9190 C.ar   23  TRP23       0.0191
     13  CZ3       27.7020  -23.3380    5.3330 C.ar   23  TRP23       0.0001
     14  CH2       28.4360  -22.5630    6.2460 C.ar   23  TRP23       0.0015
     15  N         25.3220  -18.4830    2.0470 N.am   24  LYS24      -0.1980
     16  CA        25.0580  -17.0420    2.0890 C.3    24  LYS24       0.1596
     17  C         26.1060  -16.2090    1.3360 C.2    24  LYS24       0.2287
     18  O         27.3130  -16.3380    1.5860 O.2    24  LYS24      -0.2864
     19  CB        24.9370  -16.5930    3.5530 C.3    24  LYS24       0.0298
     20  CG        24.4870  -15.1500    3.7900 C.3    24  LYS24       0.0038
     21  CD        24.1410  -14.9290    5.2750 C.3    24  LYS24       0.0206
     22  CE        23.7420  -13.4820    5.5940 C.3    24  LYS24       0.1093
     23  NZ        23.0940  -13.3310    6.9400 N.3    24  LYS24      -0.1314
     24  N         17.5210  -20.6310    6.2710 N.3    50  VAL50      -0.1231
     25  CA        18.4860  -20.0240    7.1830 C.3    50  VAL50       0.1692
     26  C         19.4580  -19.0720    6.4820 C.2    50  VAL50       0.2592
     27  O         19.9840  -18.1560    7.1140 O.2    50  VAL50      -0.2718
     28  CB        19.2720  -21.0800    7.9920 C.3    50  VAL50       0.0266
     29  CG1       20.2810  -21.7980    7.1150 C.3    50  VAL50       0.0020
     30  CG2       19.9760  -20.4350    9.1660 C.3    50  VAL50       0.0020
     31  N         19.6850  -19.2780    5.1850 N.am   51  TYR51      -0.1976
     32  CA        20.5970  -18.4180    4.4330 C.3    51  TYR51       0.1639
     33  C         20.0290  -17.0380    4.2560 C.2    51  TYR51       0.2290
     34  O         20.7670  -16.1000    3.9830 O.2    51  TYR51      -0.2864
     35  CB        20.9300  -19.0130    3.0680 C.3    51  TYR51       0.0560
     36  CG        21.7760  -20.2370    3.1930 C.ar   51  TYR51      -0.0198
     37  CD1       22.7810  -20.2960    4.1450 C.ar   51  TYR51      -0.0009
     38  CD2       21.5570  -21.3440    2.3880 C.ar   51  TYR51      -0.0009
     39  CE1       23.5500  -21.4170    4.2860 C.ar   51  TYR51       0.0417
     40  CE2       22.3210  -22.4730    2.5250 C.ar   51  TYR51       0.0417
     41  CZ        23.3150  -22.5020    3.4730 C.ar   51  TYR51       0.1957
     42  OH        24.0890  -23.6140    3.6200 O.3    51  TYR51      -0.2866
     43  N         14.8330  -26.4280    2.9150 N.3    80  LYS80      -0.1245
     44  CA        14.8930  -27.1200    4.1950 C.3    80  LYS80       0.1561
     45  C         14.1390  -26.3350    5.2550 C.2    80  LYS80       0.2260
     46  O         14.0270  -25.1100    5.1770 O.2    80  LYS80      -0.2867
     47  CB        16.3520  -27.3200    4.6450 C.3    80  LYS80       0.0271
     48  CG        17.3340  -27.5920    3.4980 C.3    80  LYS80       0.0035
     49  CD        18.7520  -27.8400    3.9780 C.3    80  LYS80       0.0206
     50  CE        19.7200  -28.0000    2.7880 C.3    80  LYS80       0.1093
     51  NZ        19.9930  -26.7190    2.0970 N.3    80  LYS80      -0.1314
     52  N         14.1290  -25.0950    9.0020 N.3    82  TRP82      -0.1241
     53  CA        15.0730  -24.7670   10.0700 C.3    82  TRP82       0.1605
     54  C         14.4580  -25.1390   11.4410 C.2    82  TRP82       0.2264
     55  O         13.2510  -25.0240   11.6100 O.2    82  TRP82      -0.2867
     56  CB        15.4620  -23.2740    9.9660 C.3    82  TRP82       0.0550
     57  CG        16.4860  -22.8410   10.9650 C.ar   82  TRP82       0.0003
     58  CD1       16.2700  -22.0890   12.0840 C.ar   82  TRP82       0.0946
     59  CD2       17.8870  -23.1540   10.9560 C.ar   82  TRP82       0.0152
     60  NE1       17.4430  -21.9220   12.7750 N.ar   82  TRP82      -0.2442
     61  CE2       18.4520  -22.5630   12.1060 C.ar   82  TRP82       0.0810
     62  CE3       18.7140  -23.8900   10.0980 C.ar   82  TRP82       0.0012
     63  CZ2       19.8100  -22.6690   12.4110 C.ar   82  TRP82       0.0191
     64  CZ3       20.0620  -23.9970   10.4050 C.ar   82  TRP82       0.0001
     65  CH2       20.5960  -23.3910   11.5530 C.ar   82  TRP82       0.0015
     66  N         16.2150  -29.7290    8.2370 N.3   113  HIS113     -0.1226
     67  CA        17.5610  -29.1900    8.1290 C.3   113  HIS113      0.1752
     68  C         18.4990  -29.7300    9.2110 C.2   113  HIS113      0.2596
     69  O         19.6900  -29.9200    8.9820 O.2   113  HIS113     -0.2718
     70  CB        17.4930  -27.6670    8.2090 C.3   113  HIS113      0.0759
     71  CG        18.6940  -26.9730    7.6460 C.ar  113  HIS113      0.0818
     72  ND1       18.6210  -25.7330    7.0480 N.ar  113  HIS113     -0.2268
     73  CD2       19.9950  -27.3430    7.5970 C.ar  113  HIS113      0.1154
     74  CE1       19.8310  -25.3670    6.6640 C.ar  113  HIS113      0.1986
     75  NE2       20.6810  -26.3280    6.9830 N.ar  113  HIS113     -0.2212
     76  N         17.9390  -30.0210   10.3750 N.am  114  TRP114     -0.1976
     77  CA        18.7250  -30.4140   11.5360 C.3   114  TRP114      0.1640
     78  C         17.7520  -31.1490   12.4630 C.2   114  TRP114      0.2290
     79  O         16.5960  -30.7670   12.5710 O.2   114  TRP114     -0.2864
     80  CB        19.3160  -29.1530   12.1950 C.3   114  TRP114      0.0576
     81  CG        20.1500  -29.3840   13.4050 C.ar  114  TRP114      0.0006
     82  CD1       19.7650  -29.2320   14.7080 C.ar  114  TRP114      0.0946
     83  CD2       21.5130  -29.8160   13.4380 C.ar  114  TRP114      0.0152
     84  NE1       20.8030  -29.5380   15.5460 N.ar  114  TRP114     -0.2442
     85  CE2       21.8890  -29.9050   14.7940 C.ar  114  TRP114      0.0810
     86  CE3       22.4520  -30.1300   12.4550 C.ar  114  TRP114      0.0012
     87  CZ2       23.1630  -30.2890   15.1910 C.ar  114  TRP114      0.0191
     88  CZ3       23.7160  -30.5190   12.8470 C.ar  114  TRP114      0.0001
     89  CH2       24.0600  -30.6010   14.2080 C.ar  114  TRP114      0.0015
     90  N         19.0780  -18.7420   15.9940 N.3   125  PHE125     -0.1241
     91  CA        20.0380  -19.4810   16.7880 C.3   125  PHE125      0.1605
     92  C         19.8570  -19.1210   18.2670 C.2   125  PHE125      0.2264
     93  O         20.7330  -18.4840   18.8600 O.2   125  PHE125     -0.2867
     94  CB        21.4650  -19.1500   16.3430 C.3   125  PHE125      0.0534
     95  CG        21.7800  -19.5510   14.9200 C.ar  125  PHE125     -0.0203
     96  CD1       22.5220  -20.6960   14.6560 C.ar  125  PHE125     -0.0042
     97  CD2       21.3460  -18.7810   13.8520 C.ar  125  PHE125     -0.0042
     98  CE1       22.8220  -21.0720   13.3450 C.ar  125  PHE125     -0.0003
     99  CE2       21.6410  -19.1510   12.5350 C.ar  125  PHE125     -0.0003
    100  CZ        22.3830  -20.2980   12.2880 C.ar  125  PHE125     -0.0000
    101  N         21.6220  -33.8520    8.1400 N.3   163  ASN163     -0.1240
    102  CA        22.3600  -34.0150    9.4020 C.3   163  ASN163      0.1653
    103  C         21.7080  -35.0350   10.3350 C.2   163  ASN163      0.2266
    104  O         21.7130  -34.8670   11.5510 O.2   163  ASN163     -0.2867
    105  CB        22.5240  -32.6710   10.1330 C.3   163  ASN163      0.1155
    106  CG        23.2450  -31.6260    9.2850 C.2   163  ASN163      0.2627
    107  OD1       22.6830  -30.5730    8.9750 O.2   163  ASN163     -0.2716
    108  ND2       24.4850  -31.9070    8.9240 N.am  163  ASN163     -0.0877
    109  N         20.8220  -35.3750    3.5260 N.3   186  GLN186     -0.1245
    110  CA        21.8630  -34.4250    3.1380 C.3   186  GLN186      0.1566
    111  C         22.8120  -34.1630    4.2940 C.2   186  GLN186      0.2260
    112  O         22.4320  -33.5680    5.3190 O.2   186  GLN186     -0.2867
    113  CB        21.2780  -33.0990    2.6180 C.3   186  GLN186      0.0367
    114  CG        22.3750  -32.1360    2.1600 C.3   186  GLN186      0.0905
    115  CD        21.8770  -30.7530    1.7880 C.2   186  GLN186      0.2608
    116  OE1       22.4190  -29.7600    2.2600 O.2   186  GLN186     -0.2717
    117  NE2       20.8550  -30.6790    0.9330 N.am  186  GLN186     -0.0878
    118  N         27.1010  -32.4710    1.2560 N.3   212  TYR212     -0.1241
    119  CA        27.3420  -31.0380    1.3080 C.3   212  TYR212      0.1605
    120  C         28.7800  -30.7340    1.7610 C.2   212  TYR212      0.2264
    121  O         29.5140  -31.6470    2.1520 O.2   212  TYR212     -0.2867
    122  CB        26.2580  -30.3140    2.1300 C.3   212  TYR212      0.0534
    123  CG        26.3250  -30.4020    3.6580 C.ar  212  TYR212     -0.0201
    124  CD1       27.4170  -29.9050    4.3640 C.ar  212  TYR212     -0.0009
    125  CD2       25.2500  -30.9060    4.3910 C.ar  212  TYR212     -0.0009
    126  CE1       27.4540  -29.9360    5.7560 C.ar  212  TYR212      0.0417
    127  CE2       25.2760  -30.9490    5.7790 C.ar  212  TYR212      0.0417
    128  CZ        26.3830  -30.4580    6.4570 C.ar  212  TYR212      0.1957
    129  OH        26.4220  -30.4760    7.8460 O.3   212  TYR212     -0.2866
    130  N         32.9770  -19.2300    8.1740 N.3   221  PRO221     -0.2102
    131  CA        33.5110  -18.2390    9.1200 C.3   221  PRO221      0.1504
    132  C         34.5180  -18.8370   10.0990 C.2   221  PRO221      0.2575
    133  O         35.5460  -18.2150   10.3680 O.2   221  PRO221     -0.2718
    134  CB        32.2660  -17.7710    9.8700 C.3   221  PRO221      0.0282
    135  CG        31.1690  -17.9250    8.8860 C.3   221  PRO221      0.0208
    136  CD        31.5070  -19.1560    8.0790 C.3   221  PRO221      0.0893
    137  N         34.2370  -20.0420   10.5870 N.am  222  TRP222     -0.1977
    138  CA        34.9890  -20.6230   11.6980 C.3   222  TRP222      0.1640
    139  C         36.2210  -21.4310   11.3010 C.2   222  TRP222      0.2290
    140  O         36.8050  -22.1180   12.1390 O.2   222  TRP222     -0.2864
    141  CB        34.0660  -21.4910   12.5650 C.3   222  TRP222      0.0576
    142  CG        33.2620  -22.4720   11.7760 C.ar  222  TRP222      0.0006
    143  CD1       33.6240  -23.7450   11.4340 C.ar  222  TRP222      0.0946
    144  CD2       31.9560  -22.2600   11.2230 C.ar  222  TRP222      0.0152
    145  NE1       32.6190  -24.3390   10.6990 N.ar  222  TRP222     -0.2442
    146  CE2       31.5870  -23.4480   10.5530 C.ar  222  TRP222      0.0810
    147  CE3       31.0650  -21.1840   11.2270 C.ar  222  TRP222      0.0012
    148  CZ2       30.3640  -23.5870    9.8970 C.ar  222  TRP222      0.0191
    149  CZ3       29.8510  -21.3230   10.5680 C.ar  222  TRP222      0.0001
    150  CH2       29.5120  -22.5150    9.9170 C.ar  222  TRP222      0.0015
    151  N         31.6420  -28.6230    9.1740 N.3   301  CYS301     -0.1235
    152  CA        30.3810  -28.0320    9.5610 C.3   301  CYS301      0.1677
    153  C         29.8840  -28.5750   10.8970 C.2   301  CYS301      0.2270
    154  O         28.9970  -29.4300   10.9470 O.2   301  CYS301     -0.2867
    155  CB        29.3380  -28.2180    8.4710 C.3   301  CYS301      0.0956
    156  SG        28.0000  -27.0350    8.6300 S.3   301  CYS301     -0.0801
    157  N         29.2880  -26.2220   13.8450 N.3   303  VAL303     -0.1231
    158  CA        29.2650  -24.9320   14.5230 C.3   303  VAL303      0.1692
    159  C         28.2390  -24.9070   15.6580 C.2   303  VAL303      0.2591
    160  O         28.4510  -24.2450   16.6780 O.2   303  VAL303     -0.2718
    161  CB        28.9860  -23.7820   13.5080 C.3   303  VAL303      0.0266
    162  CG1       27.6790  -24.0220   12.7530 C.3   303  VAL303      0.0020
    163  CG2       28.9790  -22.4220   14.1970 C.3   303  VAL303      0.0020
    164  N         27.1460  -25.6520   15.4860 N.am  304  LEU304     -0.1980
    165  CA        25.9890  -25.5830   16.3860 C.3   304  LEU304      0.1596
    166  C         26.2950  -25.9140   17.8590 C.2   304  LEU304      0.2287
    167  O         25.8250  -25.2080   18.7580 O.2   304  LEU304     -0.2864
    168  CB        24.8150  -26.4200   15.8460 C.3   304  LEU304      0.0297
    169  CG        23.9980  -25.7730   14.7170 C.3   304  LEU304      0.0022
    170  CD1       22.7990  -26.6250   14.3110 C.3   304  LEU304      0.0001
    171  CD2       23.5360  -24.3820   15.1290 C.3   304  LEU304      0.0001
@<TRIPOS>BOND
     1     1     2    1
     2     4     3    2
     3     3     2    1
     4     3    15   am
     5   117   115   am
     6     2     5    1
     7     5     6    1
     8   118   119    1
     9   119   120    1
    10   119   122    1
    11    17    18    2
    12    17    16    1
    13   120   121    2
    14   115   114    1
    15   115   116    2
    16    15    16    1
    17    16    19    1
    18    51    50    1
    19   122   123    1
    20   114   113    1
    21    38    40   ar
    22    38    36   ar
    23     6     7   ar
    24     6     8   ar
    25    40    41   ar
    26   113   110    1
    27     7     9   ar
    28    50    49    1
    29    43    44    1
    30    35    36    1
    31    35    32    1
    32   110   109    1
    33   110   111    1
    34    36    37   ar
    35    41    42    1
    36    41    39   ar
    37    48    49    1
    38    48    47    1
    39    19    20    1
    40   123   124   ar
    41   123   125   ar
    42     8    11   ar
    43     8    10   ar
    44    20    21    1
    45    34    33    2
    46     9    10   ar
    47    11    13   ar
    48    37    39   ar
    49    44    47    1
    50    44    45    1
    51    33    32    1
    52   111   112    2
    53   124   126   ar
    54   125   127   ar
    55    32    31    1
    56    10    12   ar
    57    46    45    2
    58    31    26   am
    59    21    22    1
    60    13    14   ar
    61    22    23    1
    62   126   128   ar
    63   127   128   ar
    64    12    14   ar
    65    24    25    1
    66   128   129    1
    67    26    27    2
    68    26    25    1
    69    74    75   ar
    70    74    72   ar
    71    75    73   ar
    72    72    71   ar
    73    29    28    1
    74    25    28    1
    75    73    71   ar
    76    71    70    1
    77    28    30    1
    78   136   130    1
    79   136   135    1
    80    67    70    1
    81    67    66    1
    82    67    68    1
    83   101   102    1
    84   130   131    1
    85   155   156    1
    86   155   152    1
    87   135   134    1
    88   108   106   am
    89   107   106    2
    90    69    68    2
    91    52    53    1
    92   131   134    1
    93   131   132    1
    94   151   152    1
    95    68    76   am
    96   106   105    1
    97   102   105    1
    98   102   103    1
    99   152   153    1
   100   148   150   ar
   101   148   146   ar
   102   150   149   ar
   103    56    53    1
   104    56    57    1
   105    53    54    1
   106    62    64   ar
   107    62    59   ar
   108   132   133    2
   109   132   137   am
   110   103   104    2
   111    76    77    1
   112    64    65   ar
   113   146   145   ar
   114   146   144   ar
   115   149   147   ar
   116   137   138    1
   117   145   143   ar
   118   153   154    2
   119    59    57   ar
   120    59    61   ar
   121    57    58   ar
   122   144   147   ar
   123   144   142   ar
   124   139   138    1
   125   139   140    2
   126   143   142   ar
   127    54    55    2
   128    77    80    1
   129    77    78    1
   130    65    63   ar
   131   138   141    1
   132   142   141    1
   133    58    60   ar
   134    61    63   ar
   135    61    60   ar
   136    80    81    1
   137   100    99   ar
   138   100    98   ar
   139    86    88   ar
   140    86    83   ar
   141    78    79    2
   142    99    97   ar
   143   162   161    1
   144    88    89   ar
   145    98    96   ar
   146    81    83   ar
   147    81    82   ar
   148    83    85   ar
   149   161   163    1
   150   161   158    1
   151   157   158    1
   152    97    95   ar
   153    89    87   ar
   154   170   169    1
   155   158   159    1
   156    96    95   ar
   157    82    84   ar
   158   169   171    1
   159   169   168    1
   160    85    87   ar
   161    85    84   ar
   162    95    94    1
   163   164   159   am
   164   164   165    1
   165   159   160    2
   166   168   165    1
   167    90    91    1
   168    94    91    1
   169   165   166    1
   170    91    92    1
   171   166   167    2
   172    92    93    2
