@<TRIPOS>MOLECULE
tmp/4i60A01.pdb
 178 170 0 0 0
SMALL
GASTEIGER

@<TRIPOS>ATOM
      1  N         40.6320   34.4980   16.7670 N.3    12  ASN12      -0.1240
      2  CA        39.3700   33.9290   16.3120 C.3    12  ASN12       0.1653
      3  C         39.0010   32.5850   16.8940 C.2    12  ASN12       0.2266
      4  O         39.7540   31.9870   17.6320 O.2    12  ASN12      -0.2867
      5  CB        39.2620   33.9110   14.8010 C.3    12  ASN12       0.1155
      6  CG        40.1570   32.8950   14.1710 C.2    12  ASN12       0.2627
      7  OD1       40.6400   31.9520   14.8130 O.2    12  ASN12      -0.2716
      8  ND2       40.3580   33.0610   12.8960 N.am   12  ASN12      -0.0877
      9  N         39.1940   29.8890   15.8980 N.3    14  LEU14      -0.1245
     10  CA        40.1400   28.7600   15.6210 C.3    14  LEU14       0.1561
     11  C         41.4290   28.8520   16.4150 C.2    14  LEU14       0.2260
     12  O         42.2170   27.9180   16.4370 O.2    14  LEU14      -0.2867
     13  CB        40.4100   28.5020   14.1550 C.3    14  LEU14       0.0270
     14  CG        39.1030   28.0740   13.4390 C.3    14  LEU14       0.0019
     15  CD1       39.2840   28.1720   11.9200 C.3    14  LEU14       0.0001
     16  CD2       38.4500   26.7310   13.8770 C.3    14  LEU14       0.0001
     17  N         43.2680   31.3720   15.8460 N.3    16  SER16      -0.1217
     18  CA        44.1470   32.0840   14.9240 C.3    16  SER16       0.1889
     19  C         44.2220   33.5010   15.4030 C.2    16  SER16       0.2288
     20  O         43.2560   34.0180   15.9310 O.2    16  SER16      -0.2866
     21  CB        43.6010   32.0410   13.4780 C.3    16  SER16       0.2089
     22  OG        44.0090   30.8480   12.8040 O.3    16  SER16      -0.2183
     23  N         48.8810   37.6600    9.7220 N.3    33  TYR33      -0.1241
     24  CA        47.9160   36.6340   10.1640 C.3    33  TYR33       0.1605
     25  C         48.6990   35.3910   10.5200 C.2    33  TYR33       0.2264
     26  O         49.5610   34.9080    9.7080 O.2    33  TYR33      -0.2867
     27  CB        46.9200   36.2720    9.0420 C.3    33  TYR33       0.0534
     28  CG        45.6360   35.5810    9.4860 C.ar   33  TYR33      -0.0201
     29  CD1       44.3980   36.2770    9.5090 C.ar   33  TYR33      -0.0009
     30  CD2       45.6260   34.2470    9.8730 C.ar   33  TYR33      -0.0009
     31  CE1       43.2170   35.6390    9.8820 C.ar   33  TYR33       0.0417
     32  CE2       44.4450   33.6000   10.2520 C.ar   33  TYR33       0.0417
     33  CZ        43.2370   34.2850   10.2450 C.ar   33  TYR33       0.1957
     34  OH        42.0630   33.6730   10.6350 O.3    33  TYR33      -0.2866
     35  N         47.8120   31.7040   11.3870 N.3    35  THR35      -0.1218
     36  CA        46.7310   30.7410   11.4890 C.3    35  THR35       0.1862
     37  C         47.1400   29.6810   12.5130 C.2    35  THR35       0.2287
     38  O         48.2790   29.2770   12.5150 O.2    35  THR35      -0.2866
     39  CB        46.3910   30.0780   10.1590 C.3    35  THR35       0.1770
     40  OG1       45.3910   29.0700   10.4110 O.3    35  THR35      -0.2211
     41  CG2       47.6040   29.4250    9.5810 C.3    35  THR35       0.0375
     42  N         45.6810   26.8910   12.3640 N.3    37  VAL37      -0.1231
     43  CA        45.2350   25.6690   11.6880 C.3    37  VAL37       0.1692
     44  C         45.7750   25.6170   10.2550 C.2    37  VAL37       0.2593
     45  O         45.9110   26.6600    9.6270 O.2    37  VAL37      -0.2718
     46  CB        43.6530   25.4650   11.7220 C.3    37  VAL37       0.0266
     47  CG1       43.1590   25.1680   13.1260 C.3    37  VAL37       0.0020
     48  CG2       42.8850   26.6500   11.1750 C.3    37  VAL37       0.0020
     49  N         46.0890   24.4160    9.7700 N.am   38  THR38      -0.1939
     50  CA        46.3770   24.1720    8.3540 C.3    38  THR38       0.2028
     51  C         46.0090   22.7260    8.0740 C.2    38  THR38       0.2642
     52  O         45.9580   21.9290    9.0270 O.2    38  THR38      -0.2714
     53  CB        47.8940   24.2760    7.9850 C.3    38  THR38       0.1808
     54  OG1       48.6560   23.4210    8.8370 O.3    38  THR38      -0.2208
     55  CG2       48.4260   25.6770    8.1200 C.3    38  THR38       0.0379
     56  N         45.8060   22.3800    6.7920 N.am   39  ALA39      -0.1963
     57  CA        45.9040   20.9900    6.3420 C.3    39  ALA39       0.1728
     58  C         47.2930   20.7630    5.6510 C.2    39  ALA39       0.2616
     59  O         47.4970   19.8660    4.8150 O.2    39  ALA39      -0.2715
     60  CB        44.7340   20.6570    5.4630 C.3    39  ALA39       0.0334
     61  N         48.2600   21.5860    6.0690 N.am   40  THR40      -0.1951
     62  CA        49.5760   21.7820    5.3970 C.3    40  THR40       0.1897
     63  C         50.6910   20.8740    5.9900 C.2    40  THR40       0.2313
     64  O         50.9030   20.7700    7.2160 O.2    40  THR40      -0.2863
     65  CB        50.0010   23.3160    5.4120 C.3    40  THR40       0.1794
     66  OG1       49.3800   24.0750    4.3500 O.3    40  THR40      -0.2208
     67  CG2       51.4560   23.4970    5.2710 C.3    40  THR40       0.0378
     68  N         49.2770   33.6080    2.2700 N.3    70  TRP70      -0.1241
     69  CA        50.0330   32.5600    2.9880 C.3    70  TRP70       0.1605
     70  C         51.4300   32.4710    2.5000 C.2    70  TRP70       0.2264
     71  O         51.6750   32.4010    1.3160 O.2    70  TRP70      -0.2867
     72  CB        49.3310   31.2260    2.8840 C.3    70  TRP70       0.0550
     73  CG        47.9090   31.3890    3.3200 C.ar   70  TRP70       0.0003
     74  CD1       46.7640   31.3040    2.5400 C.ar   70  TRP70       0.0946
     75  CD2       47.4370   31.7390    4.6590 C.ar   70  TRP70       0.0152
     76  NE1       45.6510   31.5120    3.3000 N.ar   70  TRP70      -0.2442
     77  CE2       45.9780   31.8080    4.5700 C.ar   70  TRP70       0.0810
     78  CE3       48.0540   31.9800    5.8820 C.ar   70  TRP70       0.0012
     79  CZ2       45.1880   32.1340    5.6550 C.ar   70  TRP70       0.0191
     80  CZ3       47.2490   32.2940    6.9660 C.ar   70  TRP70       0.0001
     81  CH2       45.8390   32.3820    6.8420 C.ar   70  TRP70       0.0015
     82  N         53.4630   30.1300    3.7110 N.3    72  PHE72      -0.1227
     83  CA        53.8430   28.7270    3.7190 C.3    72  PHE72       0.1736
     84  C         53.1040   27.8510    2.6620 C.2    72  PHE72       0.2596
     85  O         53.2190   26.5950    2.6820 O.2    72  PHE72      -0.2718
     86  CB        53.6250   28.2400    5.1530 C.3    72  PHE72       0.0547
     87  CG        52.2010   28.4290    5.6680 C.ar   72  PHE72      -0.0202
     88  CD1       51.2720   27.3390    5.6650 C.ar   72  PHE72      -0.0042
     89  CD2       51.7770   29.6820    6.1640 C.ar   72  PHE72      -0.0042
     90  CE1       49.9870   27.5210    6.1410 C.ar   72  PHE72      -0.0003
     91  CE2       50.4980   29.8400    6.6550 C.ar   72  PHE72      -0.0003
     92  CZ        49.6140   28.7690    6.6340 C.ar   72  PHE72      -0.0000
     93  N         52.3960   28.5320    1.7290 N.am   73  SER73      -0.1938
     94  CA        51.3180   27.9660    0.8510 C.3    73  SER73       0.2055
     95  C         51.1200   28.6710   -0.5030 C.2    73  SER73       0.2643
     96  O         51.5120   29.8430   -0.6910 O.2    73  SER73      -0.2714
     97  CB        49.9570   27.9780    1.5760 C.3    73  SER73       0.2130
     98  OG        49.0100   27.1680    0.9090 O.3    73  SER73      -0.2179
     99  N         50.4970   27.9560   -1.4400 N.am   74  GLU74      -0.1963
    100  CA        50.2340   28.5360   -2.7230 C.3    74  GLU74       0.1733
    101  C         48.8510   29.1530   -2.7950 C.2    74  GLU74       0.2617
    102  O         48.4260   29.7010   -3.8010 O.2    74  GLU74      -0.2715
    103  CB        50.4880   27.5460   -3.8210 C.3    74  GLU74       0.0429
    104  CG        51.7400   27.8510   -4.6210 C.3    74  GLU74       0.1163
    105  CD        52.1710   26.6500   -5.4010 C.2    74  GLU74       0.3649
    106  OE1       52.3740   25.5960   -4.7520 O.co2  74  GLU74      -0.2457
    107  OE2       52.2800   26.7510   -6.6590 O.co2  74  GLU74      -0.2457
    108  N         48.1850   29.1080   -1.6690 N.am   75  SER75      -0.1950
    109  CA        46.8370   29.5580   -1.6230 C.3    75  SER75       0.1924
    110  C         46.7200   31.0100   -1.1050 C.2    75  SER75       0.2314
    111  O         47.7070   31.6630   -0.7380 O.2    75  SER75      -0.2863
    112  CB        45.9830   28.5720   -0.8030 C.3    75  SER75       0.2116
    113  OG        46.3100   28.5950    0.5810 O.3    75  SER75      -0.2180
    114  N         43.7340   33.3490    1.2250 N.3    77  THR77      -0.1218
    115  CA        42.4170   33.4600    1.8540 C.3    77  THR77       0.1862
    116  C         41.9300   34.9050    1.8420 C.2    77  THR77       0.2287
    117  O         42.6880   35.8240    2.1360 O.2    77  THR77      -0.2866
    118  CB        42.3560   32.8280    3.2490 C.3    77  THR77       0.1770
    119  OG1       42.7120   31.4490    3.1280 O.3    77  THR77      -0.2211
    120  CG2       40.9370   32.9120    3.8290 C.3    77  THR77       0.0375
    121  N         38.8480   37.3140    3.4940 N.3    79  PHE79      -0.1241
    122  CA        37.8990   37.3600    4.5970 C.3    79  PHE79       0.1605
    123  C         37.1320   38.6050    4.3700 C.2    79  PHE79       0.2264
    124  O         37.7130   39.6370    3.9650 O.2    79  PHE79      -0.2867
    125  CB        38.6510   37.6080    5.8850 C.3    79  PHE79       0.0534
    126  CG        39.3810   36.4290    6.4150 C.ar   79  PHE79      -0.0203
    127  CD1       40.6790   36.1230    5.9520 C.ar   79  PHE79      -0.0042
    128  CD2       38.8220   35.6640    7.4510 C.ar   79  PHE79      -0.0042
    129  CE1       41.3700   35.0360    6.4890 C.ar   79  PHE79      -0.0003
    130  CE2       39.5130   34.5690    7.9820 C.ar   79  PHE79      -0.0003
    131  CZ        40.7800   34.2470    7.4890 C.ar   79  PHE79      -0.0000
    132  N         35.0860   33.6460    4.9640 N.3    97  TRP97      -0.1241
    133  CA        36.2520   33.5350    4.1460 C.3    97  TRP97       0.1605
    134  C         36.0440   32.5620    3.0220 C.2    97  TRP97       0.2264
    135  O         35.1710   31.6940    3.0750 O.2    97  TRP97      -0.2867
    136  CB        37.4680   33.1620    4.9830 C.3    97  TRP97       0.0550
    137  CG        37.2760   31.9830    5.8840 C.ar   97  TRP97       0.0003
    138  CD1       36.9300   32.0100    7.2240 C.ar   97  TRP97       0.0946
    139  CD2       37.4160   30.5400    5.5520 C.ar   97  TRP97       0.0152
    140  NE1       36.8310   30.7210    7.7340 N.ar   97  TRP97      -0.2442
    141  CE2       37.1080   29.7990    6.7900 C.ar   97  TRP97       0.0810
    142  CE3       37.7330   29.8230    4.3960 C.ar   97  TRP97       0.0012
    143  CZ2       37.1740   28.4130    6.8690 C.ar   97  TRP97       0.0191
    144  CZ3       37.7920   28.4210    4.4900 C.ar   97  TRP97       0.0001
    145  CH2       37.5020   27.7410    5.7060 C.ar   97  TRP97       0.0015
    146  N         38.7660   30.2680    1.0570 N.3    99  LEU99      -0.1245
    147  CA        40.1500   29.8780    1.0380 C.3    99  LEU99       0.1561
    148  C         40.4040   29.2070   -0.3200 C.2    99  LEU99       0.2260
    149  O         39.8190   28.1390   -0.6180 O.2    99  LEU99      -0.2867
    150  CB        40.4090   28.9520    2.1790 C.3    99  LEU99       0.0270
    151  CG        41.5330   27.9850    1.9820 C.3    99  LEU99       0.0019
    152  CD1       42.8150   28.7270    1.6650 C.3    99  LEU99       0.0001
    153  CD2       41.6430   27.2310    3.2750 C.3    99  LEU99       0.0001
    154  N         42.6210   27.3110   -2.9580 N.3   101  SER101     -0.1217
    155  CA        43.7930   26.5020   -3.1810 C.3   101  SER101      0.1889
    156  C         44.2650   26.7270   -4.5850 C.2   101  SER101      0.2288
    157  O         43.5020   27.1980   -5.4610 O.2   101  SER101     -0.2866
    158  CB        43.4920   25.0380   -2.9730 C.3   101  SER101      0.2089
    159  OG        43.0580   24.8460   -1.6330 O.3   101  SER101     -0.2183
    160  N         37.3660   26.6400   -0.7080 N.3   114  ARG114     -0.1245
    161  CA        36.6960   26.3040    0.5000 C.3   114  ARG114      0.1563
    162  C         36.0740   27.5700    1.0970 C.2   114  ARG114      0.2260
    163  O         36.6300   28.6790    0.9620 O.2   114  ARG114     -0.2867
    164  CB        37.7160   25.7950    1.4650 C.3   114  ARG114      0.0307
    165  CG        38.1850   24.3750    1.2380 C.3   114  ARG114      0.0489
    166  CD        38.9110   24.0950    2.5370 C.3   114  ARG114      0.2205
    167  NE        39.3730   22.7220    2.6740 N.pl3 114  ARG114     -0.0865
    168  CZ        40.3030   22.1770    1.9010 C.cat 114  ARG114      0.5346
    169  NH1       40.8140   22.9020    0.8890 N.pl3 114  ARG114      0.1354
    170  NH2       40.6940   20.9180    2.1310 N.pl3 114  ARG114      0.1354
    171  N         34.7490   32.9190   10.4280 N.3   118  ASN118     -0.1240
    172  CA        35.4480   33.1580   11.6740 C.3   118  ASN118      0.1653
    173  C         34.8830   34.3220   12.4010 C.2   118  ASN118      0.2266
    174  O         34.4230   35.3110   11.7810 O.2   118  ASN118     -0.2867
    175  CB        36.9110   33.4420   11.4610 C.3   118  ASN118      0.1155
    176  CG        37.7030   32.1970   11.2980 C.2   118  ASN118      0.2627
    177  OD1       38.3410   32.0290   10.2450 O.2   118  ASN118     -0.2716
    178  ND2       37.6630   31.2750   12.3230 N.am  118  ASN118     -0.0877
@<TRIPOS>BOND
     1   107   105   ar
     2   157   156    2
     3   105   106   ar
     4   105   104    1
     5   104   103    1
     6   156   155    1
     7   103   100    1
     8   102   101    2
     9   155   158    1
    10   155   154    1
    11   158   159    1
    12   101   100    1
    13   101   108   am
    14   100    99    1
    15   108   109    1
    16   109   110    1
    17   109   112    1
    18    99    95   am
    19   110   111    2
    20   112   113    1
    21   160   161    1
    22    96    95    2
    23   149   148    2
    24    95    94    1
    25   148   147    1
    26   161   162    1
    27   161   164    1
    28    94    97    1
    29    94    93    1
    30   169   168    1
    31    98    97    1
    32   163   162    2
    33   147   146    1
    34   147   150    1
    35   114   115    1
    36   165   164    1
    37   165   166    1
    38    71    70    2
    39   152   151    1
    40    93    84   am
    41   116   115    1
    42   116   117    2
    43   115   118    1
    44   168   170    1
    45   168   167    2
    46   151   150    1
    47   151   153    1
    48    68    69    1
    49    70    69    1
    50   166   167    1
    51    74    76   ar
    52    74    73   ar
    53    84    85    2
    54    84    83    1
    55    72    69    1
    56    72    73    1
    57   134   135    2
    58   134   133    1
    59   119   118    1
    60   118   120    1
    61    76    77   ar
    62    73    75   ar
    63   121   122    1
    64    82    83    1
    65    83    86    1
    66   124   123    2
    67   133   132    1
    68   133   136    1
    69    66    65    1
    70   123   122    1
    71   142   144   ar
    72   142   139   ar
    73   144   145   ar
    74    77    75   ar
    75    77    79   ar
    76   122   125    1
    77    75    78   ar
    78    59    58    2
    79   136   137    1
    80    86    87    1
    81    67    65    1
    82    62    65    1
    83    62    63    1
    84    62    61    1
    85    60    57    1
    86   139   137   ar
    87   139   141   ar
    88    58    61   am
    89    58    57    1
    90    79    81   ar
    91    88    87   ar
    92    88    90   ar
    93    87    89   ar
    94   145   143   ar
    95    78    80   ar
    96   137   138   ar
    97   125   126    1
    98   127   126   ar
    99   127   129   ar
   100    63    64    2
   101    90    92   ar
   102    89    91   ar
   103    57    56    1
   104   126   128   ar
   105   129   131   ar
   106    92    91   ar
   107   141   143   ar
   108   141   140   ar
   109    56    51   am
   110    81    80   ar
   111   138   140   ar
   112   128   130   ar
   113   131   130   ar
   114    53    55    1
   115    53    50    1
   116    53    54    1
   117    51    50    1
   118    51    52    2
   119    50    49    1
   120    27    28    1
   121    27    24    1
   122    28    29   ar
   123    28    30   ar
   124    29    31   ar
   125    41    39    1
   126    45    44    2
   127    26    25    2
   128    23    24    1
   129    49    44   am
   130    30    32   ar
   131    31    33   ar
   132    39    40    1
   133    39    36    1
   134    24    25    1
   135   177   176    2
   136    33    32   ar
   137    33    34    1
   138    44    43    1
   139   171   172    1
   140    48    46    1
   141   176   175    1
   142   176   178   am
   143    35    36    1
   144   175   172    1
   145    36    37    1
   146   172   173    1
   147    43    46    1
   148    43    42    1
   149    46    47    1
   150   174   173    2
   151    15    14    1
   152    37    38    2
   153    22    21    1
   154     8     6   am
   155    14    16    1
   156    14    13    1
   157    21    18    1
   158    13    10    1
   159     6     5    1
   160     6     7    2
   161     5     2    1
   162    18    19    1
   163    18    17    1
   164    19    20    2
   165    10     9    1
   166    10    11    1
   167     2     1    1
   168     2     3    1
   169    11    12    2
   170     3     4    2
