@<TRIPOS>MOLECULE
tmp/4i60A00.pdb
 75 68 0 0 0
SMALL
GASTEIGER

@<TRIPOS>ATOM
      1  N         45.2280   43.8530   17.6210 N.3     9  LYS9       -0.1245
      2  CA        45.3330   42.4150   17.5820 C.3     9  LYS9        0.1561
      3  C         43.9990   41.7700   17.8770 C.2     9  LYS9        0.2260
      4  O         43.2060   42.2680   18.6780 O.2     9  LYS9       -0.2867
      5  CB        46.3680   41.9660   18.6260 C.3     9  LYS9        0.0271
      6  CG        47.0300   40.6360   18.2970 C.3     9  LYS9        0.0035
      7  CD        47.6890   40.1200   19.5420 C.3     9  LYS9        0.0206
      8  CE        48.7130   39.0290   19.2480 C.3     9  LYS9        0.1093
      9  NZ        49.2320   38.4690   20.5330 N.3     9  LYS9       -0.1314
     10  N         41.8300   37.7260   17.8450 N.3    11  THR11      -0.1218
     11  CA        41.9070   36.2800   17.8110 C.3    11  THR11       0.1862
     12  C         40.5990   35.7080   17.3240 C.2    11  THR11       0.2287
     13  O         39.5550   36.3590   17.4340 O.2    11  THR11      -0.2866
     14  CB        42.3150   35.6630   19.1830 C.3    11  THR11       0.1770
     15  OG1       42.4870   34.2350   19.0410 O.3    11  THR11      -0.2211
     16  CG2       41.2750   35.9330   20.3260 C.3    11  THR11       0.0375
     17  N         41.5840   29.9530   17.1300 N.3    15  GLY15      -0.1225
     18  CA        42.7850   30.2060   17.9000 C.3    15  GLY15       0.1811
     19  C         43.7190   31.0200   17.0380 C.2    15  GLY15       0.2280
     20  O         44.8100   31.3370   17.4430 O.2    15  GLY15      -0.2866
     21  N         45.3630   34.1300   15.2260 N.3    17  ASN17      -0.1240
     22  CA        45.5540   35.5120   15.6750 C.3    17  ASN17       0.1653
     23  C         45.7580   36.3540   14.4160 C.2    17  ASN17       0.2266
     24  O         46.1860   35.8130   13.3720 O.2    17  ASN17      -0.2867
     25  CB        46.8260   35.6250   16.5430 C.3    17  ASN17       0.1155
     26  CG        46.6190   35.2540   18.0110 C.2    17  ASN17       0.2627
     27  OD1       45.4970   35.1510   18.5360 O.2    17  ASN17      -0.2716
     28  ND2       47.7320   35.1310   18.7030 N.am   17  ASN17      -0.0877
     29  N         48.4350   34.8790   11.7140 N.3    34  THR34      -0.1203
     30  CA        49.0360   33.6310   12.1130 C.3    34  THR34       0.1994
     31  C         47.8670   32.6930   12.2690 C.2    34  THR34       0.2619
     32  O         46.9900   32.8670   13.1700 O.2    34  THR34      -0.2717
     33  CB        49.8110   33.7030   13.4350 C.3    34  THR34       0.1784
     34  OG1       50.4830   34.9640   13.5580 O.3    34  THR34      -0.2211
     35  CG2       50.8570   32.5890   13.5020 C.3    34  THR34       0.0376
     36  N         47.8120   31.7040   11.3870 N.am   35  THR35      -0.1938
     37  CA        46.7310   30.7410   11.4890 C.3    35  THR35       0.2028
     38  C         47.1400   29.6810   12.5130 C.2    35  THR35       0.2642
     39  O         48.2790   29.2770   12.5150 O.2    35  THR35      -0.2714
     40  CB        46.3910   30.0780   10.1590 C.3    35  THR35       0.1808
     41  OG1       45.3910   29.0700   10.4110 O.3    35  THR35      -0.2208
     42  CG2       47.6040   29.4250    9.5810 C.3    35  THR35       0.0379
     43  N         46.2290   29.2970   13.4050 N.am   36  ALA36      -0.1977
     44  CA        46.4170   28.1910   14.3240 C.3    36  ALA36       0.1597
     45  C         46.1520   26.8480   13.6070 C.2    36  ALA36       0.2287
     46  O         46.3920   25.7570   14.1700 O.2    36  ALA36      -0.2864
     47  CB        45.4980   28.3680   15.5200 C.3    36  ALA36       0.0319
     48  N         42.4690   40.9840   21.2020 N.3   123  LEU123     -0.1231
     49  CA        43.4910   40.6300   22.2090 C.3   123  LEU123      0.1693
     50  C         44.2610   41.8460   22.7160 C.2   123  LEU123      0.2591
     51  O         44.4690   42.7960   21.9850 O.2   123  LEU123     -0.2718
     52  CB        44.4950   39.6410   21.6430 C.3   123  LEU123      0.0284
     53  CG        44.0160   38.2120   21.5810 C.3   123  LEU123      0.0019
     54  CD1       45.0600   37.3980   20.8350 C.3   123  LEU123      0.0001
     55  CD2       43.7920   37.6940   22.9790 C.3   123  LEU123      0.0001
     56  N         44.6990   41.8140   23.9580 N.am  124  ARG124     -0.1980
     57  CA        45.6070   42.8600   24.4500 C.3   124  ARG124      0.1597
     58  C         46.8160   43.0270   23.5080 C.2   124  ARG124      0.2287
     59  O         47.4890   42.0770   23.1750 O.2   124  ARG124     -0.2864
     60  CB        46.0980   42.5420   25.8520 C.3   124  ARG124      0.0334
     61  CG        45.0360   42.6530   26.9300 C.3   124  ARG124      0.0492
     62  CD        45.6230   42.1740   28.2480 C.3   124  ARG124      0.2205
     63  NE        46.1730   40.8180   28.1100 N.pl3 124  ARG124     -0.0865
     64  CZ        47.1230   40.2840   28.8830 C.cat 124  ARG124      0.5346
     65  NH1       47.6840   40.9720   29.8910 N.pl3 124  ARG124      0.1354
     66  NH2       47.5060   39.0350   28.6340 N.pl3 124  ARG124      0.1354
     67  N         51.5570   43.0100   26.2460 N.3   127  LYS127     -0.1245
     68  CA        51.9460   41.7380   26.8890 C.3   127  LYS127      0.1561
     69  C         52.4750   41.9690   28.3250 C.2   127  LYS127      0.2260
     70  O         52.9590   43.0790   28.6760 O.2   127  LYS127     -0.2867
     71  CB        53.0080   40.9670   26.0710 C.3   127  LYS127      0.0271
     72  CG        52.6410   40.6160   24.6210 C.3   127  LYS127      0.0035
     73  CD        53.8940   40.2610   23.8120 C.3   127  LYS127      0.0206
     74  CE        53.6410   39.2070   22.7420 C.3   127  LYS127      0.1093
     75  NZ        52.5530   39.5270   21.7460 N.3   127  LYS127     -0.1314
@<TRIPOS>BOND
     1    42    40    1
     2    40    41    1
     3    40    37    1
     4    36    37    1
     5    36    31   am
     6    37    38    1
     7    29    30    1
     8    30    31    1
     9    30    33    1
    10    31    32    2
    11    38    39    2
    12    38    43   am
    13    24    23    2
    14    43    44    1
    15    33    35    1
    16    33    34    1
    17    45    46    2
    18    45    44    1
    19    44    47    1
    20    23    22    1
    21    21    22    1
    22    22    25    1
    23    25    26    1
    24    19    20    2
    25    19    18    1
    26    17    18    1
    27    12    13    2
    28    12    11    1
    29     2     1    1
    30     2     3    1
    31     2     5    1
    32    11    10    1
    33    11    14    1
    34     3     4    2
    35    26    27    2
    36    26    28   am
    37     6     5    1
    38     6     7    1
    39    15    14    1
    40    14    16    1
    41     8     7    1
    42     8     9    1
    43    54    53    1
    44    48    49    1
    45    53    52    1
    46    53    55    1
    47    52    49    1
    48    75    74    1
    49    51    50    2
    50    49    50    1
    51    50    56   am
    52    74    73    1
    53    59    58    2
    54    58    57    1
    55    73    72    1
    56    56    57    1
    57    57    60    1
    58    72    71    1
    59    60    61    1
    60    71    68    1
    61    67    68    1
    62    68    69    1
    63    61    62    1
    64    63    62    1
    65    63    64    2
    66    69    70    2
    67    66    64    1
    68    64    65    1
