@<TRIPOS>MOLECULE
tmp/4i62A00.pdb
 134 126 0 0 0
SMALL
GASTEIGER

@<TRIPOS>ATOM
      1  N         19.8040   27.1840   38.3540 N.3    15  ASN15      -0.1240
      2  CA        20.8880   28.1590   38.2650 C.3    15  ASN15       0.1653
      3  C         20.2940   29.5190   37.8990 C.2    15  ASN15       0.2266
      4  O         19.9130   29.7330   36.7330 O.2    15  ASN15      -0.2867
      5  CB        21.8770   27.7060   37.2030 C.3    15  ASN15       0.1155
      6  CG        22.8970   28.7820   36.9030 C.2    15  ASN15       0.2627
      7  OD1       23.0280   29.2470   35.7510 O.2    15  ASN15      -0.2716
      8  ND2       23.5700   29.2460   37.9450 N.am   15  ASN15      -0.0877
      9  N         19.4610   33.3130   34.2320 N.3    18  PHE18      -0.1241
     10  CA        18.8410   32.7740   33.0270 C.3    18  PHE18       0.1605
     11  C         17.4450   33.3920   32.8490 C.2    18  PHE18       0.2264
     12  O         16.4480   32.6840   32.6770 O.2    18  PHE18      -0.2867
     13  CB        18.8040   31.2290   33.1240 C.3    18  PHE18       0.0534
     14  CG        18.7250   30.5100   31.8070 C.ar   18  PHE18      -0.0203
     15  CD1       19.7910   30.5370   30.9420 C.ar   18  PHE18      -0.0042
     16  CD2       17.5960   29.7770   31.4390 C.ar   18  PHE18      -0.0042
     17  CE1       19.7460   29.8320   29.7380 C.ar   18  PHE18      -0.0003
     18  CE2       17.5440   29.0760   30.2610 C.ar   18  PHE18      -0.0003
     19  CZ        18.6230   29.0980   29.3890 C.ar   18  PHE18      -0.0000
     20  N         14.7970   31.9380   35.2820 N.3    22  GLU22      -0.1245
     21  CA        15.2240   32.1460   36.6780 C.3    22  GLU22       0.1567
     22  C         16.3520   33.1660   36.6830 C.2    22  GLU22       0.2260
     23  O         17.2850   33.0590   35.8780 O.2    22  GLU22      -0.2867
     24  CB        15.6550   30.8460   37.3610 C.3    22  GLU22       0.0388
     25  CG        16.6310   29.9910   36.5530 C.3    22  GLU22       0.1160
     26  CD        15.9590   29.0600   35.5750 C.2    22  GLU22       0.3649
     27  OE1       14.8050   28.6500   35.9330 O.co2  22  GLU22      -0.2457
     28  OE2       16.5300   28.6930   34.5110 O.co2  22  GLU22      -0.2457
     29  N         24.9410   25.8370   36.9580 N.3    59  PHE59      -0.1241
     30  CA        24.1400   25.0110   36.0600 C.3    59  PHE59       0.1605
     31  C         24.7350   23.6220   35.8630 C.2    59  PHE59       0.2264
     32  O         24.0090   22.6150   35.8110 O.2    59  PHE59      -0.2867
     33  CB        23.8860   25.6560   34.7130 C.3    59  PHE59       0.0534
     34  CG        22.9930   24.8050   33.8450 C.ar   59  PHE59      -0.0203
     35  CD1       21.6330   24.7100   34.1370 C.ar   59  PHE59      -0.0042
     36  CD2       23.4870   24.0340   32.7860 C.ar   59  PHE59      -0.0042
     37  CE1       20.8070   23.9120   33.3920 C.ar   59  PHE59      -0.0003
     38  CE2       22.6550   23.2260   32.0640 C.ar   59  PHE59      -0.0003
     39  CZ        21.3030   23.1760   32.3440 C.ar   59  PHE59      -0.0000
     40  N         14.9780   24.5560   35.4490 N.3    76  SER76      -0.1202
     41  CA        16.1030   25.4530   35.2680 C.3    76  SER76       0.2020
     42  C         16.3640   25.6840   33.7820 C.2    76  SER76       0.2619
     43  O         17.5360   25.7320   33.3470 O.2    76  SER76      -0.2717
     44  CB        17.3520   24.8960   35.9660 C.3    76  SER76       0.2103
     45  OG        18.4000   25.8640   36.1140 O.3    76  SER76      -0.2182
     46  N         15.2950   25.7880   32.9970 N.am   77  GLY77      -0.1942
     47  CA        15.4540   25.9350   31.5560 C.3    77  GLY77       0.2014
     48  C         16.1700   24.7420   30.9370 C.2    77  GLY77       0.2639
     49  O         16.9560   24.9090   30.0070 O.2    77  GLY77      -0.2714
     50  N         15.8690   23.5440   31.4250 N.am   78  VAL78      -0.1963
     51  CA        16.5850   22.3300   31.0200 C.3    78  VAL78       0.1727
     52  C         16.0430   21.7470   29.7160 C.2    78  VAL78       0.2616
     53  O         14.8430   21.3810   29.6460 O.2    78  VAL78      -0.2715
     54  CB        16.5190   21.2410   32.1180 C.3    78  VAL78       0.0290
     55  CG1       17.2450   19.9830   31.6880 C.3    78  VAL78       0.0023
     56  CG2       17.0610   21.7480   33.4230 C.3    78  VAL78       0.0023
     57  N         16.8800   21.6590   28.6930 N.am   79  SER79      -0.1950
     58  CA        16.4990   21.0430   27.4540 C.3    79  SER79       0.1924
     59  C         16.4840   19.5280   27.5540 C.2    79  SER79       0.2314
     60  O         17.3990   18.8820   28.0930 O.2    79  SER79      -0.2863
     61  CB        17.5440   21.4020   26.3950 C.3    79  SER79       0.2116
     62  OG        17.6430   22.8140   26.1910 O.3    79  SER79      -0.2180
     63  N         20.3290   12.8220   28.0540 N.3    84  ARG84      -0.1245
     64  CA        19.7090   13.0890   29.3360 C.3    84  ARG84       0.1563
     65  C         18.5090   12.1720   29.6250 C.2    84  ARG84       0.2260
     66  O         18.3090   11.7770   30.7740 O.2    84  ARG84      -0.2867
     67  CB        19.3100   14.5610   29.4240 C.3    84  ARG84       0.0307
     68  CG        20.5110   15.5280   29.5630 C.3    84  ARG84       0.0489
     69  CD        20.0620   16.9820   29.3780 C.3    84  ARG84       0.2205
     70  NE        21.1800   17.9270   29.4880 N.pl3  84  ARG84      -0.0865
     71  CZ        21.0500   19.2340   29.4020 C.cat  84  ARG84       0.5346
     72  NH1       19.8590   19.7700   29.1340 N.pl3  84  ARG84       0.1354
     73  NH2       22.1310   20.0200   29.5620 N.pl3  84  ARG84       0.1354
     74  N         27.7500   28.2510   28.0250 N.3   125  GLN125     -0.1245
     75  CA        27.7340   27.8900   29.4380 C.3   125  GLN125      0.1566
     76  C         28.1600   26.4390   29.6400 C.2   125  GLN125      0.2260
     77  O         27.6820   25.5130   28.9690 O.2   125  GLN125     -0.2867
     78  CB        26.3540   28.1450   30.0570 C.3   125  GLN125      0.0367
     79  CG        26.3680   27.8210   31.5820 C.3   125  GLN125      0.0905
     80  CD        25.1010   28.1870   32.3350 C.2   125  GLN125      0.2608
     81  OE1       24.0010   27.9020   31.8870 O.2   125  GLN125     -0.2717
     82  NE2       25.2460   28.7890   33.4900 N.am  125  GLN125     -0.0878
     83  N         25.9270   23.0250   29.3290 N.3   128  SER128     -0.1202
     84  CA        24.7280   23.2800   28.5180 C.3   128  SER128      0.2020
     85  C         24.7720   22.5460   27.1800 C.2   128  SER128      0.2619
     86  O         25.8520   22.1910   26.6670 O.2   128  SER128     -0.2717
     87  CB        24.5850   24.7830   28.2570 C.3   128  SER128      0.2103
     88  OG        25.5630   25.2640   27.3350 O.3   128  SER128     -0.2182
     89  N         23.5970   22.4080   26.5540 N.am  129  ILE129     -0.1965
     90  CA        23.5720   21.8570   25.2150 C.3   129  ILE129      0.1727
     91  C         24.2010   22.8100   24.1990 C.2   129  ILE129      0.2616
     92  O         24.6280   22.3790   23.1230 O.2   129  ILE129     -0.2715
     93  CB        22.1590   21.4120   24.7800 C.3   129  ILE129      0.0290
     94  CG1       21.2140   22.5820   24.5590 C.3   129  ILE129      0.0022
     95  CG2       21.5450   20.4260   25.7810 C.3   129  ILE129      0.0023
     96  CD1       20.0210   22.2190   23.7030 C.3   129  ILE129      0.0001
     97  N         24.2770   24.0840   24.5270 N.am  130  GLN130     -0.1977
     98  CA        24.9660   25.0410   23.6680 C.3   130  GLN130      0.1601
     99  C         26.4550   24.7440   23.6310 C.2   130  GLN130      0.2287
    100  O         27.0940   24.8710   22.5640 O.2   130  GLN130     -0.2864
    101  CB        24.7190   26.4670   24.1710 C.3   130  GLN130      0.0394
    102  CG        23.2890   26.9810   23.9080 C.3   130  GLN130      0.0908
    103  CD        22.2260   26.2590   24.7150 C.2   130  GLN130      0.2608
    104  OE1       22.4080   25.9290   25.9000 O.2   130  GLN130     -0.2717
    105  NE2       21.0930   26.0100   24.0910 N.am  130  GLN130     -0.0878
    106  N         26.7300   32.4440   33.3430 N.3   149  ASN149     -0.1240
    107  CA        26.3020   33.2370   32.1820 C.3   149  ASN149      0.1653
    108  C         26.7510   34.6820   32.2720 C.2   149  ASN149      0.2266
    109  O         27.0950   35.2980   31.2470 O.2   149  ASN149     -0.2867
    110  CB        24.8040   33.1440   31.9920 C.3   149  ASN149      0.1155
    111  CG        24.3690   31.7600   31.5670 C.2   149  ASN149      0.2627
    112  OD1       25.0520   31.1040   30.7620 O.2   149  ASN149     -0.2716
    113  ND2       23.2210   31.3010   32.0630 N.am  149  ASN149     -0.0877
    114  N         19.9210   30.4360   23.9320 N.3   167  GLU167     -0.1245
    115  CA        18.5470   30.3270   23.4460 C.3   167  GLU167      0.1567
    116  C         17.8970   31.7170   23.3690 C.2   167  GLU167      0.2260
    117  O         18.1660   32.5930   24.2050 O.2   167  GLU167     -0.2867
    118  CB        17.7700   29.3550   24.3340 C.3   167  GLU167      0.0388
    119  CG        18.2270   27.9070   24.0330 C.3   167  GLU167      0.1160
    120  CD        18.2400   26.9260   25.2110 C.2   167  GLU167      0.3649
    121  OE1       18.3480   27.3510   26.3890 O.co2 167  GLU167     -0.2457
    122  OE2       18.2360   25.7090   24.9410 O.co2 167  GLU167     -0.2457
    123  N         12.2140   22.6590   26.5610 N.3   195  TYR195     -0.1241
    124  CA        12.4820   22.6410   27.9790 C.3   195  TYR195      0.1605
    125  C         11.4780   21.7260   28.7030 C.2   195  TYR195      0.2264
    126  O         10.3020   21.6730   28.3460 O.2   195  TYR195     -0.2867
    127  CB        12.3350   24.0280   28.6050 C.3   195  TYR195      0.0534
    128  CG        13.3080   25.0850   28.2090 C.ar  195  TYR195     -0.0201
    129  CD1       14.3920   24.8280   27.3860 C.ar  195  TYR195     -0.0009
    130  CD2       13.1120   26.3830   28.6860 C.ar  195  TYR195     -0.0009
    131  CE1       15.2900   25.8720   27.0440 C.ar  195  TYR195      0.0417
    132  CE2       13.9760   27.4070   28.3540 C.ar  195  TYR195      0.0417
    133  CZ        15.0510   27.1490   27.5330 C.ar  195  TYR195      0.1957
    134  OH        15.9040   28.2070   27.2490 O.3   195  TYR195     -0.2866
@<TRIPOS>BOND
     1   100    99    2
     2    92    91    2
     3   116   115    1
     4   116   117    2
     5   115   114    1
     6   115   118    1
     7    99    98    1
     8    98   101    1
     9    98    97    1
    10    96    94    1
    11   102   101    1
    12   102   103    1
    13   119   118    1
    14   119   120    1
    15   105   103   am
    16    91    97   am
    17    91    90    1
    18    94    93    1
    19   103   104    2
    20    93    90    1
    21    93    95    1
    22   122   120   ar
    23   120   121   ar
    24    90    89    1
    25    62    61    1
    26    61    58    1
    27    89    85   am
    28   123   124    1
    29    86    85    2
    30   131   129   ar
    31   131   133   ar
    32    85    84    1
    33   134   133    1
    34    88    87    1
    35   129   128   ar
    36    58    59    1
    37    58    57    1
    38   133   132   ar
    39    59    60    2
    40   124   127    1
    41   124   125    1
    42    74    75    1
    43    63    64    1
    44   128   127    1
    45   128   130   ar
    46    87    84    1
    47   126   125    2
    48   132   130   ar
    49    84    83    1
    50    57    52   am
    51    77    76    2
    52    72    71    1
    53    64    67    1
    54    64    65    1
    55    69    70    1
    56    69    68    1
    57    19    17   ar
    58    19    18   ar
    59    71    70    2
    60    71    73    1
    61    67    68    1
    62    75    76    1
    63    75    78    1
    64    65    66    2
    65    53    52    2
    66    52    51    1
    67    17    15   ar
    68    49    48    2
    69    78    79    1
    70    18    16   ar
    71   112   111    2
    72    48    50   am
    73    48    47    1
    74    15    14   ar
    75    51    50    1
    76    51    54    1
    77   109   108    2
    78    16    14   ar
    79    47    46    1
    80   111   110    1
    81   111   113   am
    82    79    80    1
    83    55    54    1
    84    14    13    1
    85    81    80    2
    86   110   107    1
    87    38    39   ar
    88    38    36   ar
    89    54    56    1
    90   107   108    1
    91   107   106    1
    92    80    82   am
    93    39    37   ar
    94    12    11    2
    95    36    34   ar
    96    11    10    1
    97    46    42   am
    98    10    13    1
    99    10     9    1
   100    43    42    2
   101    37    35   ar
   102    42    41    1
   103    34    35   ar
   104    34    33    1
   105    28    26   ar
   106    33    30    1
   107    41    40    1
   108    41    44    1
   109    20    21    1
   110    26    27   ar
   111    26    25    1
   112     7     6    2
   113    32    31    2
   114    31    30    1
   115    23    22    2
   116    44    45    1
   117    30    29    1
   118    25    24    1
   119    21    22    1
   120    21    24    1
   121     4     3    2
   122     6     5    1
   123     6     8   am
   124     5     2    1
   125     3     2    1
   126     2     1    1
