@<TRIPOS>MOLECULE
tmp/4i67A00.pdb
 127 122 0 0 0
SMALL
GASTEIGER

@<TRIPOS>ATOM
      1  N         29.4860  -11.1900   -9.3410 N.3     7  THR7       -0.1218
      2  CA        28.4980  -12.1680   -9.7590 C.3     7  THR7        0.1862
      3  C         27.5070  -12.2700   -8.6150 C.2     7  THR7        0.2287
      4  O         27.6150  -11.5440   -7.6330 O.2     7  THR7       -0.2866
      5  CB        29.1390  -13.5440   -9.9400 C.3     7  THR7        0.1770
      6  OG1       30.4980  -13.3880  -10.3620 O.3     7  THR7       -0.2211
      7  CG2       28.3710  -14.3600  -10.9730 C.3     7  THR7        0.0375
      8  N         27.0880  -15.4240   -7.4590 N.3     9  GLU9       -0.1245
      9  CA        27.3100  -16.8160   -7.0700 C.3     9  GLU9        0.1567
     10  C         27.8540  -17.0430   -5.6580 C.2     9  GLU9        0.2260
     11  O         28.7620  -16.3490   -5.2030 O.2     9  GLU9       -0.2867
     12  CB        28.1670  -17.5350   -8.1110 C.3     9  GLU9        0.0388
     13  CG        29.4590  -16.8390   -8.4190 C.3     9  GLU9        0.1160
     14  CD        30.2760  -17.5970   -9.4320 C.2     9  GLU9        0.3649
     15  OE1       29.8650  -18.7220   -9.8020 O.co2   9  GLU9       -0.2457
     16  OE2       31.3250  -17.0630   -9.8560 O.co2   9  GLU9       -0.2457
     17  N         31.9260  -17.0680   -2.9410 N.3    12  TRP12      -0.1241
     18  CA        32.9310  -16.0520   -3.1780 C.3    12  TRP12       0.1605
     19  C         32.8140  -14.9140   -2.1890 C.2    12  TRP12       0.2264
     20  O         31.7570  -14.6930   -1.5960 O.2    12  TRP12      -0.2867
     21  CB        32.8430  -15.5350   -4.6130 C.3    12  TRP12       0.0550
     22  CG        33.1110  -16.6220   -5.6010 C.ar   12  TRP12       0.0003
     23  CD1       32.1860  -17.3310   -6.3090 C.ar   12  TRP12       0.0946
     24  CD2       34.3910  -17.1630   -5.9620 C.ar   12  TRP12       0.0152
     25  NE1       32.8080  -18.2660   -7.1000 N.ar   12  TRP12      -0.2442
     26  CE2       34.1590  -18.1850   -6.9030 C.ar   12  TRP12       0.0810
     27  CE3       35.7060  -16.8710   -5.5860 C.ar   12  TRP12       0.0012
     28  CZ2       35.1960  -18.9210   -7.4750 C.ar   12  TRP12       0.0191
     29  CZ3       36.7340  -17.6050   -6.1510 C.ar   12  TRP12       0.0001
     30  CH2       36.4730  -18.6200   -7.0860 C.ar   12  TRP12       0.0015
     31  N         51.6030   -0.1500  -10.1390 N.3    21  ARG21      -0.1245
     32  CA        51.9040   -1.0790  -11.2380 C.3    21  ARG21       0.1563
     33  C         50.8960   -2.2340  -11.2840 C.2    21  ARG21       0.2260
     34  O         51.2210   -3.3650  -11.6460 O.2    21  ARG21      -0.2867
     35  CB        53.3510   -1.5930  -11.1440 C.3    21  ARG21       0.0307
     36  CG        53.9750   -2.0500  -12.4690 C.3    21  ARG21       0.0489
     37  CD        55.5040   -2.0190  -12.4140 C.3    21  ARG21       0.2205
     38  NE        56.1030   -3.3450  -12.5540 N.pl3  21  ARG21      -0.0865
     39  CZ        56.5190   -4.0950  -11.5370 C.cat  21  ARG21       0.5346
     40  NH1       57.0550   -5.2880  -11.7660 N.pl3  21  ARG21       0.1354
     41  NH2       56.4060   -3.6550  -10.2930 N.pl3  21  ARG21       0.1354
     42  N         45.4640   -6.3780  -14.5890 N.3    24  LEU24      -0.1231
     43  CA        44.7220   -7.6170  -14.3830 C.3    24  LEU24       0.1678
     44  C         45.6560   -8.8260  -14.3640 C.2    24  LEU24       0.2434
     45  O         45.6770   -9.5560  -13.3780 O.2    24  LEU24      -0.2733
     46  CB        43.5630   -7.8000  -15.3780 C.3    24  LEU24       0.0284
     47  CG        42.5610   -8.9240  -15.0610 C.3    24  LEU24       0.0019
     48  CD1       41.1730   -8.6080  -15.5870 C.3    24  LEU24       0.0001
     49  CD2       43.0150  -10.2440  -15.6350 C.3    24  LEU24       0.0001
     50  N         46.4520   -9.0180  -15.4290 N.am   25  PRO25      -0.2718
     51  CA        47.2990  -10.2150  -15.4300 C.3    25  PRO25       0.1535
     52  C         48.2420  -10.2900  -14.2330 C.2    25  PRO25       0.2598
     53  O         48.4100  -11.3730  -13.6710 O.2    25  PRO25      -0.2715
     54  CB        48.1110  -10.0750  -16.7280 C.3    25  PRO25       0.0310
     55  CG        47.3280   -9.1160  -17.5880 C.3    25  PRO25       0.0237
     56  CD        46.7050   -8.1660  -16.6100 C.3    25  PRO25       0.0939
     57  N         48.8350   -9.1680  -13.8410 N.am   26  ARG26      -0.1978
     58  CA        49.7790   -9.1860  -12.7320 C.3    26  ARG26       0.1597
     59  C         49.0440   -9.4930  -11.4400 C.2    26  ARG26       0.2287
     60  O         49.5120  -10.2780  -10.6200 O.2    26  ARG26      -0.2864
     61  CB        50.5430   -7.8710  -12.6360 C.3    26  ARG26       0.0334
     62  CG        51.3770   -7.7170  -11.3920 C.3    26  ARG26       0.0492
     63  CD        52.4370   -6.6510  -11.5900 C.3    26  ARG26       0.2205
     64  NE        52.5820   -5.7950  -10.4170 N.pl3  26  ARG26      -0.0865
     65  CZ        53.4750   -5.9880   -9.4530 C.cat  26  ARG26       0.5346
     66  NH1       54.3100   -7.0140   -9.5130 N.pl3  26  ARG26       0.1354
     67  NH2       53.5350   -5.1510   -8.4260 N.pl3  26  ARG26       0.1354
     68  N         46.3830  -11.2570  -11.0950 N.3    28  VAL28      -0.1231
     69  CA        46.0080  -12.6620  -11.1260 C.3    28  VAL28       0.1692
     70  C         47.2300  -13.5270  -10.8570 C.2    28  VAL28       0.2592
     71  O         47.1300  -14.5790  -10.2380 O.2    28  VAL28      -0.2718
     72  CB        45.3600  -13.0340  -12.4870 C.3    28  VAL28       0.0266
     73  CG1       45.2210  -14.5560  -12.6620 C.3    28  VAL28       0.0020
     74  CG2       44.0100  -12.3760  -12.6030 C.3    28  VAL28       0.0020
     75  N         48.3880  -13.0660  -11.3140 N.am   29  ALA29      -0.1966
     76  CA        49.6180  -13.8130  -11.1300 C.3    29  ALA29       0.1728
     77  C         50.0280  -13.8030   -9.6620 C.2    29  ALA29       0.2616
     78  O         50.4380  -14.8380   -9.1200 O.2    29  ALA29      -0.2715
     79  CB        50.7250  -13.2470  -11.9960 C.3    29  ALA29       0.0334
     80  N         49.9110  -12.6410   -9.0210 N.am   30  LEU30      -0.1977
     81  CA        50.2960  -12.5120   -7.6200 C.3    30  LEU30       0.1596
     82  C         49.4330  -13.4000   -6.7280 C.2    30  LEU30       0.2287
     83  O         49.9410  -14.0990   -5.8500 O.2    30  LEU30      -0.2864
     84  CB        50.2090  -11.0610   -7.1690 C.3    30  LEU30       0.0297
     85  CG        51.1250  -10.1490   -7.9800 C.3    30  LEU30       0.0022
     86  CD1       50.8660   -8.6800   -7.6640 C.3    30  LEU30       0.0001
     87  CD2       52.5770  -10.5100   -7.7500 C.3    30  LEU30       0.0001
     88  N         47.4830  -16.1210   -7.6350 N.3    32  LYS32      -0.1231
     89  CA        47.6550  -17.5330   -7.9350 C.3    32  LYS32       0.1693
     90  C         49.0260  -18.0260   -7.4850 C.2    32  LYS32       0.2592
     91  O         49.2200  -19.2310   -7.2210 O.2    32  LYS32      -0.2718
     92  CB        47.4470  -17.8030   -9.4280 C.3    32  LYS32       0.0285
     93  CG        45.9880  -17.9850   -9.8110 C.3    32  LYS32       0.0035
     94  CD        45.8590  -18.5850  -11.1950 C.3    32  LYS32       0.0206
     95  CE        44.5330  -19.3060  -11.3620 C.3    32  LYS32       0.1093
     96  NZ        44.3980  -19.8720  -12.7300 N.3    32  LYS32      -0.1314
     97  N         49.9640  -17.0830   -7.3930 N.am   33  GLY33      -0.1957
     98  CA        51.2890  -17.3540   -6.8640 C.3    33  GLY33       0.1869
     99  C         51.2480  -17.7020   -5.3860 C.2    33  GLY33       0.2309
    100  O         52.0630  -18.4920   -4.9110 O.2    33  GLY33      -0.2863
    101  N         41.1190  -17.8670   -7.9540 N.3    38  VAL38      -0.1231
    102  CA        40.6040  -16.5310   -8.2680 C.3    38  VAL38       0.1692
    103  C         39.3650  -16.5020   -9.1580 C.2    38  VAL38       0.2593
    104  O         39.3700  -17.0280  -10.2600 O.2    38  VAL38      -0.2718
    105  CB        41.6800  -15.6490   -8.9030 C.3    38  VAL38       0.0266
    106  CG1       41.1110  -14.2790   -9.1880 C.3    38  VAL38       0.0020
    107  CG2       42.8960  -15.5480   -7.9900 C.3    38  VAL38       0.0020
    108  N         38.3080  -15.8540   -8.6840 N.am   39  GLY39      -0.1942
    109  CA        37.0520  -15.8230   -9.4140 C.3    39  GLY39       0.2014
    110  C         36.9710  -14.6670  -10.3900 C.2    39  GLY39       0.2639
    111  O         37.9450  -14.3430  -11.0580 O.2    39  GLY39      -0.2714
    112  N         35.8060  -14.0360  -10.4620 N.am   40  LYS40      -0.1963
    113  CA        35.6330  -12.8560  -11.2940 C.3    40  LYS40       0.1728
    114  C         36.5530  -11.7250  -10.8500 C.2    40  LYS40       0.2616
    115  O         36.6410  -11.4350   -9.6650 O.2    40  LYS40      -0.2715
    116  CB        34.1940  -12.3630  -11.2130 C.3    40  LYS40       0.0311
    117  CG        33.9470  -11.1430  -12.0730 C.3    40  LYS40       0.0038
    118  CD        34.0460  -11.5010  -13.5530 C.3    40  LYS40       0.0206
    119  CE        33.6900  -10.3310  -14.4600 C.3    40  LYS40       0.1093
    120  NZ        33.6070  -10.7770  -15.8750 N.3    40  LYS40      -0.1314
    121  N         37.2330  -11.0970  -11.8040 N.am   41  VAL41      -0.1977
    122  CA        37.9940   -9.8730  -11.5560 C.3    41  VAL41       0.1596
    123  C         37.3940   -8.7650  -12.4000 C.2    41  VAL41       0.2287
    124  O         37.0520   -8.9870  -13.5580 O.2    41  VAL41      -0.2864
    125  CB        39.4730  -10.0090  -11.9620 C.3    41  VAL41       0.0276
    126  CG1       40.1870   -8.6730  -11.8200 C.3    41  VAL41       0.0022
    127  CG2       40.1520  -11.0460  -11.1200 C.3    41  VAL41       0.0022
@<TRIPOS>BOND
     1    55    54    1
     2    55    56    1
     3    54    51    1
     4    56    50    1
     5   120   119    1
     6    49    47    1
     7    48    47    1
     8    51    50    1
     9    51    52    1
    10    50    44   am
    11    46    47    1
    12    46    43    1
    13    42    43    1
    14   119   118    1
    15    43    44    1
    16    44    45    2
    17    52    57   am
    18    52    53    2
    19    57    58    1
    20   124   123    2
    21   118   117    1
    22    58    61    1
    23    58    59    1
    24    96    95    1
    25    73    72    1
    26    61    62    1
    27    74    72    1
    28    38    37    1
    29    38    39    2
    30    72    69    1
    31    36    37    1
    32    36    35    1
    33   123   122    1
    34   117   116    1
    35    79    76    1
    36   125   126    1
    37   125   122    1
    38   125   127    1
    39   121   122    1
    40   121   114   am
    41    40    39    1
    42    34    33    2
    43    63    62    1
    44    63    64    1
    45    39    41    1
    46    59    60    2
    47    95    94    1
    48    75    76    1
    49    75    70   am
    50   113   116    1
    51   113   114    1
    52   113   112    1
    53    33    32    1
    54    32    35    1
    55    32    31    1
    56    94    93    1
    57    76    77    1
    58    69    68    1
    59    69    70    1
    60   111   110    2
    61     7     5    1
    62    70    71    2
    63   114   115    2
    64   112   110   am
    65    64    65    2
    66   110   109    1
    67     6     5    1
    68   104   103    2
    69     5     2    1
    70    16    14   ar
    71    93    92    1
    72    15    14   ar
    73     2     1    1
    74     2     3    1
    75    77    78    2
    76    77    80   am
    77    66    65    1
    78    65    67    1
    79    14    13    1
    80    92    89    1
    81   109   108    1
    82   106   105    1
    83   103   108   am
    84   103   102    1
    85    80    81    1
    86   105   102    1
    87   105   107    1
    88     3     4    2
    89    13    12    1
    90   102   101    1
    91    12     9    1
    92    85    87    1
    93    85    86    1
    94    85    84    1
    95    89    88    1
    96    89    90    1
    97    81    84    1
    98    81    82    1
    99    90    97   am
   100    90    91    2
   101    28    30   ar
   102    28    26   ar
   103     8     9    1
   104    97    98    1
   105    25    26   ar
   106    25    23   ar
   107    30    29   ar
   108     9    10    1
   109    26    24   ar
   110    98    99    1
   111    82    83    2
   112    23    22   ar
   113    29    27   ar
   114    24    22   ar
   115    24    27   ar
   116    10    11    2
   117    22    21    1
   118    99   100    2
   119    21    18    1
   120    18    17    1
   121    18    19    1
   122    19    20    2
