@<TRIPOS>MOLECULE
tmp/4i6bA00.pdb
 122 116 0 0 0
SMALL
GASTEIGER

@<TRIPOS>ATOM
      1  N          7.5530   12.9830    6.7600 N.3    18  LEU18      -0.1231
      2  CA         7.5190   12.4280    8.1210 C.3    18  LEU18       0.1693
      3  C          8.4990   13.1710    9.0370 C.2    18  LEU18       0.2593
      4  O          8.5120   12.9760   10.2630 O.2    18  LEU18      -0.2718
      5  CB         7.8730   10.9470    8.0910 C.3    18  LEU18       0.0284
      6  CG         6.9760   10.0500    7.2390 C.3    18  LEU18       0.0019
      7  CD1        7.6290    8.6820    7.0460 C.3    18  LEU18       0.0001
      8  CD2        5.5900    9.9350    7.8810 C.3    18  LEU18       0.0001
      9  N          9.3160   14.0230    8.4270 N.am   19  GLY19      -0.1942
     10  CA        10.2490   14.8530    9.1710 C.3    19  GLY19       0.2014
     11  C         11.6780   14.4420    8.9010 C.2    19  GLY19       0.2639
     12  O         11.9400   13.6090    8.0400 O.2    19  GLY19      -0.2714
     13  N         12.5860   15.0270    9.6770 N.am   20  LYS20      -0.1963
     14  CA        14.0280   14.8880    9.5250 C.3    20  LYS20       0.1728
     15  C         14.5700   13.6220   10.2030 C.2    20  LYS20       0.2616
     16  O         14.0970   13.2150   11.2640 O.2    20  LYS20      -0.2715
     17  CB        14.6850   16.1610   10.0970 C.3    20  LYS20       0.0311
     18  CG        16.1290   16.0660   10.5530 C.3    20  LYS20       0.0038
     19  CD        16.4530   17.2130   11.5340 C.3    20  LYS20       0.0206
     20  CE        17.7070   16.9140   12.3500 C.3    20  LYS20       0.1093
     21  NZ        17.7710   17.6970   13.6230 N.3    20  LYS20      -0.1314
     22  N         15.5650   13.0040    9.5760 N.am   21  GLY21      -0.1955
     23  CA        16.2640   11.8680   10.1690 C.3    21  GLY21       0.1869
     24  C         17.7460   11.9240    9.8500 C.2    21  GLY21       0.2309
     25  O         18.2090   11.2550    8.9240 O.2    21  GLY21      -0.2863
     26  N         12.5730   12.5700    5.4760 N.3    26  CYS26      -0.1235
     27  CA        11.7920   11.3460    5.4300 C.3    26  CYS26       0.1677
     28  C         10.3800   11.5850    4.9180 C.2    26  CYS26       0.2270
     29  O          9.7660   12.5930    5.2440 O.2    26  CYS26      -0.2867
     30  CB        11.7690   10.6730    6.8030 C.3    26  CYS26       0.0956
     31  SG        13.4220   10.2080    7.3820 S.3    26  CYS26      -0.0801
     32  N          8.0290    3.8560    4.5740 N.3    39  ALA39      -0.1231
     33  CA         8.6970    5.0290    5.1080 C.3    39  ALA39       0.1694
     34  C         10.0320    5.1500    4.3850 C.2    39  ALA39       0.2592
     35  O         10.8690    4.2360    4.4310 O.2    39  ALA39      -0.2718
     36  CB         8.8980    4.9200    6.6160 C.3    39  ALA39       0.0304
     37  N         10.2150    6.2700    3.6960 N.am   40  ALA40      -0.1966
     38  CA        11.4500    6.5000    2.9510 C.3    40  ALA40       0.1728
     39  C         12.3850    7.5260    3.5830 C.2    40  ALA40       0.2616
     40  O         11.9640    8.6070    4.0160 O.2    40  ALA40      -0.2715
     41  CB        11.1440    6.8670    1.4940 C.3    40  ALA40       0.0334
     42  N         13.6640    7.1680    3.6250 N.am   41  LYS41      -0.1977
     43  CA        14.7320    8.1390    3.8660 C.3    41  LYS41       0.1596
     44  C         15.2360    8.6330    2.5270 C.2    41  LYS41       0.2287
     45  O         15.5840    7.8260    1.6500 O.2    41  LYS41      -0.2864
     46  CB        15.8850    7.5170    4.6490 C.3    41  LYS41       0.0298
     47  CG        15.5450    7.2190    6.0870 C.3    41  LYS41       0.0038
     48  CD        16.7940    7.1600    6.9340 C.3    41  LYS41       0.0206
     49  CE        17.1880    5.7510    7.2800 C.3    41  LYS41       0.1093
     50  NZ        18.3010    5.8000    8.2700 N.3    41  LYS41      -0.1314
     51  N         12.6640   -3.5480   11.9660 N.3    73  VAL73      -0.1245
     52  CA        12.1630   -2.7560   10.8400 C.3    73  VAL73       0.1561
     53  C         12.5660   -3.4740    9.5540 C.2    73  VAL73       0.2260
     54  O         13.7400   -3.7930    9.3560 O.2    73  VAL73      -0.2867
     55  CB        12.7390   -1.3230   10.8570 C.3    73  VAL73       0.0252
     56  CG1       12.5580   -0.6470    9.5000 C.3    73  VAL73       0.0019
     57  CG2       12.1020   -0.4960   11.9860 C.3    73  VAL73       0.0019
     58  N         11.6710    1.7180    3.8580 N.3    89  LEU89      -0.1231
     59  CA        11.5800    0.8710    5.0390 C.3    89  LEU89       0.1693
     60  C         10.1220    0.6340    5.4320 C.2    89  LEU89       0.2592
     61  O          9.2310    1.3840    5.0220 O.2    89  LEU89      -0.2718
     62  CB        12.3330    1.5350    6.1990 C.3    89  LEU89       0.0284
     63  CG        13.7990    1.9290    5.9410 C.3    89  LEU89       0.0019
     64  CD1       14.3320    2.9210    6.9750 C.3    89  LEU89       0.0001
     65  CD2       14.6830    0.6670    5.8700 C.3    89  LEU89       0.0001
     66  N          9.9000   -0.4040    6.2330 N.am   90  GLU90      -0.1966
     67  CA         8.6050   -0.6950    6.8350 C.3    90  GLU90       0.1733
     68  C          8.0050    0.5560    7.4910 C.2    90  GLU90       0.2616
     69  O          8.6120    1.1420    8.3990 O.2    90  GLU90      -0.2715
     70  CB         8.7730   -1.8260    7.8570 C.3    90  GLU90       0.0429
     71  CG         7.5470   -2.1790    8.7110 C.3    90  GLU90       0.1163
     72  CD         7.7780   -3.4360    9.5460 C.2    90  GLU90       0.3649
     73  OE1        6.7870   -3.9700   10.0930 O.co2  90  GLU90      -0.2457
     74  OE2        8.9420   -3.8980    9.6410 O.co2  90  GLU90      -0.2457
     75  N          6.8310    0.9580    7.0040 N.am   91  TYR91      -0.1960
     76  CA         6.1100    2.1080    7.5360 C.3    91  TYR91       0.1771
     77  C          5.4330    1.7960    8.8840 C.2    91  TYR91       0.2619
     78  O          4.6220    0.8660    8.9920 O.2    91  TYR91      -0.2715
     79  CB         5.0980    2.6530    6.5110 C.3    91  TYR91       0.0574
     80  CG         4.3400    3.8590    7.0300 C.ar   91  TYR91      -0.0198
     81  CD1        4.9850    5.0930    7.2120 C.ar   91  TYR91      -0.0009
     82  CD2        3.0000    3.7630    7.3830 C.ar   91  TYR91      -0.0009
     83  CE1        4.2910    6.2010    7.7230 C.ar   91  TYR91       0.0417
     84  CE2        2.3010    4.8680    7.8930 C.ar   91  TYR91       0.0417
     85  CZ         2.9540    6.0780    8.0590 C.ar   91  TYR91       0.1957
     86  OH         2.2630    7.1710    8.5460 O.3    91  TYR91      -0.2866
     87  N          5.8000    2.5670    9.9040 N.am   92  CYS92      -0.1968
     88  CA         5.2580    2.4100   11.2500 C.3    92  CYS92       0.1712
     89  C          4.4960    3.6840   11.6060 C.2    92  CYS92       0.2296
     90  O          5.0850    4.7270   11.8740 O.2    92  CYS92      -0.2864
     91  CB         6.3740    2.1200   12.2470 C.3    92  CYS92       0.0983
     92  SG         7.2770    0.5650   11.8900 S.3    92  CYS92      -0.0798
     93  N          4.8160    6.2660   15.1750 N.3    95  ARG95      -0.1245
     94  CA         6.0600    6.9020   15.5780 C.3    95  ARG95       0.1563
     95  C          6.9700    5.9330   16.3410 C.2    95  ARG95       0.2260
     96  O          7.1550    4.7820   15.9060 O.2    95  ARG95      -0.2867
     97  CB         5.7740    8.2110   16.3460 C.3    95  ARG95       0.0307
     98  CG         4.8500    9.1760   15.5660 C.3    95  ARG95       0.0489
     99  CD         4.7200   10.5330   16.2210 C.3    95  ARG95       0.2205
    100  NE         3.8060   10.5100   17.3680 N.pl3  95  ARG95      -0.0865
    101  CZ         3.7450   11.4510   18.3130 C.cat  95  ARG95       0.5346
    102  NH1        4.5410   12.5130   18.2690 N.pl3  95  ARG95       0.1354
    103  NH2        2.8850   11.3280   19.3140 N.pl3  95  ARG95       0.1354
    104  N         10.3730    1.5230   16.7980 N.3   142  PHE142     -0.1241
    105  CA         9.2900    2.0460   15.9690 C.3   142  PHE142      0.1605
    106  C          8.0250    1.2240   16.1990 C.2   142  PHE142      0.2264
    107  O          8.0920    0.0040   16.3970 O.2   142  PHE142     -0.2867
    108  CB         9.7150    2.0470   14.5000 C.3   142  PHE142      0.0534
    109  CG        10.9280    2.8800   14.2310 C.ar  142  PHE142     -0.0203
    110  CD1       12.2040    2.3320   14.3410 C.ar  142  PHE142     -0.0042
    111  CD2       10.8000    4.2210   13.8800 C.ar  142  PHE142     -0.0042
    112  CE1       13.3310    3.1050   14.1090 C.ar  142  PHE142     -0.0003
    113  CE2       11.9140    4.9990   13.6530 C.ar  142  PHE142     -0.0003
    114  CZ        13.1860    4.4440   13.7500 C.ar  142  PHE142     -0.0000
    115  N         16.7990    1.8190   12.8410 N.3   153  ASP153     -0.1239
    116  CA        17.9550    2.6530   12.7430 C.3   153  ASP153      0.1674
    117  C         19.3140    1.9890   12.9210 C.2   153  ASP153      0.2266
    118  O         19.9090    2.0680   13.9350 O.2   153  ASP153     -0.2867
    119  CB        17.8780    3.9700   13.4890 C.3   153  ASP153      0.1410
    120  CG        19.0070    4.9690   13.0630 C.2   153  ASP153      0.3668
    121  OD1       18.9300    6.1370   13.4480 O.co2 153  ASP153     -0.2456
    122  OD2       19.9140    4.5720   12.3910 O.co2 153  ASP153     -0.2456
@<TRIPOS>BOND
     1    41    38    1
     2    45    44    2
     3    44    43    1
     4    38    39    1
     5    38    37    1
     6    39    42   am
     7    39    40    2
     8    42    43    1
     9    37    34   am
    10    58    59    1
    11    43    46    1
    12    34    35    2
    13    34    33    1
    14    32    33    1
    15    46    47    1
    16    28    29    2
    17    28    27    1
    18    61    60    2
    19    59    60    1
    20    59    62    1
    21    33    36    1
    22    27    26    1
    23    27    30    1
    24    60    66   am
    25    65    63    1
    26    63    62    1
    27    63    64    1
    28    47    48    1
    29    66    67    1
    30    79    80    1
    31    79    76    1
    32     1     2    1
    33    30    31    1
    34    67    68    1
    35    67    70    1
    36    48    49    1
    37    75    68   am
    38    75    76    1
    39    80    81   ar
    40    80    82   ar
    41     7     6    1
    42    81    83   ar
    43     6     8    1
    44     6     5    1
    45    49    50    1
    46    82    84   ar
    47    68    69    2
    48    76    77    1
    49    83    85   ar
    50    70    71    1
    51    84    85   ar
    52    12    11    2
    53    85    86    1
    54     5     2    1
    55     2     3    1
    56     9     3   am
    57     9    10    1
    58    71    72    1
    59    77    78    2
    60    77    87   am
    61    11    10    1
    62    11    13   am
    63    25    24    2
    64     3     4    2
    65    54    53    2
    66    56    55    1
    67    14    13    1
    68    14    17    1
    69    14    15    1
    70    72    74   ar
    71    72    73   ar
    72    53    52    1
    73    22    23    1
    74    22    15   am
    75    24    23    1
    76    87    88    1
    77    17    18    1
    78    15    16    2
    79    18    19    1
    80    52    55    1
    81    52    51    1
    82    55    57    1
    83    88    89    1
    84    88    91    1
    85    19    20    1
    86    89    90    2
    87    92    91    1
    88    20    21    1
    89   122   120   ar
    90   116   115    1
    91   116   117    1
    92   116   119    1
    93   117   118    2
    94   120   121   ar
    95   120   119    1
    96   113   114   ar
    97   113   111   ar
    98   114   112   ar
    99   111   109   ar
   100   112   110   ar
   101   109   110   ar
   102   109   108    1
   103   108   105    1
   104    93    94    1
   105    98    99    1
   106    98    97    1
   107    94    95    1
   108    94    97    1
   109    96    95    2
   110   105   106    1
   111   105   104    1
   112   106   107    2
   113    99   100    1
   114   100   101    2
   115   102   101    1
   116   101   103    1
