@<TRIPOS>MOLECULE
tmp/4i6fA00.pdb
 144 138 0 0 0
SMALL
GASTEIGER

@<TRIPOS>ATOM
      1  N          7.8080   13.3060    6.8410 N.3    18  LEU18      -0.1231
      2  CA         7.7010   12.5670    8.1160 C.3    18  LEU18       0.1693
      3  C          8.6520   13.1820    9.1280 C.2    18  LEU18       0.2593
      4  O          8.6910   12.7840   10.3060 O.2    18  LEU18      -0.2718
      5  CB         8.0670   11.0860    7.9550 C.3    18  LEU18       0.0284
      6  CG         7.2960   10.1870    6.9990 C.3    18  LEU18       0.0019
      7  CD1        8.0020    8.8330    6.8480 C.3    18  LEU18       0.0001
      8  CD2        5.8380   10.0550    7.4680 C.3    18  LEU18       0.0001
      9  N          9.4420   14.1400    8.6530 N.am   19  GLY19      -0.1942
     10  CA        10.3100   14.9050    9.5270 C.3    19  GLY19       0.2014
     11  C         11.7490   14.6530    9.1600 C.2    19  GLY19       0.2639
     12  O         12.0220   13.9390    8.1910 O.2    19  GLY19      -0.2714
     13  N         12.6520   15.2570    9.9420 N.am   20  LYS20      -0.1963
     14  CA        14.1020   15.1580    9.7800 C.3    20  LYS20       0.1728
     15  C         14.6230   13.8760   10.4300 C.2    20  LYS20       0.2616
     16  O         14.1200   13.4360   11.4800 O.2    20  LYS20      -0.2715
     17  CB        14.7600   16.3870   10.4260 C.3    20  LYS20       0.0311
     18  CG        16.2490   16.6000   10.1090 C.3    20  LYS20       0.0038
     19  CD        16.7260   18.0010   10.5170 C.3    20  LYS20       0.0206
     20  CE        16.8270   18.1570   12.0470 C.3    20  LYS20       0.1093
     21  NZ        17.3990   19.4910   12.4570 N.3    20  LYS20      -0.1314
     22  N         15.6330   13.2770    9.8100 N.am   21  GLY21      -0.1955
     23  CA        16.2580   12.0870   10.3700 C.3    21  GLY21       0.1869
     24  C         17.7510   12.0760   10.1130 C.2    21  GLY21       0.2309
     25  O         18.2710   11.1210    9.5080 O.2    21  GLY21      -0.2863
     26  N         12.7910   12.6130    5.6580 N.3    26  CYS26      -0.1235
     27  CA        11.9400   11.4650    5.5180 C.3    26  CYS26       0.1677
     28  C         10.6620   11.8520    4.7870 C.2    26  CYS26       0.2270
     29  O         10.2430   13.0090    4.8290 O.2    26  CYS26      -0.2867
     30  CB        11.7340   10.7430    6.8590 C.3    26  CYS26       0.0956
     31  SG        13.3140   10.1000    7.5550 S.3    26  CYS26      -0.0801
     32  N          7.9470    4.0690    4.6320 N.3    39  ALA39      -0.1231
     33  CA         8.7180    5.1610    5.1990 C.3    39  ALA39       0.1694
     34  C         10.1210    5.2130    4.5690 C.2    39  ALA39       0.2592
     35  O         10.8970    4.2460    4.6250 O.2    39  ALA39      -0.2718
     36  CB         8.7960    5.0260    6.6980 C.3    39  ALA39       0.0304
     37  N         10.4350    6.3520    3.9650 N.am   40  ALA40      -0.1966
     38  CA        11.6500    6.4730    3.2060 C.3    40  ALA40       0.1728
     39  C         12.5960    7.5460    3.7280 C.2    40  ALA40       0.2616
     40  O         12.1850    8.6630    4.0490 O.2    40  ALA40      -0.2715
     41  CB        11.3090    6.7340    1.7460 C.3    40  ALA40       0.0334
     42  N         13.8700    7.1800    3.7880 N.am   41  LYS41      -0.1977
     43  CA        14.9690    8.1310    3.9220 C.3    41  LYS41       0.1596
     44  C         15.3660    8.5830    2.5340 C.2    41  LYS41       0.2287
     45  O         15.4560    7.7760    1.6160 O.2    41  LYS41      -0.2864
     46  CB        16.1850    7.4920    4.5990 C.3    41  LYS41       0.0298
     47  CG        15.9040    6.7940    5.9310 C.3    41  LYS41       0.0038
     48  CD        17.1820    6.6820    6.7490 C.3    41  LYS41       0.0206
     49  CE        16.9650    5.8360    8.0060 C.3    41  LYS41       0.1093
     50  NZ        17.9700    6.1090    9.0880 N.3    41  LYS41      -0.1314
     51  N         12.8240   -3.5750   11.8380 N.3    73  VAL73      -0.1245
     52  CA        12.2920   -2.7590   10.7470 C.3    73  VAL73       0.1561
     53  C         12.5930   -3.4840    9.4490 C.2    73  VAL73       0.2260
     54  O         13.7540   -3.7910    9.1290 O.2    73  VAL73      -0.2867
     55  CB        12.8420   -1.3000   10.7490 C.3    73  VAL73       0.0252
     56  CG1       12.5510   -0.6320    9.4410 C.3    73  VAL73       0.0019
     57  CG2       12.2380   -0.4910   11.9170 C.3    73  VAL73       0.0019
     58  N         11.6620    1.6620    3.9670 N.3    89  LEU89      -0.1231
     59  CA        11.6010    0.8600    5.1680 C.3    89  LEU89       0.1693
     60  C         10.1540    0.7140    5.5920 C.2    89  LEU89       0.2592
     61  O          9.3020    1.4930    5.1760 O.2    89  LEU89      -0.2718
     62  CB        12.3620    1.5880    6.2600 C.3    89  LEU89       0.0284
     63  CG        13.8100    1.9640    5.9450 C.3    89  LEU89       0.0019
     64  CD1       14.3320    2.9900    6.9540 C.3    89  LEU89       0.0001
     65  CD2       14.7020    0.7470    5.8830 C.3    89  LEU89       0.0001
     66  N          9.8770   -0.2860    6.4170 N.am   90  GLU90      -0.1966
     67  CA         8.5350   -0.5190    6.9950 C.3    90  GLU90       0.1733
     68  C          7.8610    0.7730    7.5630 C.2    90  GLU90       0.2616
     69  O          8.4190    1.4390    8.4370 O.2    90  GLU90      -0.2715
     70  CB         8.6650   -1.5990    8.0760 C.3    90  GLU90       0.0429
     71  CG         7.4000   -2.2030    8.5310 C.3    90  GLU90       0.1163
     72  CD         7.6000   -3.3640    9.4890 C.2    90  GLU90       0.3649
     73  OE1        6.5900   -3.8850   10.0070 O.co2  90  GLU90      -0.2457
     74  OE2        8.7510   -3.7790    9.7200 O.co2  90  GLU90      -0.2457
     75  N          6.6770    1.1210    7.0680 N.am   91  TYR91      -0.1960
     76  CA         5.9220    2.2520    7.6030 C.3    91  TYR91       0.1771
     77  C          5.2350    1.9470    8.9200 C.2    91  TYR91       0.2620
     78  O          4.3050    1.0920    8.9780 O.2    91  TYR91      -0.2715
     79  CB         4.8380    2.6280    6.6390 C.3    91  TYR91       0.0574
     80  CG         4.1400    3.9400    6.9140 C.ar   91  TYR91      -0.0198
     81  CD1        4.5260    5.1120    6.2560 C.ar   91  TYR91      -0.0009
     82  CD2        3.0430    3.9930    7.7730 C.ar   91  TYR91      -0.0009
     83  CE1        3.8360    6.3030    6.4690 C.ar   91  TYR91       0.0417
     84  CE2        2.3480    5.1710    7.9930 C.ar   91  TYR91       0.0417
     85  CZ         2.7390    6.3150    7.3400 C.ar   91  TYR91       0.1957
     86  OH         2.0430    7.4710    7.5820 O.3    91  TYR91      -0.2866
     87  N          5.6520    2.7030    9.9500 N.am   92  CYS92      -0.1954
     88  CA         5.2500    2.4840   11.3470 C.3    92  CYS92       0.1843
     89  C          4.3570    3.6120   11.8470 C.2    92  CYS92       0.2626
     90  O          4.8050    4.4270   12.6370 O.2    92  CYS92      -0.2714
     91  CB         6.5010    2.3930   12.2310 C.3    92  CYS92       0.0997
     92  SG         7.4840    0.8890   12.0160 S.3    92  CYS92      -0.0797
     93  N          3.0990    3.6560   11.4050 N.am   93  SER93      -0.1950
     94  CA         2.1910    4.8020   11.6500 C.3    93  SER93       0.1924
     95  C          2.1920    5.3670   13.0730 C.2    93  SER93       0.2314
     96  O          2.0090    6.5680   13.2660 O.2    93  SER93      -0.2863
     97  CB         0.7630    4.4390   11.2860 C.3    93  SER93       0.2116
     98  OG         0.2710    3.5440   12.2440 O.3    93  SER93      -0.2180
     99  N          4.6290    5.6690   15.2690 N.3    95  ARG95      -0.1231
    100  CA         5.8580    6.3430   15.6420 C.3    95  ARG95       0.1694
    101  C          6.9390    5.5670   16.3850 C.2    95  ARG95       0.2592
    102  O          7.4500    4.6160   15.9040 O.2    95  ARG95      -0.2718
    103  CB         5.5290    7.6530   16.3240 C.3    95  ARG95       0.0321
    104  CG         5.2020    8.7310   15.3540 C.3    95  ARG95       0.0489
    105  CD         3.9770    9.4370   15.6950 C.3    95  ARG95       0.2205
    106  NE         4.1900   10.8480   15.5980 N.pl3  95  ARG95      -0.0865
    107  CZ         4.2390   11.6630   16.6300 C.cat  95  ARG95       0.5346
    108  NH1        4.0640   11.2300   17.8630 N.pl3  95  ARG95       0.1354
    109  NH2        4.4740   12.9290   16.4280 N.pl3  95  ARG95       0.1354
    110  N          7.3120    6.0220   17.5590 N.am   96  SER96      -0.1952
    111  CA         8.3500    5.3910   18.3620 C.3    96  SER96       0.1924
    112  C          7.9280    5.3180   19.7880 C.2    96  SER96       0.2314
    113  O          6.9160    5.7880   20.1240 O.2    96  SER96      -0.2863
    114  CB         9.6180    6.1750   18.2700 C.3    96  SER96       0.2116
    115  OG         9.4920    7.3010   19.0370 O.3    96  SER96      -0.2180
    116  N          8.3580    9.0270   21.4490 N.3    99  HIS99      -0.1241
    117  CA         7.1210    9.8070   21.3250 C.3    99  HIS99       0.1621
    118  C          6.1050    9.4320   22.3810 C.2    99  HIS99       0.2264
    119  O          5.6560   10.3020   23.1430 O.2    99  HIS99      -0.2867
    120  CB         6.5190    9.6680   19.9110 C.3    99  HIS99       0.0745
    121  CG         7.4310   10.1830   18.8350 C.ar   99  HIS99       0.0817
    122  ND1        7.5450   11.5250   18.5310 N.ar   99  HIS99      -0.2268
    123  CD2        8.3190    9.5410   18.0350 C.ar   99  HIS99       0.1154
    124  CE1        8.4430   11.6840   17.5760 C.ar   99  HIS99       0.1986
    125  NE2        8.9310   10.4960   17.2610 N.ar   99  HIS99      -0.2212
    126  N         10.2540    1.3520   16.8340 N.3   142  PHE142     -0.1241
    127  CA         9.1440    1.8880   16.0980 C.3   142  PHE142      0.1605
    128  C          7.8640    1.0760   16.3410 C.2   142  PHE142      0.2264
    129  O          7.8900   -0.1590   16.3710 O.2   142  PHE142     -0.2867
    130  CB         9.5140    1.9880   14.6130 C.3   142  PHE142      0.0534
    131  CG        10.6720    2.9200   14.3340 C.ar  142  PHE142     -0.0203
    132  CD1       12.0030    2.4590   14.4070 C.ar  142  PHE142     -0.0042
    133  CD2       10.4410    4.2500   13.9920 C.ar  142  PHE142     -0.0042
    134  CE1       13.0960    3.3260   14.1510 C.ar  142  PHE142     -0.0003
    135  CE2       11.5240    5.1260   13.7400 C.ar  142  PHE142     -0.0003
    136  CZ        12.8600    4.6560   13.8160 C.ar  142  PHE142     -0.0000
    137  N         16.7140    2.0250   12.6630 N.3   153  ASP153     -0.1239
    138  CA        17.9440    2.8150   12.5380 C.3   153  ASP153      0.1674
    139  C         19.2970    2.1280   12.7300 C.2   153  ASP153      0.2266
    140  O         19.9430    2.2140   13.7260 O.2   153  ASP153     -0.2867
    141  CB        17.8660    4.1190   13.2900 C.3   153  ASP153      0.1410
    142  CG        18.9600    5.0430   12.9570 C.2   153  ASP153      0.3668
    143  OD1       18.9820    6.0770   13.5570 O.co2 153  ASP153     -0.2456
    144  OD2       19.8010    4.7570   12.1490 O.co2 153  ASP153     -0.2456
@<TRIPOS>BOND
     1    45    44    2
     2    41    38    1
     3    44    43    1
     4    38    39    1
     5    38    37    1
     6    39    42   am
     7    39    40    2
     8    42    43    1
     9    43    46    1
    10    37    34   am
    11    58    59    1
    12    34    35    2
    13    34    33    1
    14    46    47    1
    15    32    33    1
    16    28    29    2
    17    28    27    1
    18    59    60    1
    19    59    62    1
    20    61    60    2
    21    33    36    1
    22    27    26    1
    23    27    30    1
    24    60    66   am
    25    65    63    1
    26    47    48    1
    27    63    62    1
    28    63    64    1
    29    81    83   ar
    30    81    80   ar
    31    66    67    1
    32    83    85   ar
    33    79    80    1
    34    79    76    1
    35    48    49    1
    36     1     2    1
    37     7     6    1
    38    30    31    1
    39    80    82   ar
    40    67    68    1
    41    67    70    1
    42     6     8    1
    43     6     5    1
    44    75    68   am
    45    75    76    1
    46    85    86    1
    47    85    84   ar
    48    68    69    2
    49    76    77    1
    50    82    84   ar
    51     5     2    1
    52    49    50    1
    53    70    71    1
    54     2     3    1
    55    12    11    2
    56    71    72    1
    57     9     3   am
    58     9    10    1
    59    77    78    2
    60    77    87   am
    61     3     4    2
    62    54    53    2
    63    11    10    1
    64    11    13   am
    65    56    55    1
    66    53    52    1
    67    72    74   ar
    68    72    73   ar
    69    25    24    2
    70    14    13    1
    71    14    17    1
    72    14    15    1
    73    22    23    1
    74    22    15   am
    75    87    88    1
    76    18    17    1
    77    18    19    1
    78    24    23    1
    79    15    16    2
    80    19    20    1
    81    52    55    1
    82    52    51    1
    83    55    57    1
    84    97    94    1
    85    97    98    1
    86    88    89    1
    87    88    91    1
    88    93    94    1
    89    93    89   am
    90    94    95    1
    91    89    90    2
    92    92    91    1
    93    20    21    1
    94   144   142   ar
    95   138   137    1
    96   138   139    1
    97   138   141    1
    98   139   140    2
    99   142   141    1
   100   142   143   ar
   101    95    96    2
   102   135   136   ar
   103   135   133   ar
   104   136   134   ar
   105   133   131   ar
   106   134   132   ar
   107   131   132   ar
   108   131   130    1
   109   130   127    1
   110    99   100    1
   111   104   105    1
   112   104   103    1
   113   106   105    1
   114   106   107    2
   115   100   103    1
   116   100   101    1
   117   102   101    2
   118   127   128    1
   119   127   126    1
   120   128   129    2
   121   101   110   am
   122   109   107    1
   123   107   108    1
   124   125   124   ar
   125   125   123   ar
   126   110   111    1
   127   124   122   ar
   128   123   121   ar
   129   114   111    1
   130   114   115    1
   131   111   112    1
   132   122   121   ar
   133   121   120    1
   134   112   113    2
   135   120   117    1
   136   117   116    1
   137   117   118    1
   138   118   119    2
