@<TRIPOS>MOLECULE
tmp/4i6gA00.pdb
 259 254 0 0 0
SMALL
GASTEIGER

@<TRIPOS>ATOM
      1  N         38.7740  -21.7080   21.6970 N.3   222  HIS222     -0.1241
      2  CA        38.0950  -20.5620   22.2980 C.3   222  HIS222      0.1621
      3  C         37.4270  -20.9120   23.6260 C.2   222  HIS222      0.2264
      4  O         37.5940  -20.1990   24.6260 O.2   222  HIS222     -0.2867
      5  CB        37.0670  -19.9330   21.3490 C.3   222  HIS222      0.0745
      6  CG        36.4710  -18.6640   21.8820 C.ar  222  HIS222      0.0817
      7  ND1       36.9400  -17.4130   21.5360 N.ar  222  HIS222     -0.2268
      8  CD2       35.4690  -18.4530   22.7700 C.ar  222  HIS222      0.1154
      9  CE1       36.2400  -16.4890   22.1700 C.ar  222  HIS222      0.1986
     10  NE2       35.3400  -17.0930   22.9260 N.ar  222  HIS222     -0.2212
     11  N         40.4230  -17.5100   17.0560 N.3   233  THR233     -0.1203
     12  CA        39.0930  -17.9690   17.4820 C.3   233  THR233      0.1994
     13  C         37.9200  -17.2660   16.7610 C.2   233  THR233      0.2618
     14  O         36.8480  -17.0820   17.3370 O.2   233  THR233     -0.2717
     15  CB        38.8990  -17.8110   19.0100 C.3   233  THR233      0.1784
     16  OG1       39.0640  -16.4350   19.3810 O.3   233  THR233     -0.2211
     17  CG2       39.8990  -18.6650   19.7810 C.3   233  THR233      0.0376
     18  N         38.1180  -16.8730   15.5090 N.am  234  GLY234     -0.1942
     19  CA        37.0400  -16.2650   14.7450 C.3   234  GLY234      0.2014
     20  C         36.3030  -17.3330   13.9570 C.2   234  GLY234      0.2639
     21  O         36.9000  -18.0060   13.1260 O.2   234  GLY234     -0.2714
     22  N         35.0100  -17.4990   14.2130 N.am  235  LEU235     -0.1963
     23  CA        34.2840  -18.6370   13.6570 C.3   235  LEU235      0.1728
     24  C         33.3580  -18.2720   12.5090 C.2   235  LEU235      0.2616
     25  O         32.8130  -19.1630   11.8450 O.2   235  LEU235     -0.2715
     26  CB        33.4980  -19.3480   14.7550 C.3   235  LEU235      0.0311
     27  CG        34.3860  -20.0330   15.7960 C.3   235  LEU235      0.0022
     28  CD1       33.5340  -20.5460   16.9280 C.3   235  LEU235      0.0001
     29  CD2       35.2250  -21.1600   15.1510 C.3   235  LEU235      0.0001
     30  N         33.1820  -16.9760   12.2700 N.am  236  SER236     -0.1950
     31  CA        32.2590  -16.5290   11.2190 C.3   236  SER236      0.1924
     32  C         32.4840  -17.1620    9.8360 C.2   236  SER236      0.2314
     33  O         31.5160  -17.5680    9.2030 O.2   236  SER236     -0.2863
     34  CB        32.1180  -14.9860   11.1530 C.3   236  SER236      0.2116
     35  OG        33.3240  -14.3100   10.7940 O.3   236  SER236     -0.2180
     36  N         31.2180  -20.7470   10.0750 N.3   239  LEU239     -0.1231
     37  CA        29.7610  -20.8130   10.1580 C.3   239  LEU239      0.1693
     38  C         29.1450  -20.5430    8.7960 C.2   239  LEU239      0.2591
     39  O         28.1900  -21.2170    8.3960 O.2   239  LEU239     -0.2718
     40  CB        29.2130  -19.8210   11.1980 C.3   239  LEU239      0.0284
     41  CG        29.3970  -20.2810   12.6610 C.3   239  LEU239      0.0019
     42  CD1       29.2440  -19.1330   13.6540 C.3   239  LEU239      0.0001
     43  CD2       28.4220  -21.4170   13.0100 C.3   239  LEU239      0.0001
     44  N         29.7180  -19.5800    8.0730 N.am  240  ARG240     -0.1980
     45  CA        29.1960  -19.1830    6.7700 C.3   240  ARG240      0.1597
     46  C         29.2490  -20.2980    5.7320 C.2   240  ARG240      0.2287
     47  O         28.3180  -20.4320    4.9310 O.2   240  ARG240     -0.2864
     48  CB        29.9290  -17.9450    6.2250 C.3   240  ARG240      0.0334
     49  CG        29.2400  -17.3140    5.0390 C.3   240  ARG240      0.0492
     50  CD        30.1520  -17.2230    3.8110 C.3   240  ARG240      0.2205
     51  NE        30.1230  -18.4350    3.0130 N.pl3 240  ARG240     -0.0865
     52  CZ        29.4330  -18.5870    1.8860 C.cat 240  ARG240      0.5346
     53  NH1       28.7070  -17.5950    1.3970 N.pl3 240  ARG240      0.1354
     54  NH2       29.4750  -19.7500    1.2490 N.pl3 240  ARG240      0.1354
     55  N         27.8410  -25.2560   17.9210 N.3   249  PHE249     -0.1241
     56  CA        28.3140  -24.0290   18.5710 C.3   249  PHE249      0.1605
     57  C         27.3690  -23.5950   19.7290 C.2   249  PHE249      0.2264
     58  O         27.8060  -23.3880   20.8640 O.2   249  PHE249     -0.2867
     59  CB        28.4820  -22.9360   17.5090 C.3   249  PHE249      0.0534
     60  CG        29.1560  -21.6610   18.0020 C.ar  249  PHE249     -0.0203
     61  CD1       29.8440  -21.6200   19.2090 C.ar  249  PHE249     -0.0042
     62  CD2       29.0910  -20.4980   17.2360 C.ar  249  PHE249     -0.0042
     63  CE1       30.4360  -20.4370   19.6550 C.ar  249  PHE249     -0.0003
     64  CE2       29.6920  -19.3130   17.6720 C.ar  249  PHE249     -0.0003
     65  CZ        30.3620  -19.2900   18.8830 C.ar  249  PHE249     -0.0000
     66  N         24.8260  -13.4840   19.4480 N.3   273  GLN273     -0.1231
     67  CA        25.5430  -13.5390   18.1810 C.3   273  GLN273      0.1698
     68  C         24.9050  -14.4990   17.1290 C.2   273  GLN273      0.2592
     69  O         24.6770  -14.1160   15.9620 O.2   273  GLN273     -0.2718
     70  CB        27.0200  -13.8800   18.4450 C.3   273  GLN273      0.0381
     71  CG        27.2920  -15.2530   19.1080 C.3   273  GLN273      0.0905
     72  CD        26.6910  -15.4170   20.5070 C.2   273  GLN273      0.2608
     73  OE1       26.3770  -14.4440   21.1940 O.2   273  GLN273     -0.2717
     74  NE2       26.5220  -16.6600   20.9210 N.am  273  GLN273     -0.0878
     75  N         24.6060  -15.7300   17.5470 N.am  274  LEU274     -0.1980
     76  CA        23.9340  -16.6780   16.6810 C.3   274  LEU274      0.1596
     77  C         22.4810  -16.2600   16.4040 C.2   274  LEU274      0.2287
     78  O         21.9590  -16.5390   15.3320 O.2   274  LEU274     -0.2864
     79  CB        23.9710  -18.0780   17.3010 C.3   274  LEU274      0.0297
     80  CG        25.3880  -18.6250   17.4750 C.3   274  LEU274      0.0022
     81  CD1       25.3910  -19.9600   18.2190 C.3   274  LEU274      0.0001
     82  CD2       26.0540  -18.7470   16.1150 C.3   274  LEU274      0.0001
     83  N         21.2750  -13.1010   16.2410 N.3   276  TRP276     -0.1227
     84  CA        21.3320  -12.0320   15.2530 C.3   276  TRP276      0.1737
     85  C         21.4410  -12.6100   13.8350 C.2   276  TRP276      0.2595
     86  O         20.7460  -12.1730   12.9120 O.2   276  TRP276     -0.2718
     87  CB        22.4910  -11.0510   15.5460 C.3   276  TRP276      0.0564
     88  CG        22.0900   -9.9780   16.5400 C.ar  276  TRP276      0.0003
     89  CD1       22.3910   -9.9380   17.8720 C.ar  276  TRP276      0.0946
     90  CD2       21.2850   -8.8100   16.2750 C.ar  276  TRP276      0.0152
     91  NE1       21.8340   -8.8220   18.4490 N.ar  276  TRP276     -0.2442
     92  CE2       21.1530   -8.1110   17.4930 C.ar  276  TRP276      0.0810
     93  CE3       20.6740   -8.2900   15.1250 C.ar  276  TRP276      0.0012
     94  CZ2       20.4240   -6.9200   17.6000 C.ar  276  TRP276      0.0191
     95  CZ3       19.9570   -7.1100   15.2270 C.ar  276  TRP276      0.0001
     96  CH2       19.8300   -6.4370   16.4620 C.ar  276  TRP276      0.0015
     97  N         22.3000  -13.6070   13.6750 N.am  277  ARG277     -0.1980
     98  CA        22.4020  -14.3340   12.4120 C.3   277  ARG277      0.1597
     99  C         21.0410  -14.9140   11.9920 C.2   277  ARG277      0.2287
    100  O         20.5800  -14.6660   10.8670 O.2   277  ARG277     -0.2864
    101  CB        23.4540  -15.4260   12.5430 C.3   277  ARG277      0.0334
    102  CG        23.6300  -16.3110   11.3410 C.3   277  ARG277      0.0492
    103  CD        24.6740  -17.3560   11.6910 C.3   277  ARG277      0.2205
    104  NE        24.9900  -18.2610   10.6020 N.pl3 277  ARG277     -0.0865
    105  CZ        24.5010  -19.4850   10.4580 C.cat 277  ARG277      0.5346
    106  NH1       23.6200  -19.9880   11.3320 N.pl3 277  ARG277      0.1354
    107  NH2       24.9020  -20.2160    9.4240 N.pl3 277  ARG277      0.1354
    108  N         18.4270  -12.2310   10.7390 N.3   280  PHE280     -0.1241
    109  CA        18.6610  -11.8140    9.3540 C.3   280  PHE280      0.1605
    110  C         18.3730  -12.9360    8.3410 C.2   280  PHE280      0.2264
    111  O         17.9390  -12.6700    7.2140 O.2   280  PHE280     -0.2867
    112  CB        20.0980  -11.3050    9.1760 C.3   280  PHE280      0.0534
    113  CG        20.3730   -9.9970    9.8710 C.ar  280  PHE280     -0.0203
    114  CD1       19.5190   -8.8990    9.6920 C.ar  280  PHE280     -0.0042
    115  CD2       21.4710   -9.8640   10.7160 C.ar  280  PHE280     -0.0042
    116  CE1       19.7660   -7.6790   10.3270 C.ar  280  PHE280     -0.0003
    117  CE2       21.7340   -8.6370   11.3610 C.ar  280  PHE280     -0.0003
    118  CZ        20.8760   -7.5440   11.1700 C.ar  280  PHE280     -0.0000
    119  N         38.7100  -10.5410    6.7810 N.3   336  TRP336     -0.1227
    120  CA        37.9400  -10.4750    8.0220 C.3   336  TRP336      0.1737
    121  C         38.3270   -9.1980    8.7420 C.2   336  TRP336      0.2595
    122  O         39.5010   -8.8400    8.7820 O.2   336  TRP336     -0.2718
    123  CB        38.2290  -11.6690    8.9540 C.3   336  TRP336      0.0564
    124  CG        37.3810  -11.6850   10.2430 C.ar  336  TRP336      0.0003
    125  CD1       36.1860  -12.3340   10.4280 C.ar  336  TRP336      0.0946
    126  CD2       37.6690  -11.0220   11.4960 C.ar  336  TRP336      0.0152
    127  NE1       35.7270  -12.1290   11.7080 N.ar  336  TRP336     -0.2442
    128  CE2       36.6170  -11.3310   12.3840 C.ar  336  TRP336      0.0810
    129  CE3       38.7240  -10.2200   11.9530 C.ar  336  TRP336      0.0012
    130  CZ2       36.5730  -10.8500   13.7050 C.ar  336  TRP336      0.0191
    131  CZ3       38.6840   -9.7460   13.2690 C.ar  336  TRP336      0.0001
    132  CH2       37.6100  -10.0520   14.1200 C.ar  336  TRP336      0.0015
    133  N         37.3260   -8.5120    9.2810 N.am  337  ILE337     -0.1980
    134  CA        37.5240   -7.3760   10.1720 C.3   337  ILE337      0.1595
    135  C         36.4990   -7.4800   11.2830 C.2   337  ILE337      0.2287
    136  O         35.4390   -8.1330   11.1300 O.2   337  ILE337     -0.2864
    137  CB        37.3660   -6.0060    9.4460 C.3   337  ILE337      0.0276
    138  CG1       36.0850   -5.9710    8.5970 C.3   337  ILE337      0.0022
    139  CG2       38.6170   -5.7020    8.5940 C.3   337  ILE337      0.0022
    140  CD1       35.7240   -4.5660    7.9950 C.3   337  ILE337      0.0001
    141  N         33.6650   -6.7120   14.0540 N.3   339  HIS339     -0.1241
    142  CA        32.2960   -6.2080   14.0090 C.3   339  HIS339      0.1621
    143  C         32.2440   -4.6710   14.1270 C.2   339  HIS339      0.2264
    144  O         31.5220   -4.0160   13.3930 O.2   339  HIS339     -0.2867
    145  CB        31.4710   -6.8890   15.1360 C.3   339  HIS339      0.0745
    146  CG        30.0450   -6.4400   15.2030 C.ar  339  HIS339      0.0817
    147  ND1       29.1520   -6.6280   14.1670 N.ar  339  HIS339     -0.2268
    148  CD2       29.3610   -5.7870   16.1720 C.ar  339  HIS339      0.1154
    149  CE1       27.9800   -6.1230   14.5010 C.ar  339  HIS339      0.1986
    150  NE2       28.0810   -5.5950   15.7070 N.ar  339  HIS339     -0.2212
    151  N         33.5850   -3.0790   11.0130 N.3   342  ARG342     -0.1231
    152  CA        32.5160   -3.1450    9.9970 C.3   342  ARG342      0.1694
    153  C         31.4880   -2.0140   10.1890 C.2   342  ARG342      0.2592
    154  O         31.1690   -1.2770    9.2660 O.2   342  ARG342     -0.2718
    155  CB        31.8040   -4.5010   10.0810 C.3   342  ARG342      0.0321
    156  CG        32.7000   -5.6680    9.7100 C.3   342  ARG342      0.0489
    157  CD        31.9640   -7.0310    9.7300 C.3   342  ARG342      0.2205
    158  NE        32.9320   -8.1150    9.9160 N.pl3 342  ARG342     -0.0865
    159  CZ        32.8030   -9.3430    9.4340 C.cat 342  ARG342      0.5346
    160  NH1       31.7420   -9.6710    8.6990 N.pl3 342  ARG342      0.1354
    161  NH2       33.7510  -10.2450    9.6820 N.pl3 342  ARG342      0.1354
    162  N         30.9810   -1.8660   11.4060 N.am  343  HIS343     -0.1976
    163  CA        30.1340   -0.7190   11.7090 C.3   343  HIS343      0.1656
    164  C         30.7850    0.6270   11.3810 C.2   343  HIS343      0.2291
    165  O         30.1280    1.5290   10.8550 O.2   343  HIS343     -0.2864
    166  CB        29.7010   -0.7350   13.1820 C.3   343  HIS343      0.0771
    167  CG        28.4940   -1.5760   13.4300 C.ar  343  HIS343      0.0820
    168  ND1       27.2470   -1.2340   12.9510 N.ar  343  HIS343     -0.2267
    169  CD2       28.3400   -2.7590   14.0750 C.ar  343  HIS343      0.1154
    170  CE1       26.3730   -2.1620   13.3030 C.ar  343  HIS343      0.1986
    171  NE2       27.0120   -3.0980   13.9830 N.ar  343  HIS343     -0.2212
    172  N         31.0330    1.1280    7.5120 N.3   346  ALA346     -0.1245
    173  CA        29.7070    1.1050    6.9040 C.3   346  ALA346      0.1562
    174  C         28.9910    2.3970    7.2130 C.2   346  ALA346      0.2260
    175  O         28.3290    2.9810    6.3510 O.2   346  ALA346     -0.2867
    176  CB        28.8830   -0.1290    7.4190 C.3   346  ALA346      0.0290
    177  N         31.7130   -5.6820    0.5480 N.3   365  PHE365     -0.1241
    178  CA        31.8390   -6.7180    1.5820 C.3   365  PHE365      0.1605
    179  C         31.6960   -8.1300    1.0070 C.2   365  PHE365      0.2264
    180  O         32.4640   -9.0330    1.3420 O.2   365  PHE365     -0.2867
    181  CB        30.8180   -6.4840    2.7210 C.3   365  PHE365      0.0534
    182  CG        31.2950   -5.5270    3.7890 C.ar  365  PHE365     -0.0203
    183  CD1       32.2520   -4.5520    3.5030 C.ar  365  PHE365     -0.0042
    184  CD2       30.7740   -5.5960    5.0810 C.ar  365  PHE365     -0.0042
    185  CE1       32.6910   -3.6710    4.4890 C.ar  365  PHE365     -0.0003
    186  CE2       31.2050   -4.7170    6.0760 C.ar  365  PHE365     -0.0003
    187  CZ        32.1650   -3.7530    5.7840 C.ar  365  PHE365     -0.0000
    188  N         34.9210  -10.2410    2.0450 N.3   369  LEU369     -0.1245
    189  CA        34.7550  -10.9360    3.3350 C.3   369  LEU369      0.1561
    190  C         34.7840  -12.4490    3.1830 C.2   369  LEU369      0.2260
    191  O         34.0860  -13.0050    2.3160 O.2   369  LEU369     -0.2867
    192  CB        33.4140  -10.5670    3.9750 C.3   369  LEU369      0.0270
    193  CG        33.2400   -9.3180    4.8440 C.3   369  LEU369      0.0019
    194  CD1       31.7730   -9.1910    5.2920 C.3   369  LEU369      0.0001
    195  CD2       34.1520   -9.3610    6.0540 C.3   369  LEU369      0.0001
    196  N         33.4990  -14.3610    5.3410 N.3   371  ASP371     -0.1225
    197  CA        32.1990  -14.7840    5.8720 C.3   371  ASP371      0.1805
    198  C         31.0120  -14.1200    5.1490 C.2   371  ASP371      0.2598
    199  O         29.9000  -14.1340    5.6560 O.2   371  ASP371     -0.2718
    200  CB        32.1110  -14.5740    7.4010 C.3   371  ASP371      0.1424
    201  CG        32.3080  -13.1020    7.8190 C.2   371  ASP371      0.3668
    202  OD1       31.9080  -12.2100    7.0630 O.co2 371  ASP371     -0.2456
    203  OD2       32.8600  -12.8350    8.9120 O.co2 371  ASP371     -0.2456
    204  N         31.2590  -13.5590    3.9690 N.am  372  ALA372     -0.1966
    205  CA        30.2210  -12.8900    3.1780 C.3   372  ALA372      0.1728
    206  C         28.9410  -13.7310    3.1070 C.2   372  ALA372      0.2616
    207  O         28.9010  -14.8050    2.4940 O.2   372  ALA372     -0.2715
    208  CB        30.7280  -12.6150    1.7510 C.3   372  ALA372      0.0334
    209  N         27.8930  -13.2120    3.7110 N.am  373  ASP373     -0.1971
    210  CA        26.6620  -13.9580    3.8910 C.3   373  ASP373      0.1709
    211  C         25.4970  -13.1160    3.3710 C.2   373  ASP373      0.2293
    212  O         25.2150  -12.0540    3.9320 O.2   373  ASP373     -0.2864
    213  CB        26.4750  -14.2430    5.3830 C.3   373  ASP373      0.1436
    214  CG        25.2600  -15.1340    5.6550 C.2   373  ASP373      0.3671
    215  OD1       24.1100  -14.6490    5.5440 O.co2 373  ASP373     -0.2456
    216  OD2       25.4630  -16.3220    5.9770 O.co2 373  ASP373     -0.2456
    217  N         23.0170  -12.0290    6.2850 N.3   376  VAL376     -0.1231
    218  CA        23.5720  -11.2280    7.3650 C.3   376  VAL376      0.1692
    219  C         24.1480   -9.9090    6.8340 C.2   376  VAL376      0.2592
    220  O         23.9250   -8.8410    7.4120 O.2   376  VAL376     -0.2718
    221  CB        24.6240  -12.0330    8.1620 C.3   376  VAL376      0.0266
    222  CG1       25.3190  -11.1480    9.2180 C.3   376  VAL376      0.0020
    223  CG2       23.9600  -13.2580    8.8110 C.3   376  VAL376      0.0020
    224  N         24.8660   -9.9950    5.7200 N.am  377  ASN377     -0.1974
    225  CA        25.5330   -8.8450    5.1260 C.3   377  ASN377      0.1688
    226  C         24.5170   -7.7710    4.7240 C.2   377  ASN377      0.2292
    227  O         24.6130   -6.6300    5.1600 O.2   377  ASN377     -0.2864
    228  CB        26.3580   -9.2830    3.9080 C.3   377  ASN377      0.1181
    229  CG        27.3730   -8.1990    3.4300 C.2   377  ASN377      0.2629
    230  OD1       27.8430   -7.3850    4.2080 O.2   377  ASN377     -0.2716
    231  ND2       27.6800   -8.1990    2.1380 N.am  377  ASN377     -0.0877
    232  N         22.5850   -6.4450    7.8040 N.3   380  SER380     -0.1202
    233  CA        23.4250   -5.5600    8.6270 C.3   380  SER380      0.2020
    234  C         23.5100   -4.1870    8.0180 C.2   380  SER380      0.2618
    235  O         23.3220   -3.1860    8.7030 O.2   380  SER380     -0.2717
    236  CB        24.8580   -6.1070    8.8210 C.3   380  SER380      0.2103
    237  OG        24.8740   -7.2430    9.6900 O.3   380  SER380     -0.2182
    238  N         23.7780   -4.1460    6.7220 N.am  381  TRP381     -0.1975
    239  CA        23.8910   -2.8710    6.0200 C.3   381  TRP381      0.1640
    240  C         22.5880   -2.0580    6.0340 C.2   381  TRP381      0.2290
    241  O         22.6040   -0.8340    6.2190 O.2   381  TRP381     -0.2864
    242  CB        24.3960   -3.0830    4.5860 C.3   381  TRP381      0.0576
    243  CG        25.9100   -3.2260    4.4580 C.ar  381  TRP381      0.0006
    244  CD1       26.6260   -4.3830    4.4240 C.ar  381  TRP381      0.0946
    245  CD2       26.8660   -2.1630    4.3060 C.ar  381  TRP381      0.0152
    246  NE1       27.9710   -4.1090    4.2600 N.ar  381  TRP381     -0.2442
    247  CE2       28.1410   -2.7560    4.1850 C.ar  381  TRP381      0.0810
    248  CE3       26.7630   -0.7730    4.2430 C.ar  381  TRP381      0.0012
    249  CZ2       29.3080   -2.0070    4.0400 C.ar  381  TRP381      0.0191
    250  CZ3       27.9200   -0.0300    4.0750 C.ar  381  TRP381      0.0001
    251  CH2       29.1800   -0.6520    3.9790 C.ar  381  TRP381      0.0015
    252  N         22.0770   -0.7170    9.8360 N.3   384  LEU384     -0.1245
    253  CA        22.9570    0.3470   10.3160 C.3   384  LEU384      0.1561
    254  C         22.7780    1.6410    9.5420 C.2   384  LEU384      0.2260
    255  O         22.9930    2.7210   10.0890 O.2   384  LEU384     -0.2867
    256  CB        24.4180   -0.1000   10.2870 C.3   384  LEU384      0.0270
    257  CG        25.0700   -0.2580    8.9320 C.3   384  LEU384      0.0019
    258  CD1       25.6920    1.0910    8.4210 C.3   384  LEU384      0.0001
    259  CD2       26.1060   -1.3520    9.0420 C.3   384  LEU384      0.0001
@<TRIPOS>BOND
     1   177   178    1
     2   179   180    2
     3   179   178    1
     4    54    52    1
     5    53    52    1
     6   178   181    1
     7   208   205    1
     8    52    51    2
     9   188   189    1
    10   231   229   am
    11   191   190    2
    12   207   206    2
    13   181   182    1
    14    51    50    1
    15   206   205    1
    16   206   209   am
    17   205   204    1
    18   190   189    1
    19   189   192    1
    20   211   210    1
    21   211   212    2
    22   229   228    1
    23   229   230    2
    24   183   182   ar
    25   183   185   ar
    26   209   210    1
    27   182   184   ar
    28    50    49    1
    29   210   213    1
    30   228   225    1
    31   204   198   am
    32   192   193    1
    33   251   249   ar
    34   251   250   ar
    35   249   247   ar
    36   250   248   ar
    37   247   246   ar
    38   247   245   ar
    39   248   245   ar
    40   246   244   ar
    41   245   243   ar
    42   244   243   ar
    43   243   242    1
    44   185   187   ar
    45   242   239    1
    46   226   225    1
    47   226   227    2
    48   193   194    1
    49   193   195    1
    50    47    46    2
    51    49    48    1
    52   184   186   ar
    53   225   224    1
    54   198   199    2
    55   198   197    1
    56   196   197    1
    57   213   214    1
    58   215   214   ar
    59   214   216   ar
    60   224   219   am
    61    46    45    1
    62   187   186   ar
    63   197   200    1
    64   239   240    1
    65   239   238    1
    66   240   241    2
    67    48    45    1
    68   217   218    1
    69   175   174    2
    70   238   234   am
    71    45    44    1
    72   119   120    1
    73   219   218    1
    74   219   220    2
    75   173   174    1
    76   173   176    1
    77   173   172    1
    78   202   201   ar
    79   111   110    2
    80   218   221    1
    81   200   201    1
    82   232   233    1
    83   201   203   ar
    84   140   138    1
    85   234   233    1
    86   234   235    2
    87   120   121    1
    88   120   123    1
    89    44    38   am
    90   221   223    1
    91   221   222    1
    92   110   109    1
    93    39    38    2
    94   258   257    1
    95   139   137    1
    96   138   137    1
    97   233   236    1
    98   160   159    1
    99   121   122    2
   100   121   133   am
   101    38    37    1
   102   236   237    1
   103   257   259    1
   104   257   256    1
   105   123   124    1
   106   112   109    1
   107   112   113    1
   108    33    32    2
   109   154   153    2
   110   133   134    1
   111   109   108    1
   112   107   105    1
   113   159   161    1
   114   159   158    2
   115   137   134    1
   116   254   255    2
   117   254   253    1
   118   114   113   ar
   119   114   116   ar
   120   156   157    1
   121   156   155    1
   122   157   158    1
   123   252   253    1
   124    32    31    1
   125   113   115   ar
   126   152   155    1
   127   152   153    1
   128   152   151    1
   129    36    37    1
   130    37    40    1
   131   134   135    1
   132   153   162   am
   133   124   125   ar
   134   124   126   ar
   135   256   253    1
   136   116   118   ar
   137   125   127   ar
   138   105   104    2
   139   105   106    1
   140   104   103    1
   141   115   117   ar
   142    35    34    1
   143   165   164    2
   144   100    99    2
   145   136   135    2
   146    34    31    1
   147   118   117   ar
   148    40    41    1
   149    31    30    1
   150   102   103    1
   151   102   101    1
   152   164   163    1
   153   162   163    1
   154   126   129   ar
   155   126   128   ar
   156   127   128   ar
   157   163   166    1
   158    25    24    2
   159   129   131   ar
   160    99    98    1
   161    30    24   am
   162   128   130   ar
   163    98   101    1
   164    98    97    1
   165    24    23    1
   166    41    43    1
   167    41    42    1
   168    86    85    2
   169   168   170   ar
   170   168   167   ar
   171    21    20    2
   172   166   167    1
   173   131   132   ar
   174   170   171   ar
   175   144   143    2
   176   167   169   ar
   177    23    22    1
   178    23    26    1
   179    97    85   am
   180   130   132   ar
   181    85    84    1
   182    20    22   am
   183    20    19    1
   184   171   169   ar
   185   142   141    1
   186   142   143    1
   187   142   145    1
   188   147   149   ar
   189   147   146   ar
   190   149   150   ar
   191    19    18    1
   192    26    27    1
   193    93    95   ar
   194    93    90   ar
   195   145   146    1
   196    29    27    1
   197   146   148   ar
   198    95    96   ar
   199    84    87    1
   200    84    83    1
   201    78    77    2
   202    18    13   am
   203    87    88    1
   204   150   148   ar
   205    27    28    1
   206    69    68    2
   207    82    80    1
   208    90    88   ar
   209    90    92   ar
   210    77    76    1
   211    96    94   ar
   212    88    89   ar
   213    76    79    1
   214    76    75    1
   215    13    14    2
   216    13    12    1
   217    11    12    1
   218    68    75   am
   219    68    67    1
   220    62    64   ar
   221    62    60   ar
   222    79    80    1
   223    80    81    1
   224    12    15    1
   225    92    94   ar
   226    92    91   ar
   227    59    60    1
   228    59    56    1
   229    64    65   ar
   230    89    91   ar
   231    55    56    1
   232    60    61   ar
   233    67    70    1
   234    67    66    1
   235    70    71    1
   236    56    57    1
   237    65    63   ar
   238    15    16    1
   239    15    17    1
   240    71    72    1
   241    61    63   ar
   242    57    58    2
   243    72    74   am
   244    72    73    2
   245     5     6    1
   246     5     2    1
   247     7     6   ar
   248     7     9   ar
   249     1     2    1
   250     6     8   ar
   251     9    10   ar
   252     2     3    1
   253     8    10   ar
   254     3     4    2
