@<TRIPOS>MOLECULE
tmp/4i6hA00.pdb
 154 148 0 0 0
SMALL
GASTEIGER

@<TRIPOS>ATOM
      1  N          7.6070   13.1790    6.6160 N.3    18  LEU18      -0.1231
      2  CA         7.4790   12.4490    7.8820 C.3    18  LEU18       0.1693
      3  C          8.3270   13.0500    8.9960 C.2    18  LEU18       0.2593
      4  O          7.9620   12.9550   10.1700 O.2    18  LEU18      -0.2718
      5  CB         7.8200   10.9630    7.7070 C.3    18  LEU18       0.0284
      6  CG         6.8630   10.0840    6.8940 C.3    18  LEU18       0.0019
      7  CD1        7.4550    8.6960    6.7200 C.3    18  LEU18       0.0001
      8  CD2        5.4790   10.0080    7.5320 C.3    18  LEU18       0.0001
      9  N          9.4550   13.6600    8.6280 N.am   19  GLY19      -0.1942
     10  CA        10.2940   14.3710    9.5930 C.3    19  GLY19       0.2014
     11  C         11.7310   14.5830    9.1640 C.2    19  GLY19       0.2639
     12  O         12.0130   14.7510    7.9790 O.2    19  GLY19      -0.2714
     13  N         12.6340   14.5780   10.1450 N.am   20  LYS20      -0.1963
     14  CA        14.0700   14.7620    9.9100 C.3    20  LYS20       0.1728
     15  C         14.8630   13.5540   10.4240 C.2    20  LYS20       0.2616
     16  O         14.4350   12.8780   11.3650 O.2    20  LYS20      -0.2715
     17  CB        14.5600   16.0540   10.5840 C.3    20  LYS20       0.0311
     18  CG        15.7800   16.6830    9.9230 C.3    20  LYS20       0.0038
     19  CD        16.1530   18.0210   10.5540 C.3    20  LYS20       0.0206
     20  CE        17.3230   17.8990   11.5290 C.3    20  LYS20       0.1093
     21  NZ        17.8450   19.2360   11.9360 N.3    20  LYS20      -0.1314
     22  N         16.0160   13.2940    9.8090 N.am   21  GLY21      -0.1955
     23  CA        16.8740   12.1810   10.2210 C.3    21  GLY21       0.1869
     24  C         18.3570   12.3640    9.9400 C.2    21  GLY21       0.2309
     25  O         18.9910   11.4890    9.3400 O.2    21  GLY21      -0.2863
     26  N         12.7520   12.8930    5.3780 N.3    26  CYS26      -0.1235
     27  CA        11.8530   11.7420    5.3760 C.3    26  CYS26       0.1677
     28  C         10.4520   12.0280    4.8520 C.2    26  CYS26       0.2270
     29  O          9.7640   12.9160    5.3460 O.2    26  CYS26      -0.2867
     30  CB        11.8030   11.0920    6.7570 C.3    26  CYS26       0.0956
     31  SG        13.4180   10.5110    7.3260 S.3    26  CYS26      -0.0801
     32  N          8.2140    4.2320    4.5080 N.3    39  ALA39      -0.1231
     33  CA         8.8240    5.4190    5.0860 C.3    39  ALA39       0.1694
     34  C         10.2250    5.5410    4.5160 C.2    39  ALA39       0.2592
     35  O         11.0850    4.7040    4.8140 O.2    39  ALA39      -0.2718
     36  CB         8.8720    5.3070    6.6020 C.3    39  ALA39       0.0304
     37  N         10.4470    6.5690    3.6900 N.am   40  ALA40      -0.1966
     38  CA        11.7170    6.7180    2.9730 C.3    40  ALA40       0.1728
     39  C         12.6860    7.7480    3.5610 C.2    40  ALA40       0.2616
     40  O         12.2900    8.8380    3.9600 O.2    40  ALA40      -0.2715
     41  CB        11.4680    7.0040    1.4940 C.3    40  ALA40       0.0334
     42  N         13.9600    7.3690    3.6180 N.am   41  LYS41      -0.1977
     43  CA        15.0510    8.3100    3.8380 C.3    41  LYS41       0.1596
     44  C         15.5150    8.8290    2.4880 C.2    41  LYS41       0.2287
     45  O         15.9090    8.0460    1.6160 O.2    41  LYS41      -0.2864
     46  CB        16.2380    7.6300    4.5110 C.3    41  LYS41       0.0298
     47  CG        16.0610    7.2430    5.9610 C.3    41  LYS41       0.0038
     48  CD        17.4500    7.0730    6.5660 C.3    41  LYS41       0.0206
     49  CE        17.3980    6.5360    7.9720 C.3    41  LYS41       0.1093
     50  NZ        18.7690    6.2460    8.4520 N.3    41  LYS41      -0.1314
     51  N         21.7670   -3.6120    7.0230 N.3    64  HIS64      -0.1241
     52  CA        20.3170   -3.6030    7.2800 C.3    64  HIS64       0.1621
     53  C         19.5120   -4.4660    6.3090 C.2    64  HIS64       0.2264
     54  O         18.5520   -5.1360    6.7110 O.2    64  HIS64      -0.2867
     55  CB        19.7640   -2.1730    7.2340 C.3    64  HIS64       0.0745
     56  CG        18.3840   -2.0250    7.8060 C.ar   64  HIS64       0.0817
     57  ND1       17.8770   -0.8090    8.2090 N.ar   64  HIS64      -0.2268
     58  CD2       17.4160   -2.9380    8.0670 C.ar   64  HIS64       0.1154
     59  CE1       16.6490   -0.9750    8.6710 C.ar   64  HIS64       0.1986
     60  NE2       16.3490   -2.2600    8.6040 N.ar   64  HIS64      -0.2212
     61  N         12.7720   -3.4150   11.9100 N.3    73  VAL73      -0.1245
     62  CA        12.2670   -2.6440   10.7750 C.3    73  VAL73       0.1561
     63  C         12.7240   -3.3070    9.4880 C.2    73  VAL73       0.2260
     64  O         13.9100   -3.5680    9.3030 O.2    73  VAL73      -0.2867
     65  CB        12.7640   -1.1860   10.7990 C.3    73  VAL73       0.0252
     66  CG1       12.5100   -0.5200    9.4580 C.3    73  VAL73       0.0019
     67  CG2       12.1020   -0.4010   11.9320 C.3    73  VAL73       0.0019
     68  N         11.6520    1.7790    3.9520 N.3    89  LEU89      -0.1231
     69  CA        11.5800    0.9720    5.1660 C.3    89  LEU89       0.1693
     70  C         10.1460    0.7880    5.6400 C.2    89  LEU89       0.2592
     71  O          9.2500    1.5380    5.2510 O.2    89  LEU89      -0.2718
     72  CB        12.4270    1.6140    6.2730 C.3    89  LEU89       0.0284
     73  CG        13.9000    1.8900    5.9310 C.3    89  LEU89       0.0019
     74  CD1       14.4990    3.0130    6.7790 C.3    89  LEU89       0.0001
     75  CD2       14.7400    0.6260    6.0230 C.3    89  LEU89       0.0001
     76  N          9.9420   -0.2260    6.4770 N.am   90  GLU90      -0.1966
     77  CA         8.6440   -0.5170    7.0600 C.3    90  GLU90       0.1733
     78  C          7.9900    0.7400    7.6340 C.2    90  GLU90       0.2616
     79  O          8.5340    1.3670    8.5410 O.2    90  GLU90      -0.2715
     80  CB         8.8000   -1.5710    8.1550 C.3    90  GLU90       0.0429
     81  CG         7.5460   -2.3610    8.4210 C.3    90  GLU90       0.1163
     82  CD         7.7240   -3.4050    9.4990 C.2    90  GLU90       0.3649
     83  OE1        6.6910   -3.8990    9.9920 O.co2  90  GLU90      -0.2457
     84  OE2        8.8810   -3.7370    9.8460 O.co2  90  GLU90      -0.2457
     85  N          6.8300    1.0980    7.0880 N.am   91  TYR91      -0.1960
     86  CA         6.0350    2.2180    7.5750 C.3    91  TYR91       0.1771
     87  C          5.4350    1.8610    8.9330 C.2    91  TYR91       0.2620
     88  O          4.6620    0.9080    9.0530 O.2    91  TYR91      -0.2715
     89  CB         4.9330    2.5400    6.5670 C.3    91  TYR91       0.0574
     90  CG         4.1640    3.8240    6.7980 C.ar   91  TYR91      -0.0198
     91  CD1        4.5340    5.0070    6.1570 C.ar   91  TYR91      -0.0009
     92  CD2        3.0350    3.8450    7.6210 C.ar   91  TYR91      -0.0009
     93  CE1        3.8150    6.1970    6.3530 C.ar   91  TYR91       0.0417
     94  CE2        2.3130    5.0220    7.8240 C.ar   91  TYR91       0.0417
     95  CZ         2.7030    6.1930    7.1860 C.ar   91  TYR91       0.1957
     96  OH         1.9770    7.3570    7.3940 O.3    91  TYR91      -0.2866
     97  N          5.8210    2.6330    9.9450 N.am   92  CYS92      -0.1954
     98  CA         5.3460    2.4610   11.3140 C.3    92  CYS92       0.1843
     99  C          4.5350    3.6920   11.7130 C.2    92  CYS92       0.2626
    100  O          5.0890    4.7030   12.1540 O.2    92  CYS92      -0.2714
    101  CB         6.5280    2.2370   12.2620 C.3    92  CYS92       0.0997
    102  SG         7.4620    0.7220   11.9180 S.3    92  CYS92      -0.0797
    103  N          3.2200    3.5870   11.5470 N.am   93  SER93      -0.1950
    104  CA         2.3110    4.7380   11.5760 C.3    93  SER93       0.1924
    105  C          2.1340    5.3970   12.9450 C.2    93  SER93       0.2314
    106  O          1.6880    6.5470   13.0400 O.2    93  SER93      -0.2863
    107  CB         0.9440    4.3260   11.0310 C.3    93  SER93       0.2116
    108  OG         0.2570    3.5220   11.9710 O.3    93  SER93      -0.2180
    109  N          4.5700    5.8460   15.0820 N.3    95  ARG95      -0.1231
    110  CA         5.8290    6.5190   15.3280 C.3    95  ARG95       0.1694
    111  C          6.7940    5.7480   16.1780 C.2    95  ARG95       0.2592
    112  O          6.9970    4.6250   15.8960 O.2    95  ARG95      -0.2718
    113  CB         5.6420    7.9580   15.8140 C.3    95  ARG95       0.0321
    114  CG         4.7320    8.8570   14.9720 C.3    95  ARG95       0.0489
    115  CD         4.0600    9.9050   15.8270 C.3    95  ARG95       0.2205
    116  NE         4.7550   11.1200   15.6590 N.pl3  95  ARG95      -0.0865
    117  CZ         4.5690   12.2640   16.3010 C.cat  95  ARG95       0.5346
    118  NH1        3.6470   12.4280   17.2720 N.pl3  95  ARG95       0.1354
    119  NH2        5.3480   13.2680   15.9100 N.pl3  95  ARG95       0.1354
    120  N          7.3900    6.3640   17.1820 N.am   96  SER96      -0.1952
    121  CA         8.3340    5.6640   18.0540 C.3    96  SER96       0.1924
    122  C          7.9450    5.7300   19.5320 C.2    96  SER96       0.2314
    123  O          6.9850    6.4030   19.9050 O.2    96  SER96      -0.2863
    124  CB         9.7670    6.1680   17.8330 C.3    96  SER96       0.2116
    125  OG        10.0620    7.2900   18.6480 O.3    96  SER96      -0.2180
    126  N          8.1500    9.0540   21.4470 N.3    99  HIS99      -0.1241
    127  CA         6.9070    9.8080   21.2700 C.3    99  HIS99       0.1621
    128  C          5.8550    9.4360   22.3100 C.2    99  HIS99       0.2264
    129  O          5.1730   10.3060   22.8500 O.2    99  HIS99      -0.2867
    130  CB         6.3400    9.5800   19.8620 C.3    99  HIS99       0.0745
    131  CG         7.1870   10.1520   18.7710 C.ar   99  HIS99       0.0817
    132  ND1        6.9360   11.3830   18.2060 N.ar   99  HIS99      -0.2268
    133  CD2        8.2850    9.6680   18.1440 C.ar   99  HIS99       0.1154
    134  CE1        7.8410   11.6310   17.2760 C.ar   99  HIS99       0.1986
    135  NE2        8.6690   10.6050   17.2160 N.ar   99  HIS99      -0.2212
    136  N         10.2200    1.5240   16.8140 N.3   142  PHE142     -0.1241
    137  CA         9.1050    1.9810   15.9900 C.3   142  PHE142      0.1605
    138  C          7.8760    1.0940   16.1260 C.2   142  PHE142      0.2264
    139  O          7.9770   -0.1290   16.1200 O.2   142  PHE142     -0.2867
    140  CB         9.5340    2.0970   14.5200 C.3   142  PHE142      0.0534
    141  CG        10.6530    3.0830   14.2920 C.ar  142  PHE142     -0.0203
    142  CD1       11.9840    2.6610   14.2900 C.ar  142  PHE142     -0.0042
    143  CD2       10.3810    4.4300   14.0950 C.ar  142  PHE142     -0.0042
    144  CE1       13.0260    3.5730   14.0960 C.ar  142  PHE142     -0.0003
    145  CE2       11.4130    5.3420   13.8950 C.ar  142  PHE142     -0.0003
    146  CZ        12.7370    4.9120   13.9000 C.ar  142  PHE142     -0.0000
    147  N         16.7060    2.0300   12.8310 N.3   153  ASP153     -0.1239
    148  CA        17.9030    2.8750   12.7130 C.3   153  ASP153      0.1674
    149  C         19.2550    2.1840   12.9310 C.2   153  ASP153      0.2266
    150  O         19.9170    2.3320   13.9280 O.2   153  ASP153     -0.2867
    151  CB        17.7450    4.1730   13.5150 C.3   153  ASP153      0.1410
    152  CG        18.6300    5.2810   13.0440 C.2   153  ASP153      0.3668
    153  OD1       18.2700    6.4060   13.2840 O.co2 153  ASP153     -0.2456
    154  OD2       19.7040    5.0820   12.5280 O.co2 153  ASP153     -0.2456
@<TRIPOS>BOND
     1    41    38    1
     2    45    44    2
     3    44    43    1
     4    38    39    1
     5    38    37    1
     6    39    42   am
     7    39    40    2
     8    42    43    1
     9    37    34   am
    10    43    46    1
    11    68    69    1
    12    32    33    1
    13    46    47    1
    14    34    35    2
    15    34    33    1
    16    28    29    2
    17    28    27    1
    18    33    36    1
    19    69    70    1
    20    69    72    1
    21    71    70    2
    22    27    26    1
    23    27    30    1
    24    70    76   am
    25    73    75    1
    26    73    72    1
    27    73    74    1
    28    47    48    1
    29    91    93   ar
    30    91    90   ar
    31    53    54    2
    32    53    52    1
    33    93    95   ar
    34    76    77    1
    35    48    49    1
    36    89    90    1
    37    89    86    1
    38     1     2    1
    39     7     6    1
    40    30    31    1
    41    90    92   ar
    42     6     8    1
    43     6     5    1
    44    51    52    1
    45    77    78    1
    46    77    80    1
    47    85    86    1
    48    85    78   am
    49    95    96    1
    50    95    94   ar
    51    55    52    1
    52    55    56    1
    53    86    87    1
    54    92    94   ar
    55    78    79    2
    56     5     2    1
    57    56    58   ar
    58    56    57   ar
    59     2     3    1
    60    49    50    1
    61    12    11    2
    62    58    60   ar
    63    80    81    1
    64    57    59   ar
    65    81    82    1
    66    60    59   ar
    67     9     3   am
    68     9    10    1
    69    87    88    2
    70    87    97   am
    71     3     4    2
    72    11    10    1
    73    11    13   am
    74    64    63    2
    75    25    24    2
    76    66    65    1
    77    63    62    1
    78    82    84   ar
    79    82    83   ar
    80    22    23    1
    81    22    15   am
    82    14    13    1
    83    14    15    1
    84    14    17    1
    85    18    19    1
    86    18    17    1
    87    24    23    1
    88    97    98    1
    89    15    16    2
    90    19    20    1
    91    62    65    1
    92    62    61    1
    93    65    67    1
    94   107   104    1
    95   107   108    1
    96    98    99    1
    97    98   101    1
    98    20    21    1
    99   103   104    1
   100   103    99   am
   101   104   105    1
   102    99   100    2
   103   102   101    1
   104   154   152   ar
   105   148   147    1
   106   148   149    1
   107   148   151    1
   108   149   150    2
   109   105   106    2
   110   152   153   ar
   111   152   151    1
   112   145   146   ar
   113   145   143   ar
   114   146   144   ar
   115   143   141   ar
   116   144   142   ar
   117   142   141   ar
   118   141   140    1
   119   140   137    1
   120   114   113    1
   121   114   115    1
   122   109   110    1
   123   110   113    1
   124   110   111    1
   125   116   115    1
   126   116   117    2
   127   112   111    2
   128   119   117    1
   129   137   138    1
   130   137   136    1
   131   139   138    2
   132   111   120   am
   133   117   118    1
   134   120   121    1
   135   135   134   ar
   136   135   133   ar
   137   134   132   ar
   138   124   121    1
   139   124   125    1
   140   121   122    1
   141   133   131   ar
   142   132   131   ar
   143   131   130    1
   144   122   123    2
   145   130   127    1
   146   127   126    1
   147   127   128    1
   148   128   129    2
