@<TRIPOS>MOLECULE
tmp/4i6kA00.pdb
 152 147 0 0 0
SMALL
GASTEIGER

@<TRIPOS>ATOM
      1  N         31.2760   -9.2320    9.6860 N.3     7  HIS7       -0.1241
      2  CA        30.9190   -8.1130    8.8350 C.3     7  HIS7        0.1621
      3  C         32.1070   -7.2480    8.4370 C.2     7  HIS7        0.2264
      4  O         32.5030   -6.3330    9.1630 O.2     7  HIS7       -0.2867
      5  CB        29.8550   -7.2570    9.5180 C.3     7  HIS7        0.0745
      6  CG        28.9820   -6.5080    8.5610 C.ar    7  HIS7        0.0817
      7  ND1       27.7490   -6.9790    8.1600 N.ar    7  HIS7       -0.2268
      8  CD2       29.1640   -5.3280    7.9190 C.ar    7  HIS7        0.1154
      9  CE1       27.2060   -6.1150    7.3170 C.ar    7  HIS7        0.1986
     10  NE2       28.0440   -5.1070    7.1520 N.ar    7  HIS7       -0.2212
     11  N         34.1410   -5.7540    4.4810 N.3     9  HIS9       -0.1241
     12  CA        34.0200   -5.6550    3.0320 C.3     9  HIS9        0.1621
     13  C         35.4060   -5.5750    2.4200 C.2     9  HIS9        0.2264
     14  O         36.2810   -4.9290    2.9720 O.2     9  HIS9       -0.2867
     15  CB        33.2360   -4.4050    2.6340 C.3     9  HIS9        0.0745
     16  CG        31.9240   -4.2440    3.3390 C.ar    9  HIS9        0.0817
     17  ND1       30.7690   -4.8670    2.9180 N.ar    9  HIS9       -0.2268
     18  CD2       31.5700   -3.4850    4.4060 C.ar    9  HIS9        0.1154
     19  CE1       29.7640   -4.5120    3.7010 C.ar    9  HIS9        0.1986
     20  NE2       30.2240   -3.6790    4.6160 N.ar    9  HIS9       -0.2212
     21  N         25.9400    5.7450   -3.4690 N.3    22  ARG22      -0.1231
     22  CA        25.8650    6.8280   -2.4810 C.3    22  ARG22       0.1694
     23  C         27.2570    7.4080   -2.2570 C.2    22  ARG22       0.2592
     24  O         27.4030    8.5730   -1.8890 O.2    22  ARG22      -0.2718
     25  CB        25.3080    6.3230   -1.1410 C.3    22  ARG22       0.0321
     26  CG        23.7950    6.1730   -1.0780 C.3    22  ARG22       0.0489
     27  CD        23.3180    5.6970    0.3190 C.3    22  ARG22       0.2205
     28  NE        23.3650    4.2370    0.4860 N.pl3  22  ARG22      -0.0865
     29  CZ        24.1460    3.6000    1.3600 C.cat  22  ARG22       0.5346
     30  NH1       24.9540    4.2830    2.1590 N.pl3  22  ARG22       0.1354
     31  NH2       24.1210    2.2760    1.4390 N.pl3  22  ARG22       0.1354
     32  N         28.2710    6.5710   -2.4540 N.am   23  TYR23      -0.1976
     33  CA        29.6570    6.9690   -2.2940 C.3    23  TYR23       0.1639
     34  C         30.5610    5.9800   -2.9950 C.2    23  TYR23       0.2290
     35  O         30.1400    4.8740   -3.3530 O.2    23  TYR23      -0.2864
     36  CB        30.0440    7.0620   -0.8180 C.3    23  TYR23       0.0560
     37  CG        30.0910    5.7330   -0.1050 C.ar   23  TYR23      -0.0198
     38  CD1       31.3020    5.1050    0.1660 C.ar   23  TYR23      -0.0009
     39  CD2       28.9190    5.1080    0.3040 C.ar   23  TYR23      -0.0009
     40  CE1       31.3420    3.8890    0.8200 C.ar   23  TYR23       0.0417
     41  CE2       28.9430    3.8950    0.9550 C.ar   23  TYR23       0.0417
     42  CZ        30.1530    3.2870    1.2120 C.ar   23  TYR23       0.1957
     43  OH        30.1610    2.0740    1.8660 O.3    23  TYR23      -0.2866
     44  N         29.2620   -4.9510   -0.8950 N.3    51  PRO51      -0.2102
     45  CA        29.0440   -3.5330   -0.6410 C.3    51  PRO51       0.1504
     46  C         28.0120   -2.9130   -1.5690 C.2    51  PRO51       0.2576
     47  O         27.9060   -3.2960   -2.7260 O.2    51  PRO51      -0.2718
     48  CB        30.4180   -2.9060   -0.9030 C.3    51  PRO51       0.0282
     49  CG        31.3670   -4.0500   -1.1140 C.3    51  PRO51       0.0208
     50  CD        30.5520   -5.2010   -1.5540 C.3    51  PRO51       0.0893
     51  N         27.2580   -1.9570   -1.0400 N.am   52  SER52      -0.1938
     52  CA        26.2580   -1.2240   -1.8050 C.3    52  SER52       0.2055
     53  C         26.7920   -0.6630   -3.1190 C.2    52  SER52       0.2643
     54  O         26.1510   -0.7950   -4.1630 O.2    52  SER52      -0.2714
     55  CB        25.7070   -0.0680   -0.9690 C.3    52  SER52       0.2130
     56  OG        26.7680    0.7490   -0.5050 O.3    52  SER52      -0.2179
     57  N         27.9640   -0.0390   -3.0760 N.am   53  PHE53      -0.1973
     58  CA        28.4870    0.6440   -4.2610 C.3    53  PHE53       0.1639
     59  C         28.9520   -0.2990   -5.3500 C.2    53  PHE53       0.2290
     60  O         29.2500    0.1420   -6.4620 O.2    53  PHE53      -0.2864
     61  CB        29.6090    1.6140   -3.8920 C.3    53  PHE53       0.0560
     62  CG        30.6850    1.0010   -3.0690 C.ar   53  PHE53      -0.0200
     63  CD1       31.7370    0.3240   -3.6780 C.ar   53  PHE53      -0.0042
     64  CD2       30.6520    1.0970   -1.6820 C.ar   53  PHE53      -0.0042
     65  CE1       32.7500   -0.2480   -2.9190 C.ar   53  PHE53      -0.0003
     66  CE2       31.6450    0.5240   -0.9170 C.ar   53  PHE53      -0.0003
     67  CZ        32.6960   -0.1520   -1.5300 C.ar   53  PHE53      -0.0000
     68  N         21.7890   -9.9580    0.8650 N.3    99  ARG99      -0.1245
     69  CA        21.5970   -8.7630    1.6760 C.3    99  ARG99       0.1563
     70  C         20.6520   -7.7690    1.0190 C.2    99  ARG99       0.2260
     71  O         20.7780   -7.4650   -0.1670 O.2    99  ARG99      -0.2867
     72  CB        22.9430   -8.0910    1.9230 C.3    99  ARG99       0.0307
     73  CG        22.9370   -6.9910    2.9730 C.3    99  ARG99       0.0489
     74  CD        24.3410   -6.4060    3.1000 C.3    99  ARG99       0.2205
     75  NE        24.5050   -5.5980    4.3040 N.pl3  99  ARG99      -0.0865
     76  CZ        25.1930   -4.4610    4.3510 C.cat  99  ARG99       0.5346
     77  NH1       25.2930   -3.7980    5.4950 N.pl3  99  ARG99       0.1354
     78  NH2       25.7620   -3.9800    3.2500 N.pl3  99  ARG99       0.1354
     79  N         20.2250   -4.1570    1.3080 N.3   101  ASN101     -0.1240
     80  CA        20.7930   -2.9180    1.8120 C.3   101  ASN101      0.1653
     81  C         19.9770   -1.7780    1.2590 C.2   101  ASN101      0.2266
     82  O         20.1630   -1.3720    0.1210 O.2   101  ASN101     -0.2867
     83  CB        22.2540   -2.7850    1.3940 C.3   101  ASN101      0.1155
     84  CG        22.9530   -1.6400    2.0900 C.2   101  ASN101      0.2627
     85  OD1       22.3360   -0.8890    2.8490 O.2   101  ASN101     -0.2716
     86  ND2       24.2520   -1.5040    1.8440 N.am  101  ASN101     -0.0877
     87  N         20.1260   -4.4220    5.9640 N.3   132  HIS132     -0.1241
     88  CA        20.6670   -3.1710    6.4200 C.3   132  HIS132      0.1621
     89  C         19.6510   -2.1180    6.0290 C.2   132  HIS132      0.2264
     90  O         19.4260   -1.8810    4.8470 O.2   132  HIS132     -0.2867
     91  CB        22.0160   -2.8900    5.7840 C.3   132  HIS132      0.0745
     92  CG        22.6840   -1.6740    6.3380 C.ar  132  HIS132      0.0817
     93  ND1       23.1910   -0.6680    5.5400 N.ar  132  HIS132     -0.2268
     94  CD2       22.8960   -1.2840    7.6180 C.ar  132  HIS132      0.1154
     95  CE1       23.7060    0.2760    6.3060 C.ar  132  HIS132      0.1986
     96  NE2       23.5420   -0.0730    7.5710 N.ar  132  HIS132     -0.2212
     97  N         24.0490   -3.8650   12.1720 N.3   156  HIS156     -0.1241
     98  CA        24.3780   -2.6980   13.0090 C.3   156  HIS156      0.1621
     99  C         23.2730   -2.2540   13.9810 C.2   156  HIS156      0.2264
    100  O         22.6980   -1.1660   13.8400 O.2   156  HIS156     -0.2867
    101  CB        24.8060   -1.5200   12.1270 C.3   156  HIS156      0.0745
    102  CG        25.7520   -1.8970   11.0280 C.ar  156  HIS156      0.0817
    103  ND1       26.7560   -2.8280   11.1970 N.ar  156  HIS156     -0.2268
    104  CD2       25.8570   -1.4570    9.7490 C.ar  156  HIS156      0.1154
    105  CE1       27.4260   -2.9580   10.0640 C.ar  156  HIS156      0.1986
    106  NE2       26.9020   -2.1380    9.1700 N.ar  156  HIS156     -0.2212
    107  N         20.2820   -0.1630   13.1630 N.3   159  ARG159     -0.1245
    108  CA        20.4610    1.2260   12.6970 C.3   159  ARG159      0.1563
    109  C         19.5550    2.2260   13.3980 C.2   159  ARG159      0.2260
    110  O         18.8650    3.0220   12.7550 O.2   159  ARG159     -0.2867
    111  CB        20.2990    1.3340   11.1770 C.3   159  ARG159      0.0307
    112  CG        21.4990    0.7720   10.3740 C.3   159  ARG159      0.0489
    113  CD        22.8080    1.4590   10.7550 C.3   159  ARG159      0.2205
    114  NE        22.7670    2.8920   10.4470 N.pl3 159  ARG159     -0.0865
    115  CZ        23.1330    3.4210    9.2820 C.cat 159  ARG159      0.5346
    116  NH1       23.5700    2.6450    8.3070 N.pl3 159  ARG159      0.1354
    117  NH2       23.0600    4.7280    9.0840 N.pl3 159  ARG159      0.1354
    118  N         27.7350    4.0490   13.4550 N.3   192  ARG192     -0.1245
    119  CA        26.7320    4.5250   12.4810 C.3   192  ARG192      0.1563
    120  C         25.4570    4.9870   13.1870 C.2   192  ARG192      0.2260
    121  O         24.4610    5.3780   12.5600 O.2   192  ARG192     -0.2867
    122  CB        26.4140    3.4520   11.4370 C.3   192  ARG192      0.0307
    123  CG        27.6490    2.8970   10.7550 C.3   192  ARG192      0.0489
    124  CD        27.3090    2.1400    9.4850 C.3   192  ARG192      0.2205
    125  NE        28.5110    1.6190    8.8340 N.pl3 192  ARG192     -0.0865
    126  CZ        29.2710    2.3160    7.9960 C.cat 192  ARG192      0.5346
    127  NH1       30.3480    1.7610    7.4490 N.pl3 192  ARG192      0.1354
    128  NH2       28.9590    3.5730    7.7080 N.pl3 192  ARG192      0.1354
    129  N         32.8460   -4.3610   10.8210 N.3   224  ASP224     -0.1239
    130  CA        32.4630   -3.4550    9.7450 C.3   224  ASP224      0.1674
    131  C         33.6740   -2.7200    9.1760 C.2   224  ASP224      0.2266
    132  O         33.5650   -1.5810    8.7220 O.2   224  ASP224     -0.2867
    133  CB        31.4220   -2.4470   10.2380 C.3   224  ASP224      0.1410
    134  CG        30.8090   -1.6430    9.1080 C.2   224  ASP224      0.3668
    135  OD1       31.0850   -0.4280    9.0240 O.co2 224  ASP224     -0.2456
    136  OD2       30.0500   -2.2260    8.3050 O.co2 224  ASP224     -0.2456
    137  N         33.7070    2.3550    6.1830 N.3   228  THR228     -0.1203
    138  CA        33.5390    3.3510    5.1110 C.3   228  THR228      0.1994
    139  C         32.8850    4.6470    5.5780 C.2   228  THR228      0.2617
    140  O         31.9200    4.6200    6.3510 O.2   228  THR228     -0.2717
    141  CB        32.6940    2.8000    3.9300 C.3   228  THR228      0.1784
    142  OG1       31.5370    2.1000    4.4300 O.3   228  THR228     -0.2211
    143  CG2       33.5410    1.8750    3.0400 C.3   228  THR228      0.0376
    144  N         33.3940    5.7720    5.0750 N.am  229  GLN229     -0.1979
    145  CA        32.8430    7.0760    5.4040 C.3   229  GLN229      0.1601
    146  C         33.0640    7.3830    6.8770 C.2   229  GLN229      0.2287
    147  O         32.4440    8.2840    7.4240 O.2   229  GLN229     -0.2864
    148  CB        31.3450    7.1450    5.0680 C.3   229  GLN229      0.0394
    149  CG        31.0370    6.8690    3.6130 C.3   229  GLN229      0.0908
    150  CD        29.7060    7.4340    3.1680 C.2   229  GLN229      0.2608
    151  OE1       29.6470    8.3060    2.3010 O.2   229  GLN229     -0.2717
    152  NE2       28.6280    6.9410    3.7580 N.am  229  GLN229     -0.0878
@<TRIPOS>BOND
     1    60    59    2
     2    59    58    1
     3    58    61    1
     4    58    57    1
     5    54    53    2
     6    61    62    1
     7    63    62   ar
     8    63    65   ar
     9    21    22    1
    10    35    34    2
    11    53    57   am
    12    53    52    1
    13    62    64   ar
    14    34    33    1
    15    65    67   ar
    16    47    46    2
    17    22    23    1
    18    22    25    1
    19    32    33    1
    20    32    23   am
    21    33    36    1
    22    23    24    2
    23    52    51    1
    24    52    55    1
    25    64    66   ar
    26    46    51   am
    27    46    45    1
    28    50    49    1
    29    50    44    1
    30    67    66   ar
    31    25    26    1
    32    49    48    1
    33    26    27    1
    34    55    56    1
    35    48    45    1
    36    44    45    1
    37    36    37    1
    38    71    70    2
    39    37    38   ar
    40    37    39   ar
    41    82    81    2
    42    38    40   ar
    43    39    41   ar
    44    27    28    1
    45    28    29    2
    46    40    42   ar
    47    68    69    1
    48    41    42   ar
    49    70    69    1
    50    42    43    1
    51    81    80    1
    52    79    80    1
    53    29    31    1
    54    29    30    1
    55    83    80    1
    56    83    84    1
    57    69    72    1
    58    86    84   am
    59    72    73    1
    60    84    85    2
    61   151   150    2
    62    13    14    2
    63    13    12    1
    64    15    12    1
    65    15    16    1
    66    17    16   ar
    67    17    19   ar
    68    73    74    1
    69    12    11    1
    70   143   141    1
    71    74    75    1
    72   150   149    1
    73   150   152   am
    74    78    76    1
    75    16    18   ar
    76   149   148    1
    77    19    20   ar
    78   141   142    1
    79   141   138    1
    80    75    76    2
    81    76    77    1
    82    18    20   ar
    83    90    89    2
    84   148   145    1
    85   144   145    1
    86   144   139   am
    87   138   139    1
    88   138   137    1
    89   145   146    1
    90    93    95   ar
    91    93    92   ar
    92   139   140    2
    93    91    92    1
    94    91    88    1
    95    87    88    1
    96    89    88    1
    97    95    96   ar
    98    92    94   ar
    99   146   147    2
   100    10     9   ar
   101    10     8   ar
   102     9     7   ar
   103   127   126    1
   104    96    94   ar
   105   128   126    1
   106     8     6   ar
   107   126   125    2
   108     7     6   ar
   109   136   134   ar
   110   116   115    1
   111     3     2    1
   112     3     4    2
   113     6     5    1
   114   132   131    2
   115   125   124    1
   116     2     5    1
   117     2     1    1
   118   135   134   ar
   119   117   115    1
   120   134   133    1
   121   106   104   ar
   122   106   105   ar
   123   131   130    1
   124   115   114    2
   125   124   123    1
   126   130   133    1
   127   130   129    1
   128   104   102   ar
   129   105   103   ar
   130   112   113    1
   131   112   111    1
   132   114   113    1
   133   123   122    1
   134   102   103   ar
   135   102   101    1
   136   111   108    1
   137   122   119    1
   138   101    98    1
   139    97    98    1
   140   119   120    1
   141   119   118    1
   142   121   120    2
   143   108   107    1
   144   108   109    1
   145   110   109    2
   146    98    99    1
   147   100    99    2
