@<TRIPOS>MOLECULE
tmp/4i6qA01.pdb
 136 127 0 0 0
SMALL
GASTEIGER

@<TRIPOS>ATOM
      1  N          2.6840  -19.0800    1.0540 N.3    14  LEU14      -0.1231
      2  CA         1.9280  -19.2140   -0.2360 C.3    14  LEU14       0.1693
      3  C          2.8280  -19.6320   -1.3620 C.2    14  LEU14       0.2593
      4  O          2.4880  -20.4830   -2.1730 O.2    14  LEU14      -0.2718
      5  CB         1.2430  -17.8730   -0.6540 C.3    14  LEU14       0.0284
      6  CG         0.1530  -17.4480    0.3340 C.3    14  LEU14       0.0019
      7  CD1       -0.2210  -15.9710    0.0630 C.3    14  LEU14       0.0001
      8  CD2       -1.1300  -18.2330    0.2150 C.3    14  LEU14       0.0001
      9  N          3.9680  -18.9890   -1.4880 N.am   15  GLY15      -0.1942
     10  CA         4.8400  -19.4780   -2.5440 C.3    15  GLY15       0.2014
     11  C          6.1830  -18.8400   -2.4250 C.2    15  GLY15       0.2638
     12  O          6.4560  -18.1420   -1.4320 O.2    15  GLY15      -0.2714
     13  N          7.0510  -19.1220   -3.3980 N.am   16  LYS16      -0.1977
     14  CA         8.4430  -18.7000   -3.2590 C.3    16  LYS16       0.1596
     15  C          9.0380  -18.7250   -4.6640 C.2    16  LYS16       0.2287
     16  O          8.4390  -19.2830   -5.5950 O.2    16  LYS16      -0.2864
     17  CB         9.1580  -19.6320   -2.2530 C.3    16  LYS16       0.0298
     18  CG         9.2840  -21.0320   -2.8310 C.3    16  LYS16       0.0038
     19  CD         9.3560  -22.0990   -1.7610 C.3    16  LYS16       0.0206
     20  CE         9.0060  -23.4360   -2.4040 C.3    16  LYS16       0.1093
     21  NZ         9.6370  -24.5060   -1.6190 N.3    16  LYS16      -0.1314
     22  N          6.3870  -15.4260   -0.3740 N.3    22  VAL22      -0.1245
     23  CA         5.1700  -14.7690   -0.0700 C.3    22  VAL22       0.1561
     24  C          4.4730  -15.5710    1.0600 C.2    22  VAL22       0.2260
     25  O          4.3360  -16.8050    0.9240 O.2    22  VAL22      -0.2867
     26  CB         4.3020  -14.6740   -1.3000 C.3    22  VAL22       0.0252
     27  CG1        3.0540  -13.8770   -0.9780 C.3    22  VAL22       0.0019
     28  CG2        5.0810  -13.9320   -2.4160 C.3    22  VAL22       0.0019
     29  N         -1.3180  -10.8290    1.7090 N.3    39  ALA39      -0.1245
     30  CA        -0.1250  -11.5640    1.2360 C.3    39  ALA39       0.1562
     31  C          1.0960  -10.6860    1.4310 C.2    39  ALA39       0.2260
     32  O          1.0810   -9.4990    1.0740 O.2    39  ALA39      -0.2867
     33  CB        -0.3060  -11.8980   -0.2370 C.3    39  ALA39       0.0290
     34  N          5.1860  -10.2450    0.9280 N.3    41  LYS41      -0.1245
     35  CA         6.4370  -10.6700    0.3180 C.3    41  LYS41       0.1561
     36  C          7.6060  -10.0920    1.0650 C.2    41  LYS41       0.2260
     37  O          7.6770   -8.8930    1.4630 O.2    41  LYS41      -0.2867
     38  CB         6.5210  -10.2980   -1.1350 C.3    41  LYS41       0.0271
     39  CG         7.8200  -10.7720   -1.8590 C.3    41  LYS41       0.0035
     40  CD         7.7040  -10.6890   -3.3880 C.3    41  LYS41       0.0206
     41  CE         8.9860  -11.1860   -4.0670 C.3    41  LYS41       0.1093
     42  NZ         8.8560  -11.0930   -5.5480 N.3    41  LYS41      -0.1314
     43  N         -2.2560   -7.3320   -9.5380 N.3    70  VAL70      -0.1245
     44  CA        -2.4060   -7.5220   -8.0930 C.3    70  VAL70       0.1561
     45  C         -2.1880   -6.1970   -7.3270 C.2    70  VAL70       0.2260
     46  O         -1.2350   -5.4100   -7.5930 O.2    70  VAL70      -0.2867
     47  CB        -1.4660   -8.6460   -7.5630 C.3    70  VAL70       0.0252
     48  CG1       -0.0330   -8.2240   -7.7290 C.3    70  VAL70       0.0019
     49  CG2       -1.8420   -9.0300   -6.1300 C.3    70  VAL70       0.0019
     50  N          0.3810   -6.9690    0.0870 N.3    82  MET82      -0.1230
     51  CA        -0.4920   -7.0100   -1.0970 C.3    82  MET82       0.1702
     52  C         -1.8090   -7.6320   -0.7350 C.2    82  MET82       0.2592
     53  O         -1.9330   -8.2750    0.3330 O.2    82  MET82      -0.2718
     54  CB         0.1430   -7.9210   -2.1910 C.3    82  MET82       0.0401
     55  CG         1.4160   -7.4050   -2.7720 C.3    82  MET82       0.0596
     56  SD         2.2620   -8.7250   -3.6650 S.3    82  MET82      -0.1393
     57  CE         2.8000   -9.8300   -2.3440 C.3    82  MET82       0.0692
     58  N         -2.8130   -7.4540   -1.5980 N.am   83  GLU83      -0.1966
     59  CA        -4.0860   -8.1330   -1.3980 C.3    83  GLU83       0.1733
     60  C         -3.8620   -9.6670   -1.4740 C.2    83  GLU83       0.2616
     61  O         -2.9870  -10.1460   -2.2080 O.2    83  GLU83      -0.2715
     62  CB        -5.1380   -7.7440   -2.4550 C.3    83  GLU83       0.0429
     63  CG        -4.6620   -8.0070   -3.8870 C.3    83  GLU83       0.1163
     64  CD        -5.7070   -7.6220   -4.8630 C.2    83  GLU83       0.3649
     65  OE1       -6.8530   -7.4270   -4.4330 O.co2  83  GLU83      -0.2457
     66  OE2       -5.3840   -7.4970   -6.0530 O.co2  83  GLU83      -0.2457
     67  N         -4.6760  -10.3760   -0.7180 N.am   84  TYR84      -0.1960
     68  CA        -4.6040  -11.8700   -0.7330 C.3    84  TYR84       0.1771
     69  C         -5.7950  -12.3340   -1.5200 C.2    84  TYR84       0.2619
     70  O         -6.9360  -11.9770   -1.2130 O.2    84  TYR84      -0.2715
     71  CB        -4.7010  -12.3760    0.6960 C.3    84  TYR84       0.0574
     72  CG        -4.9170  -13.9030    0.7550 C.ar   84  TYR84      -0.0198
     73  CD1       -4.0770  -14.7580    0.0530 C.ar   84  TYR84      -0.0009
     74  CD2       -5.9880  -14.4380    1.4650 C.ar   84  TYR84      -0.0009
     75  CE1       -4.2670  -16.1570    0.1020 C.ar   84  TYR84       0.0417
     76  CE2       -6.1660  -15.8400    1.5540 C.ar   84  TYR84       0.0417
     77  CZ        -5.2840  -16.6570    0.8810 C.ar   84  TYR84       0.1957
     78  OH        -5.4290  -18.0380    0.9090 O.3    84  TYR84      -0.2866
     79  N         -5.5640  -13.1590   -2.5420 N.am   85  LEU85      -0.1977
     80  CA        -6.6520  -13.6740   -3.3980 C.3    85  LEU85       0.1596
     81  C         -6.7590  -15.1820   -3.1520 C.2    85  LEU85       0.2287
     82  O         -5.8880  -15.9610   -3.6370 O.2    85  LEU85      -0.2864
     83  CB        -6.2240  -13.4580   -4.8520 C.3    85  LEU85       0.0297
     84  CG        -6.5770  -12.0500   -5.4220 C.3    85  LEU85       0.0022
     85  CD1       -6.3990  -10.9260   -4.4740 C.3    85  LEU85       0.0001
     86  CD2       -5.8670  -11.7370   -6.7370 C.3    85  LEU85       0.0001
     87  N         -6.0610  -18.2470   -5.3760 N.3    88  GLY88      -0.1210
     88  CA        -4.7080  -18.6340   -5.6800 C.3    88  GLY88       0.1956
     89  C         -4.3390  -18.4870   -7.1430 C.2    88  GLY88       0.2612
     90  O         -4.8710  -17.6030   -7.8020 O.2    88  GLY88      -0.2717
     91  N         -3.4080  -19.2940   -7.6700 N.am   89  CYS89      -0.1970
     92  CA        -2.9100  -18.9630   -9.0150 C.3    89  CYS89       0.1712
     93  C         -3.7800  -19.6570  -10.0940 C.2    89  CYS89       0.2296
     94  O         -4.5130  -20.6390   -9.8050 O.2    89  CYS89      -0.2864
     95  CB        -1.4050  -19.2520   -9.2380 C.3    89  CYS89       0.0983
     96  SG        -1.0610  -21.0370   -9.2830 S.3    89  CYS89      -0.0798
     97  N          1.2790  -19.7420  -13.6070 N.3   133  ARG133     -0.1231
     98  CA         1.5600  -19.9110  -12.1840 C.3   133  ARG133      0.1694
     99  C          1.7230  -18.5450  -11.4950 C.2   133  ARG133      0.2592
    100  O          1.7240  -18.4810  -10.2360 O.2   133  ARG133     -0.2718
    101  CB         2.8200  -20.7440  -11.9730 C.3   133  ARG133      0.0321
    102  CG         4.1350  -20.0530  -12.3890 C.3   133  ARG133      0.0489
    103  CD         5.3290  -21.0310  -12.5680 C.3   133  ARG133      0.2205
    104  NE         6.2940  -20.2780  -13.3470 N.pl3 133  ARG133     -0.0865
    105  CZ         6.6250  -20.4900  -14.6340 C.cat 133  ARG133      0.5346
    106  NH1        6.1840  -21.5720  -15.3630 N.pl3 133  ARG133      0.1354
    107  NH2        7.4660  -19.6200  -15.1860 N.pl3 133  ARG133      0.1354
    108  N          1.8370  -17.4690  -12.2970 N.am  134  ASN134     -0.1974
    109  CA         2.0700  -16.0850  -11.7510 C.3   134  ASN134      0.1688
    110  C          0.8790  -15.1850  -12.0320 C.2   134  ASN134      0.2292
    111  O          0.9460  -13.9690  -11.8700 O.2   134  ASN134     -0.2864
    112  CB         3.3620  -15.4840  -12.3620 C.3   134  ASN134      0.1181
    113  CG         4.6200  -16.2960  -11.9930 C.2   134  ASN134      0.2629
    114  OD1        4.7670  -16.7050  -10.8400 O.2   134  ASN134     -0.2716
    115  ND2        5.5410  -16.5230  -12.9720 N.am  134  ASN134     -0.0877
    116  N         -3.0100  -14.5870  -10.8210 N.3   136  LEU136     -0.1245
    117  CA        -3.8850  -14.8810   -9.6880 C.3   136  LEU136      0.1561
    118  C         -5.3220  -14.8230  -10.0730 C.2   136  LEU136      0.2260
    119  O         -5.7500  -14.0300  -10.9460 O.2   136  LEU136     -0.2867
    120  CB        -3.6710  -13.8280   -8.5720 C.3   136  LEU136      0.0270
    121  CG        -2.2160  -13.7770   -8.1030 C.3   136  LEU136      0.0019
    122  CD1       -2.1580  -12.8310   -6.9420 C.3   136  LEU136      0.0001
    123  CD2       -1.7900  -15.1600   -7.5800 C.3   136  LEU136      0.0001
    124  N          0.3440  -11.1960  -11.3440 N.3   146  ALA146     -0.1231
    125  CA         1.2370  -11.0160  -10.2020 C.3   146  ALA146      0.1694
    126  C          2.7270  -11.2950  -10.5230 C.2   146  ALA146      0.2592
    127  O          3.0880  -11.3960  -11.7020 O.2   146  ALA146     -0.2718
    128  CB         0.7040  -11.9150   -9.0320 C.3   146  ALA146      0.0304
    129  N          3.5850  -11.4310   -9.4870 N.am  147  ASP147     -0.1974
    130  CA         5.0310  -11.7490   -9.5510 C.3   147  ASP147      0.1709
    131  C          5.9010  -10.7640  -10.3570 C.2   147  ASP147      0.2293
    132  O          6.2430  -11.0410  -11.4960 O.2   147  ASP147     -0.2864
    133  CB         5.2290  -13.2010  -10.0630 C.3   147  ASP147      0.1436
    134  CG         6.6560  -13.6110  -10.0840 C.2   147  ASP147      0.3671
    135  OD1        7.0270  -14.3250  -11.0360 O.co2 147  ASP147     -0.2456
    136  OD2        7.4250  -13.1780   -9.1990 O.co2 147  ASP147     -0.2456
@<TRIPOS>BOND
     1   106   105    1
     2   107   105    1
     3   105   104    2
     4    97    98    1
     5   104   103    1
     6   115   113   am
     7   103   102    1
     8   102   101    1
     9   112   113    1
    10   112   109    1
    11   108   109    1
    12   108    99   am
    13    98   101    1
    14    98    99    1
    15   110   111    2
    16   110   109    1
    17   113   114    2
    18   127   126    2
    19   132   131    2
    20    99   100    2
    21   124   125    1
    22   135   134   ar
    23   119   118    2
    24   116   117    1
    25   126   125    1
    26   126   129   am
    27   131   130    1
    28   125   128    1
    29    93    94    2
    30    93    92    1
    31   134   133    1
    32   134   136   ar
    33   118   117    1
    34   133   130    1
    35   117   120    1
    36   130   129    1
    37    43    44    1
    38    96    95    1
    39    95    92    1
    40    92    91    1
    41   120   121    1
    42   121   123    1
    43   121   122    1
    44    44    47    1
    45    44    45    1
    46    90    89    2
    47    48    47    1
    48    91    89   am
    49    46    45    2
    50    47    49    1
    51    89    88    1
    52    86    84    1
    53    66    64   ar
    54    88    87    1
    55    16    15    2
    56    42    41    1
    57    84    83    1
    58    84    85    1
    59    64    65   ar
    60    64    63    1
    61    83    80    1
    62    15    14    1
    63    41    40    1
    64    63    62    1
    65    56    55    1
    66    56    57    1
    67    82    81    2
    68    80    81    1
    69    80    79    1
    70    13    14    1
    71    13    11   am
    72    40    39    1
    73    14    17    1
    74    18    17    1
    75    18    19    1
    76    55    54    1
    77    10    11    1
    78    10     9    1
    79    79    69   am
    80    62    59    1
    81    11    12    2
    82    28    26    1
    83    20    19    1
    84    20    21    1
    85    61    60    2
    86    54    51    1
    87     4     3    2
    88    39    38    1
    89    58    59    1
    90    58    52   am
    91    69    70    2
    92    69    68    1
    93     9     3   am
    94    60    59    1
    95    60    67   am
    96     3     2    1
    97    26    27    1
    98    26    23    1
    99    38    35    1
   100    51    52    1
   101    51    50    1
   102    52    53    2
   103    68    67    1
   104    68    71    1
   105     5     2    1
   106     5     6    1
   107    22    23    1
   108    33    30    1
   109     2     1    1
   110    23    24    1
   111    73    75   ar
   112    73    72   ar
   113     7     6    1
   114    75    77   ar
   115     8     6    1
   116    35    34    1
   117    35    36    1
   118    71    72    1
   119    72    74   ar
   120    77    78    1
   121    77    76   ar
   122    25    24    2
   123    36    37    2
   124    32    31    2
   125    30    31    1
   126    30    29    1
   127    74    76   ar
