@<TRIPOS>MOLECULE
tmp/4i6sA00.pdb
 96 91 0 0 0
SMALL
GASTEIGER

@<TRIPOS>ATOM
      1  N        -34.0200   -2.2010   20.6960 N.3     9  TRP9       -0.1241
      2  CA       -34.0980   -3.4270   21.4620 C.3     9  TRP9        0.1605
      3  C        -35.0590   -3.2700   22.6420 C.2     9  TRP9        0.2264
      4  O        -35.2880   -2.1620   23.1710 O.2     9  TRP9       -0.2867
      5  CB       -32.7130   -3.9150   21.9390 C.3     9  TRP9        0.0550
      6  CG       -32.0290   -3.0370   22.9250 C.ar    9  TRP9        0.0003
      7  CD1      -32.1500   -3.0590   24.2720 C.ar    9  TRP9        0.0946
      8  CD2      -31.1190   -1.9890   22.6130 C.ar    9  TRP9        0.0152
      9  NE1      -31.2870   -2.1360   24.8380 N.ar    9  TRP9       -0.2442
     10  CE2      -30.6700   -1.4450   23.8380 C.ar    9  TRP9        0.0810
     11  CE3      -30.5990   -1.4710   21.4140 C.ar    9  TRP9        0.0012
     12  CZ2      -29.7580   -0.4140   23.8810 C.ar    9  TRP9        0.0191
     13  CZ3      -29.6830   -0.4530   21.4720 C.ar    9  TRP9        0.0001
     14  CH2      -29.2810    0.0640   22.6930 C.ar    9  TRP9        0.0015
     15  N        -31.0230    3.4490   18.9940 N.3    16  ARG16      -0.1245
     16  CA       -29.8230    4.1570   18.6930 C.3    16  ARG16       0.1563
     17  C        -29.8740    4.5130   17.2170 C.2    16  ARG16       0.2260
     18  O        -30.1570    3.6480   16.3550 O.2    16  ARG16      -0.2867
     19  CB       -28.5810    3.3020   18.9620 C.3    16  ARG16       0.0307
     20  CG       -28.4040    2.8980   20.4280 C.3    16  ARG16       0.0489
     21  CD       -28.0670    4.1260   21.3030 C.3    16  ARG16       0.2205
     22  NE       -27.8570    3.7680   22.7090 N.pl3  16  ARG16      -0.0865
     23  CZ       -28.8440    3.6540   23.6210 C.cat  16  ARG16       0.5346
     24  NH1      -30.1130    3.8870   23.2750 N.pl3  16  ARG16       0.1354
     25  NH2      -28.5810    3.3040   24.8780 N.pl3  16  ARG16       0.1354
     26  N        -24.0040    9.6010   17.1800 N.3    27  GLU27      -0.1245
     27  CA       -24.9960    8.7090   17.7420 C.3    27  GLU27       0.1567
     28  C        -25.9820    9.4760   18.6040 C.2    27  GLU27       0.2260
     29  O        -25.5790   10.2560   19.4820 O.2    27  GLU27      -0.2867
     30  CB       -24.3130    7.6500   18.6000 C.3    27  GLU27       0.0388
     31  CG       -25.2170    6.6010   19.2090 C.3    27  GLU27       0.1160
     32  CD       -24.4740    5.7080   20.2120 C.2    27  GLU27       0.3649
     33  OE1      -23.7120    6.2720   21.0390 O.co2  27  GLU27      -0.2457
     34  OE2      -24.7230    4.4870   20.2450 O.co2  27  GLU27      -0.2457
     35  N        -29.4290    8.7030   21.0680 N.3    29  CYS29      -0.1235
     36  CA       -29.8910    7.6480   21.9030 C.3    29  CYS29       0.1677
     37  C        -31.1980    7.9280   22.5630 C.2    29  CYS29       0.2270
     38  O        -31.4510    9.0360   23.0900 O.2    29  CYS29      -0.2867
     39  CB       -28.9370    7.3380   23.0220 C.3    29  CYS29       0.0956
     40  SG       -27.1940    7.1400   22.5400 S.3    29  CYS29      -0.0801
     41  N        -30.6030   11.7580   23.6460 N.3    36  TYR36      -0.1241
     42  CA       -29.3510   12.2950   24.1100 C.3    36  TYR36       0.1605
     43  C        -28.2400   11.8780   23.2060 C.2    36  TYR36       0.2264
     44  O        -28.3930   10.8970   22.4480 O.2    36  TYR36      -0.2867
     45  CB       -29.0550   11.8620   25.5440 C.3    36  TYR36       0.0534
     46  CG       -28.8550   10.3890   25.8010 C.ar   36  TYR36      -0.0201
     47  CD1      -27.5760    9.8140   25.7230 C.ar   36  TYR36      -0.0009
     48  CD2      -29.9240    9.5460   26.0990 C.ar   36  TYR36      -0.0009
     49  CE1      -27.3710    8.4740   25.9810 C.ar   36  TYR36       0.0417
     50  CE2      -29.7120    8.1710   26.3450 C.ar   36  TYR36       0.0417
     51  CZ       -28.4380    7.6410   26.2740 C.ar   36  TYR36       0.1957
     52  OH       -28.2090    6.2790   26.5040 O.3    36  TYR36      -0.2866
     53  N        -24.9940   10.0520   22.3140 N.3    38  GLY38      -0.1210
     54  CA       -24.2470    8.9330   22.7930 C.3    38  GLY38       0.1956
     55  C        -22.7210    9.1180   22.6980 C.2    38  GLY38       0.2611
     56  O        -22.2040   10.0430   22.0860 O.2    38  GLY38      -0.2717
     57  N        -22.0220    8.1270   23.2100 N.am   39  ALA39      -0.1979
     58  CA       -20.5550    8.1080   23.2400 C.3    39  ALA39       0.1597
     59  C        -19.9100    7.8640   21.8670 C.2    39  ALA39       0.2287
     60  O        -18.7480    8.1810   21.6550 O.2    39  ALA39      -0.2864
     61  CB       -20.0890    7.0330   24.2050 C.3    39  ALA39       0.0319
     62  N        -27.3010   -5.8420   25.9860 N.3    58  ILE58      -0.1245
     63  CA       -27.3010   -5.4460   24.5790 C.3    58  ILE58       0.1561
     64  C        -25.8630   -5.5200   24.0520 C.2    58  ILE58       0.2260
     65  O        -24.8950   -5.1620   24.7260 O.2    58  ILE58      -0.2867
     66  CB       -27.9230   -4.0450   24.2930 C.3    58  ILE58       0.0252
     67  CG1      -28.1410   -3.7690   22.8130 C.3    58  ILE58       0.0019
     68  CG2      -27.0870   -2.9010   24.9020 C.3    58  ILE58       0.0019
     69  CD1      -29.1170   -4.6720   22.1730 C.3    58  ILE58       0.0001
     70  N        -24.0210   -4.2970   20.3950 N.3    60  ILE60      -0.1245
     71  CA       -24.2380   -3.5240   19.1520 C.3    60  ILE60       0.1561
     72  C        -23.0130   -3.6190   18.2640 C.2    60  ILE60       0.2260
     73  O        -21.8860   -3.6100   18.7790 O.2    60  ILE60      -0.2867
     74  CB       -24.4990   -2.0110   19.4510 C.3    60  ILE60       0.0252
     75  CG1      -25.6030   -1.8060   20.4960 C.3    60  ILE60       0.0019
     76  CG2      -24.8220   -1.2340   18.1930 C.3    60  ILE60       0.0019
     77  CD1      -25.7300   -0.3590   20.9340 C.3    60  ILE60       0.0001
     78  N        -20.0840   -2.5220   20.8860 N.3    75  ALA75      -0.1245
     79  CA       -20.4950   -2.1360   22.2580 C.3    75  ALA75       0.1562
     80  C        -21.0100   -3.4000   22.8970 C.2    75  ALA75       0.2260
     81  O        -21.9200   -4.0350   22.3640 O.2    75  ALA75      -0.2867
     82  CB       -21.5490   -1.0880   22.1930 C.3    75  ALA75       0.0290
     83  N        -16.8960    1.4250   23.4930 N.3    80  TRP80      -0.1241
     84  CA       -16.7230    0.9570   22.1320 C.3    80  TRP80       0.1605
     85  C        -15.3340    0.4650   21.8310 C.2    80  TRP80       0.2264
     86  O        -14.3650    1.1120   22.1930 O.2    80  TRP80      -0.2867
     87  CB       -17.0970    2.0720   21.1600 C.3    80  TRP80       0.0550
     88  CG       -18.5510    2.4670   21.2030 C.ar   80  TRP80       0.0003
     89  CD1      -19.1530    3.4800   21.9680 C.ar   80  TRP80       0.0946
     90  CD2      -19.5880    1.8880   20.4470 C.ar   80  TRP80       0.0152
     91  NE1      -20.4800    3.5560   21.6780 N.ar   80  TRP80      -0.2442
     92  CE2      -20.7840    2.5740   20.7660 C.ar   80  TRP80       0.0810
     93  CE3      -19.6440    0.8510   19.4930 C.ar   80  TRP80       0.0012
     94  CZ2      -22.0020    2.2530   20.1830 C.ar   80  TRP80       0.0191
     95  CZ3      -20.8490    0.5310   18.9270 C.ar   80  TRP80       0.0001
     96  CH2      -22.0140    1.2330   19.2550 C.ar   80  TRP80       0.0015
@<TRIPOS>BOND
     1    18    17    2
     2    26    27    1
     3    17    16    1
     4    27    30    1
     5    27    28    1
     6    76    74    1
     7    72    73    2
     8    72    71    1
     9    30    31    1
    10    28    29    2
    11    16    19    1
    12    16    15    1
    13    95    96   ar
    14    95    93   ar
    15    19    20    1
    16    71    74    1
    17    71    70    1
    18    31    32    1
    19    96    94   ar
    20    74    75    1
    21    93    90   ar
    22    94    92   ar
    23    32    34   ar
    24    32    33   ar
    25    20    21    1
    26    90    92   ar
    27    90    88   ar
    28    75    77    1
    29     1     2    1
    30    92    91   ar
    31    78    79    1
    32    35    36    1
    33    87    88    1
    34    87    84    1
    35    88    89   ar
    36    21    22    1
    37    11    13   ar
    38    11     8   ar
    39     2     5    1
    40     2     3    1
    41    13    14   ar
    42    60    59    2
    43    91    89   ar
    44    85    84    1
    45    85    86    2
    46    59    58    1
    47    36    37    1
    48    36    39    1
    49     5     6    1
    50    56    55    2
    51    84    83    1
    52    69    67    1
    53    82    79    1
    54    79    80    1
    55    53    54    1
    56    81    80    2
    57    44    43    2
    58    40    39    1
    59    37    38    2
    60     8     6   ar
    61     8    10   ar
    62     3     4    2
    63    14    12   ar
    64    55    54    1
    65    55    57   am
    66    22    23    2
    67    67    66    1
    68     6     7   ar
    69    43    42    1
    70    57    58    1
    71    58    61    1
    72    24    23    1
    73    23    25    1
    74    41    42    1
    75    10    12   ar
    76    10     9   ar
    77    64    63    1
    78    64    65    2
    79    42    45    1
    80     7     9   ar
    81    66    63    1
    82    66    68    1
    83    63    62    1
    84    45    46    1
    85    47    46   ar
    86    47    49   ar
    87    46    48   ar
    88    49    51   ar
    89    48    50   ar
    90    51    50   ar
    91    51    52    1
