@<TRIPOS>MOLECULE
tmp/4i6sC02.pdb
 97 95 0 0 0
SMALL
GASTEIGER

@<TRIPOS>ATOM
      1  N        -41.0850   -8.3490   11.0980 N.3     9  TRP9       -0.1241
      2  CA       -41.4270   -8.8210   12.4170 C.3     9  TRP9        0.1605
      3  C        -42.2850  -10.0600   12.3020 C.2     9  TRP9        0.2264
      4  O        -42.9860  -10.2720   11.2870 O.2     9  TRP9       -0.2867
      5  CB       -42.2170   -7.7400   13.1990 C.3     9  TRP9        0.0550
      6  CG       -43.4760   -7.2570   12.6190 C.ar    9  TRP9        0.0003
      7  CD1      -44.8160   -7.7380   12.9070 C.ar    9  TRP9        0.0946
      8  CD2      -43.6520   -6.1930   11.7090 C.ar    9  TRP9        0.0152
      9  NE1      -45.6850   -7.0330   12.1870 N.ar    9  TRP9       -0.2442
     10  CE2      -45.0640   -6.0350   11.4820 C.ar    9  TRP9        0.0810
     11  CE3      -42.7760   -5.3050   11.0850 C.ar    9  TRP9        0.0012
     12  CZ2      -45.5790   -5.0860   10.6400 C.ar    9  TRP9        0.0191
     13  CZ3      -43.2930   -4.3390   10.2540 C.ar    9  TRP9        0.0001
     14  CH2      -44.7130   -4.2120   10.0340 C.ar    9  TRP9        0.0015
     15  N        -44.2350  -10.1280    8.5160 N.3    14  SER14      -0.1217
     16  CA       -44.5590   -8.8510    7.9140 C.3    14  SER14       0.1889
     17  C        -43.2150   -8.1740    7.5770 C.2    14  SER14       0.2288
     18  O        -42.2640   -8.2930    8.3580 O.2    14  SER14      -0.2866
     19  CB       -45.3290   -7.9040    8.8120 C.3    14  SER14       0.2089
     20  OG       -46.7110   -8.3630    8.8680 O.3    14  SER14      -0.2183
     21  N        -41.6360   -4.3910    5.8480 N.3    16  ARG16      -0.1245
     22  CA       -41.8220   -3.0710    5.3080 C.3    16  ARG16       0.1563
     23  C        -40.5410   -2.5890    4.6810 C.2    16  ARG16       0.2260
     24  O        -39.4750   -2.7070    5.2770 O.2    16  ARG16      -0.2867
     25  CB       -42.3070   -2.0640    6.3760 C.3    16  ARG16       0.0307
     26  CG       -43.6490   -2.4270    7.0570 C.3    16  ARG16       0.0489
     27  CD       -44.7700   -2.2700    6.0910 C.3    16  ARG16       0.2205
     28  NE       -46.0590   -2.5450    6.7230 N.pl3  16  ARG16      -0.0865
     29  CZ       -46.5920   -3.7630    6.8260 C.cat  16  ARG16       0.5346
     30  NH1      -46.0080   -4.8620    6.3600 N.pl3  16  ARG16       0.1354
     31  NH2      -47.7960   -3.8930    7.3550 N.pl3  16  ARG16       0.1354
     32  N        -47.5460   -8.7590    4.1830 N.3    31  ASP31      -0.1239
     33  CA       -48.0210   -9.4250    5.3810 C.3    31  ASP31       0.1674
     34  C        -48.4160  -10.8750    5.0740 C.2    31  ASP31       0.2266
     35  O        -49.2640  -11.4660    5.7390 O.2    31  ASP31      -0.2867
     36  CB       -49.2700   -8.7040    5.9630 C.3    31  ASP31       0.1410
     37  CG       -49.0480   -7.2540    6.2410 C.2    31  ASP31       0.3668
     38  OD1      -48.1370   -6.8920    6.9940 O.co2  31  ASP31      -0.2456
     39  OD2      -49.8690   -6.4720    5.7340 O.co2  31  ASP31      -0.2456
     40  N        -48.0370   -4.6050   -1.2770 N.3    36  TYR36      -0.1241
     41  CA       -48.9540   -3.4850   -1.4840 C.3    36  TYR36       0.1605
     42  C        -48.3080   -2.2000   -1.0160 C.2    36  TYR36       0.2264
     43  O        -47.3750   -2.2060   -0.1960 O.2    36  TYR36      -0.2867
     44  CB       -50.3170   -3.7340   -0.8310 C.3    36  TYR36       0.0534
     45  CG       -50.3230   -3.8390    0.6720 C.ar   36  TYR36      -0.0201
     46  CD1      -49.9460   -5.0190    1.3090 C.ar   36  TYR36      -0.0009
     47  CD2      -50.6130   -2.7480    1.4790 C.ar   36  TYR36      -0.0009
     48  CE1      -49.9000   -5.1390    2.6850 C.ar   36  TYR36       0.0417
     49  CE2      -50.6170   -2.8500    2.8670 C.ar   36  TYR36       0.0417
     50  CZ       -50.2360   -4.0340    3.4870 C.ar   36  TYR36       0.1957
     51  OH       -50.1830   -4.1170    4.8360 O.3    36  TYR36      -0.2866
     52  N        -46.8660   -4.1070   16.7680 N.3    58  ILE58      -0.1245
     53  CA       -45.6450   -3.5960   16.1640 C.3    58  ILE58       0.1561
     54  C        -45.5630   -2.0810   16.3270 C.2    58  ILE58       0.2260
     55  O        -46.5330   -1.3750   16.2560 O.2    58  ILE58      -0.2867
     56  CB       -45.5790   -3.9910   14.6830 C.3    58  ILE58       0.0252
     57  CG1      -44.2040   -3.6970   14.0960 C.3    58  ILE58       0.0019
     58  CG2      -46.6490   -3.2720   13.9180 C.3    58  ILE58       0.0019
     59  CD1      -43.0860   -4.5370   14.6410 C.3    58  ILE58       0.0001
     60  N        -47.7370    2.5170   15.0860 N.3    76  ASP76      -0.1225
     61  CA       -47.7850    1.2620   15.8390 C.3    76  ASP76       0.1805
     62  C        -49.1170    0.6070   15.7110 C.2    76  ASP76       0.2598
     63  O        -50.0870    1.2700   15.2650 O.2    76  ASP76      -0.2718
     64  CB       -47.3960    1.4410   17.3380 C.3    76  ASP76       0.1424
     65  CG       -48.2780    2.4380   18.0650 C.2    76  ASP76       0.3668
     66  OD1      -49.5010    2.1150   18.2380 O.co2  76  ASP76      -0.2456
     67  OD2      -47.7490    3.5440   18.4260 O.co2  76  ASP76      -0.2456
     68  N        -49.2080   -0.6730   16.0230 N.am   77  GLY77      -0.1942
     69  CA       -50.5410   -1.2880   16.1260 C.3    77  GLY77       0.2014
     70  C        -50.5740   -2.7720   15.9690 C.2    77  GLY77       0.2639
     71  O        -49.5770   -3.4270   15.8630 O.2    77  GLY77      -0.2714
     72  N        -51.7990   -3.2920   15.9470 N.am   78  ASN78      -0.1958
     73  CA       -52.0790   -4.6900   15.7900 C.3    78  ASN78       0.1819
     74  C        -52.6980   -4.9350   14.4360 C.2    78  ASN78       0.2622
     75  O        -53.7050   -4.3110   14.0740 O.2    78  ASN78      -0.2715
     76  CB       -53.0730   -5.1410   16.8670 C.3    78  ASN78       0.1195
     77  CG       -52.4460   -5.1820   18.2360 C.2    78  ASN78       0.2630
     78  OD1      -52.5670   -4.2500   19.0510 O.2    78  ASN78      -0.2716
     79  ND2      -51.6910   -6.2330   18.4680 N.am   78  ASN78      -0.0877
     80  N        -52.1110   -5.8360   13.6750 N.am   79  GLY79      -0.1940
     81  CA       -52.5900   -6.2310   12.3840 C.3    79  GLY79       0.2014
     82  C        -53.8550   -7.0590   12.4700 C.2    79  GLY79       0.2638
     83  O        -54.2400   -7.4710   13.5730 O.2    79  GLY79      -0.2714
     84  N        -54.4580   -7.3860   11.3290 N.am   80  TRP80      -0.1973
     85  CA       -55.7680   -8.0460   11.3080 C.3    80  TRP80       0.1640
     86  C        -55.7480   -9.4270   11.9240 C.2    80  TRP80       0.2290
     87  O        -54.8870  -10.2400   11.5500 O.2    80  TRP80      -0.2864
     88  CB       -56.3310   -8.1740    9.9090 C.3    80  TRP80       0.0576
     89  CG       -56.6710   -6.7910    9.3110 C.ar   80  TRP80       0.0006
     90  CD1      -55.9170   -6.0850    8.4400 C.ar   80  TRP80       0.0946
     91  CD2      -57.8340   -5.9950    9.5890 C.ar   80  TRP80       0.0152
     92  NE1      -56.5310   -4.8840    8.1320 N.ar   80  TRP80      -0.2442
     93  CE2      -57.6850   -4.7830    8.8810 C.ar   80  TRP80       0.0810
     94  CE3      -58.9460   -6.1680   10.4190 C.ar   80  TRP80       0.0012
     95  CZ2      -58.6550   -3.8130    8.8790 C.ar   80  TRP80       0.0191
     96  CZ3      -59.9010   -5.1970   10.4490 C.ar   80  TRP80       0.0001
     97  CH2      -59.7350   -3.9930    9.6760 C.ar   80  TRP80       0.0015
@<TRIPOS>BOND
     1    41    40    1
     2    41    42    1
     3    41    44    1
     4    42    43    2
     5    44    45    1
     6    45    46   ar
     7    45    47   ar
     8    46    48   ar
     9    47    49   ar
    10    48    50   ar
    11    49    50   ar
    12    50    51    1
    13    32    33    1
    14    23    24    2
    15    23    22    1
    16    34    33    1
    17    34    35    2
    18    22    21    1
    19    22    25    1
    20    33    36    1
    21    39    37   ar
    22    36    37    1
    23    27    28    1
    24    27    26    1
    25    37    38   ar
    26    30    29    1
    27    25    26    1
    28    28    29    2
    29    29    31    1
    30    17    16    1
    31    17    18    2
    32    16    15    1
    33    16    19    1
    34    92    90   ar
    35    92    93   ar
    36    90    89   ar
    37    19    20    1
    38    95    93   ar
    39    95    97   ar
    40    93    91   ar
    41    89    91   ar
    42    89    88    1
    43    91    94   ar
    44    97    96   ar
    45    88    85    1
    46    14    13   ar
    47    14    12   ar
    48    13    11   ar
    49    94    96   ar
    50    12    10   ar
    51    11     8   ar
    52     1     2    1
    53     4     3    2
    54    85    84    1
    55    85    86    1
    56    84    82   am
    57    10     8   ar
    58    10     9   ar
    59    87    86    2
    60     8     6   ar
    61     9     7   ar
    62     3     2    1
    63    81    82    1
    64    81    80    1
    65     2     5    1
    66    82    83    2
    67     6     7   ar
    68     6     5    1
    69    80    74   am
    70    58    56    1
    71    75    74    2
    72    57    59    1
    73    57    56    1
    74    74    73    1
    75    56    53    1
    76    60    61    1
    77    63    62    2
    78    62    61    1
    79    62    68   am
    80    73    72    1
    81    73    76    1
    82    61    64    1
    83    71    70    2
    84    72    70   am
    85    70    69    1
    86    68    69    1
    87    53    54    1
    88    53    52    1
    89    55    54    2
    90    76    77    1
    91    64    65    1
    92    65    66   ar
    93    65    67   ar
    94    77    79   am
    95    77    78    2
