@<TRIPOS>MOLECULE
tmp/4i6wB01.pdb
 87 80 0 0 0
SMALL
GASTEIGER

@<TRIPOS>ATOM
      1  N         86.1270  136.3350  131.4280 N.3    81  GLU81      -0.1245
      2  CA        87.1750  136.0110  132.3980 C.3    81  GLU81       0.1567
      3  C         87.8220  137.2510  133.0160 C.2    81  GLU81       0.2260
      4  O         88.2140  138.1690  132.2940 O.2    81  GLU81      -0.2867
      5  CB        88.2550  135.1590  131.7200 C.3    81  GLU81       0.0388
      6  CG        89.3550  134.7030  132.6740 C.3    81  GLU81       0.1160
      7  CD        90.4600  133.9040  132.0090 C.2    81  GLU81       0.3649
      8  OE1       90.3660  133.5790  130.8080 O.co2  81  GLU81      -0.2457
      9  OE2       91.4370  133.5780  132.7230 O.co2  81  GLU81      -0.2457
     10  N        103.2470  123.3930  128.7950 N.3   259  ARG259     -0.1245
     11  CA       103.3090  124.8160  129.1300 C.3   259  ARG259      0.1563
     12  C        102.9350  125.6960  127.9340 C.2   259  ARG259      0.2260
     13  O        102.2060  126.6820  128.0960 O.2   259  ARG259     -0.2867
     14  CB       104.6850  125.2020  129.6870 C.3   259  ARG259      0.0307
     15  CG       104.8690  126.6960  129.9460 C.3   259  ARG259      0.0489
     16  CD       103.8790  127.2310  130.9720 C.3   259  ARG259      0.2205
     17  NE       103.8000  128.6810  130.8660 N.pl3 259  ARG259     -0.0865
     18  CZ       102.7440  129.4140  131.1930 C.cat 259  ARG259      0.5346
     19  NH1      101.6340  128.8450  131.6770 N.pl3 259  ARG259      0.1354
     20  NH2      102.8010  130.7330  131.0350 N.pl3 259  ARG259      0.1354
     21  N         99.2220  126.5340  127.4050 N.3   262  THR262     -0.1203
     22  CA        98.7030  127.4740  128.4080 C.3   262  THR262      0.1994
     23  C         99.1980  128.8880  128.1290 C.2   262  THR262      0.2617
     24  O         98.4540  129.8730  128.2340 O.2   262  THR262     -0.2717
     25  CB        99.1910  127.0500  129.8030 C.3   262  THR262      0.1784
     26  OG1       99.0680  125.6290  129.9280 O.3   262  THR262     -0.2211
     27  CG2       98.4010  127.7340  130.9160 C.3   262  THR262      0.0376
     28  N        100.4740  128.9620  127.7740 N.am  263  HIS263     -0.1975
     29  CA       101.1440  130.1920  127.3760 C.3   263  HIS263      0.1656
     30  C        100.4220  130.7930  126.1590 C.2   263  HIS263      0.2291
     31  O        100.0480  131.9730  126.1680 O.2   263  HIS263     -0.2864
     32  CB       102.6090  129.8120  127.1010 C.3   263  HIS263      0.0771
     33  CG       103.4600  130.8950  126.5180 C.ar  263  HIS263      0.0820
     34  ND1      104.3640  131.6140  127.2720 N.ar  263  HIS263     -0.2267
     35  CD2      103.6280  131.3050  125.2370 C.ar  263  HIS263      0.1154
     36  CE1      105.0250  132.4470  126.4860 C.ar  263  HIS263      0.1986
     37  NE2      104.6020  132.2740  125.2450 N.ar  263  HIS263     -0.2212
     38  N         97.3710  130.0230  125.1620 N.3   265  LYS265     -0.1231
     39  CA        96.0090  130.3070  125.6330 C.3   265  LYS265      0.1693
     40  C         95.9470  131.7440  126.1600 C.2   265  LYS265      0.2592
     41  O         94.9950  132.4790  125.8670 O.2   265  LYS265     -0.2718
     42  CB        95.5940  129.3020  126.7200 C.3   265  LYS265      0.0285
     43  CG        94.1120  129.3090  127.0860 C.3   265  LYS265      0.0035
     44  CD        93.7300  130.4400  128.0390 C.3   265  LYS265      0.0206
     45  CE        92.4480  130.0640  128.7660 C.3   265  LYS265      0.1093
     46  NZ        91.8730  131.1890  129.5530 N.3   265  LYS265     -0.1314
     47  N         96.9730  132.1460  126.9120 N.am  266  GLY266     -0.1957
     48  CA        97.0540  133.5150  127.4400 C.3   266  GLY266      0.1869
     49  C         97.0740  134.5860  126.3630 C.2   266  GLY266      0.2309
     50  O         96.4340  135.6320  126.5020 O.2   266  GLY266     -0.2863
     51  N         93.5670  134.8460  125.1280 N.3   269  ASN269     -0.1240
     52  CA        92.7830  135.6370  126.0870 C.3   269  ASN269      0.1653
     53  C         92.7760  137.1220  125.7060 C.2   269  ASN269      0.2266
     54  O         91.7970  137.8240  125.9480 O.2   269  ASN269     -0.2867
     55  CB        93.3710  135.5180  127.4960 C.3   269  ASN269      0.1155
     56  CG        92.7750  134.3890  128.3100 C.2   269  ASN269      0.2627
     57  OD1       91.9070  133.6360  127.8530 O.2   269  ASN269     -0.2716
     58  ND2       93.2490  134.2640  129.5530 N.am  269  ASN269     -0.0877
     59  N        100.1060  138.1240  127.0490 N.3   363  ASN363     -0.1240
     60  CA       101.1410  137.1510  127.3790 C.3   363  ASN363      0.1653
     61  C        102.1430  137.7410  128.3790 C.2   363  ASN363      0.2266
     62  O        102.4820  137.0910  129.3650 O.2   363  ASN363     -0.2867
     63  CB       101.8270  136.6890  126.0860 C.3   363  ASN363      0.1155
     64  CG       102.9510  135.6890  126.3180 C.2   363  ASN363      0.2627
     65  OD1      104.0210  135.8320  125.7380 O.2   363  ASN363     -0.2716
     66  ND2      102.7090  134.6690  127.1310 N.am  363  ASN363     -0.0877
     67  N        100.5540  137.9380  131.8350 N.3   366  ALA366     -0.1231
     68  CA       100.4700  136.6000  132.4260 C.3   366  ALA366      0.1694
     69  C        101.8180  136.1140  132.9570 C.2   366  ALA366      0.2591
     70  O        101.8990  135.6310  134.0870 O.2   366  ALA366     -0.2718
     71  CB        99.8950  135.6080  131.4250 C.3   366  ALA366      0.0304
     72  N        102.8740  136.2380  132.1520 N.am  367  MET367     -0.1979
     73  CA       104.2000  135.7910  132.5740 C.3   367  MET367      0.1605
     74  C        104.7450  136.6120  133.7350 C.2   367  MET367      0.2287
     75  O        105.3760  136.0670  134.6420 O.2   367  MET367     -0.2864
     76  CB       105.1980  135.8190  131.4170 C.3   367  MET367      0.0413
     77  CG       104.7270  135.0810  130.1820 C.3   367  MET367      0.0598
     78  SD       106.0390  135.0600  128.9540 S.3   367  MET367     -0.1393
     79  CE       107.0260  133.7180  129.5630 C.3   367  MET367      0.0692
     80  N        103.0080  135.4250  136.9080 N.3   370  LEU370     -0.1245
     81  CA       103.5120  134.1150  137.2950 C.3   370  LEU370      0.1561
     82  C        104.9570  134.1830  137.7870 C.2   370  LEU370      0.2260
     83  O        105.3470  133.4210  138.6810 O.2   370  LEU370     -0.2867
     84  CB       103.3710  133.1180  136.1330 C.3   370  LEU370      0.0270
     85  CG       101.9370  132.7530  135.7310 C.3   370  LEU370      0.0019
     86  CD1      101.8960  132.0130  134.3970 C.3   370  LEU370      0.0001
     87  CD2      101.2400  131.9540  136.8250 C.3   370  LEU370      0.0001
@<TRIPOS>BOND
     1    51    52    1
     2    38    39    1
     3    35    37   ar
     4    35    33   ar
     5    37    36   ar
     6    39    40    1
     7    39    42    1
     8    53    54    2
     9    53    52    1
    10    65    64    2
    11    41    40    2
    12    63    64    1
    13    63    60    1
    14    52    55    1
    15    30    31    2
    16    30    29    1
    17    40    47   am
    18    64    66   am
    19    49    50    2
    20    49    48    1
    21    36    34   ar
    22    33    32    1
    23    33    34   ar
    24    42    43    1
    25    47    48    1
    26    59    60    1
    27    43    44    1
    28    32    29    1
    29    29    28    1
    30    60    61    1
    31    21    22    1
    32    55    56    1
    33    28    23   am
    34    57    56    2
    35    12    13    2
    36    12    11    1
    37    44    45    1
    38    23    24    2
    39    23    22    1
    40    56    58   am
    41    61    62    2
    42    22    25    1
    43    45    46    1
    44    10    11    1
    45    78    79    1
    46    78    77    1
    47    11    14    1
    48    14    15    1
    49    25    26    1
    50    25    27    1
    51    15    16    1
    52    77    76    1
    53     8     7   ar
    54    17    16    1
    55    17    18    2
    56    20    18    1
    57    18    19    1
    58    76    73    1
    59    71    68    1
    60     1     2    1
    61     5     2    1
    62     5     6    1
    63    67    68    1
    64     7     6    1
    65     7     9   ar
    66    72    73    1
    67    72    69   am
    68     4     3    2
    69     2     3    1
    70    68    69    1
    71    73    74    1
    72    69    70    2
    73    74    75    2
    74    86    85    1
    75    85    84    1
    76    85    87    1
    77    84    81    1
    78    80    81    1
    79    81    82    1
    80    82    83    2
