@<TRIPOS>MOLECULE
tmp/4i71A00.pdb
 182 177 0 0 0
SMALL
GASTEIGER

@<TRIPOS>ATOM
      1  N         13.6000   15.5960   21.2900 N.3    13  ASP13      -0.1239
      2  CA        13.6870   16.4740   22.4560 C.3    13  ASP13       0.1674
      3  C         12.7340   16.1330   23.5640 C.2    13  ASP13       0.2266
      4  O         12.3710   16.9890   24.3650 O.2    13  ASP13      -0.2867
      5  CB        13.5620   17.9240   22.0510 C.3    13  ASP13       0.1410
      6  CG        12.2040   18.3070   21.5700 C.2    13  ASP13       0.3668
      7  OD1       11.4430   17.4100   21.1220 O.co2  13  ASP13      -0.2456
      8  OD2       11.9030   19.5560   21.6510 O.co2  13  ASP13      -0.2456
      9  N          9.6230   15.2270   24.5790 N.3    15  ASN15      -0.1225
     10  CA         8.2470   15.3940   25.0130 C.3    15  ASN15       0.1785
     11  C          7.4990   14.0340   24.8290 C.2    15  ASN15       0.2597
     12  O          8.0620   13.0480   24.3150 O.2    15  ASN15      -0.2718
     13  CB         7.5430   16.5430   24.3020 C.3    15  ASN15       0.1169
     14  CG         6.5850   17.2660   25.2680 C.2    15  ASN15       0.2627
     15  OD1        5.3760   17.0160   25.2430 O.2    15  ASN15      -0.2716
     16  ND2        7.0980   18.1040   26.1450 N.am   15  ASN15      -0.0877
     17  N          6.2540   13.9780   25.2770 N.am   16  LYS16      -0.1966
     18  CA         5.4970   12.7350   25.2120 C.3    16  LYS16       0.1728
     19  C          5.4560   12.1870   23.8120 C.2    16  LYS16       0.2616
     20  O          5.6660   10.9830   23.5810 O.2    16  LYS16      -0.2715
     21  CB         4.0670   12.9840   25.7560 C.3    16  LYS16       0.0311
     22  CG         4.0630   13.2980   27.2660 C.3    16  LYS16       0.0038
     23  CD         2.8070   14.0900   27.7040 C.3    16  LYS16       0.0206
     24  CE         2.8930   15.5100   27.1330 C.3    16  LYS16       0.1093
     25  NZ         1.6830   16.2820   27.5940 N.3    16  LYS16      -0.1314
     26  N          5.2070   13.0840   22.8740 N.am   17  ASP17      -0.1957
     27  CA         5.1040   12.7750   21.4850 C.3    17  ASP17       0.1840
     28  C          6.4140   12.1540   20.9110 C.2    17  ASP17       0.2622
     29  O          6.4160   11.2490   20.1050 O.2    17  ASP17      -0.2715
     30  CB         4.7500   14.1140   20.8000 C.3    17  ASP17       0.1450
     31  CG         4.5390   14.0160   19.3310 C.2    17  ASP17       0.3671
     32  OD1        4.0210   12.9860   18.7880 O.co2  17  ASP17      -0.2456
     33  OD2        4.8810   15.0620   18.6940 O.co2  17  ASP17      -0.2456
     34  N          7.5250   12.7030   21.3460 N.am   18  ASP18      -0.1971
     35  CA         8.8670   12.1780   20.9640 C.3    18  ASP18       0.1709
     36  C          9.0110   10.6900   21.3250 C.2    18  ASP18       0.2293
     37  O          9.5660    9.8970   20.5560 O.2    18  ASP18      -0.2864
     38  CB        10.0030   12.9760   21.6090 C.3    18  ASP18       0.1436
     39  CG        10.0330   14.4090   21.1470 C.2    18  ASP18       0.3671
     40  OD1       10.8030   14.7120   20.1900 O.co2  18  ASP18      -0.2456
     41  OD2        9.2720   15.2470   21.7090 O.co2  18  ASP18      -0.2456
     42  N         12.2960   20.5990   24.4410 N.3    43  ASP43      -0.1239
     43  CA        10.9670   20.3550   25.0820 C.3    43  ASP43       0.1674
     44  C         11.0190   19.3370   26.1950 C.2    43  ASP43       0.2266
     45  O         10.0250   18.6330   26.4640 O.2    43  ASP43      -0.2867
     46  CB         9.9530   19.9770   23.9950 C.3    43  ASP43       0.1410
     47  CG         8.5160   20.3370   24.3010 C.2    43  ASP43       0.3668
     48  OD1        8.2380   21.0670   25.2550 O.co2  43  ASP43      -0.2456
     49  OD2        7.6460   19.8680   23.5000 O.co2  43  ASP43      -0.2456
     50  N         11.6310   26.5600   25.3900 N.3    82  PHE82      -0.1241
     51  CA        10.2820   26.1040   25.5550 C.3    82  PHE82       0.1605
     52  C          9.6920   26.5500   26.8600 C.2    82  PHE82       0.2264
     53  O         10.3970   26.7910   27.8340 O.2    82  PHE82      -0.2867
     54  CB        10.1910   24.5580   25.4680 C.3    82  PHE82       0.0534
     55  CG        10.0950   24.0340   24.0460 C.ar   82  PHE82      -0.0203
     56  CD1        8.8640   23.9790   23.4160 C.ar   82  PHE82      -0.0042
     57  CD2       11.2080   23.6280   23.3470 C.ar   82  PHE82      -0.0042
     58  CE1        8.7220   23.5370   22.1660 C.ar   82  PHE82      -0.0003
     59  CE2       11.0780   23.1680   22.0600 C.ar   82  PHE82      -0.0003
     60  CZ         9.8360   23.1150   21.4640 C.ar   82  PHE82      -0.0000
     61  N          5.8020   22.6850   29.8560 N.3    86  TRP86      -0.1241
     62  CA         5.8420   21.6150   28.8420 C.3    86  TRP86       0.1605
     63  C          7.0500   20.7050   29.0320 C.2    86  TRP86       0.2264
     64  O          7.0130   19.5050   28.7470 O.2    86  TRP86      -0.2867
     65  CB         5.8780   22.2010   27.4520 C.3    86  TRP86       0.0550
     66  CG         4.6000   22.9090   27.0340 C.ar   86  TRP86       0.0003
     67  CD1        3.4100   22.9800   27.6980 C.ar   86  TRP86       0.0946
     68  CD2        4.4190   23.6200   25.8230 C.ar   86  TRP86       0.0152
     69  NE1        2.5180   23.7070   26.9710 N.ar   86  TRP86      -0.2442
     70  CE2        3.1140   24.1160   25.8080 C.ar   86  TRP86       0.0810
     71  CE3        5.2530   23.8800   24.7330 C.ar   86  TRP86       0.0012
     72  CZ2        2.6120   24.8790   24.7430 C.ar   86  TRP86       0.0191
     73  CZ3        4.7540   24.6430   23.6700 C.ar   86  TRP86       0.0001
     74  CH2        3.4610   25.1280   23.6960 C.ar   86  TRP86       0.0015
     75  N         12.7840   15.1120   15.5500 N.3   140  THR140     -0.1218
     76  CA        11.5170   15.4450   16.1800 C.3   140  THR140      0.1862
     77  C         11.6470   16.5540   17.2060 C.2   140  THR140      0.2287
     78  O         10.6770   16.9360   17.8550 O.2   140  THR140     -0.2866
     79  CB        10.8580   14.2090   16.7660 C.3   140  THR140      0.1770
     80  OG1       11.7270   13.6500   17.7780 O.3   140  THR140     -0.2211
     81  CG2       10.5900   13.1810   15.7110 C.3   140  THR140      0.0375
     82  N         10.0200   16.9160   11.9140 N.3   167  MET167     -0.1245
     83  CA         8.8110   17.5800   12.4420 C.3   167  MET167      0.1570
     84  C          9.1770   19.0320   12.6850 C.2   167  MET167      0.2261
     85  O         10.0110   19.3320   13.5180 O.2   167  MET167     -0.2867
     86  CB         8.3170   16.8690   13.6810 C.3   167  MET167      0.0387
     87  CG         6.9120   17.2740   14.0260 C.3   167  MET167      0.0595
     88  SD         6.7820   18.9540   14.7440 S.3   167  MET167     -0.1393
     89  CE         5.5250   19.7590   13.6680 C.3   167  MET167      0.0692
     90  N          2.1930   27.6390   16.0580 N.3   176  ASN176     -0.1240
     91  CA         1.7750   27.2620   17.4010 C.3   176  ASN176      0.1653
     92  C          2.5480   27.9810   18.4970 C.2   176  ASN176      0.2266
     93  O          2.3940   27.6070   19.6760 O.2   176  ASN176     -0.2867
     94  CB         1.7430   25.7320   17.5640 C.3   176  ASN176      0.1155
     95  CG         3.0720   25.0480   17.4730 C.2   176  ASN176      0.2627
     96  OD1        4.1200   25.7300   17.4790 O.2   176  ASN176     -0.2716
     97  ND2        3.0510   23.7020   17.4340 N.am  176  ASN176     -0.0877
     98  N          6.2160   27.7880   14.2270 N.3   187  GLU187     -0.1231
     99  CA         6.1140   26.5080   14.9450 C.3   187  GLU187      0.1699
    100  C          7.3140   26.3590   15.8830 C.2   187  GLU187      0.2592
    101  O          8.3830   26.8470   15.5980 O.2   187  GLU187     -0.2718
    102  CB         5.9590   25.3790   13.9090 C.3   187  GLU187      0.0402
    103  CG         5.8930   23.9830   14.4620 C.3   187  GLU187      0.1161
    104  CD         7.2300   23.4370   14.9460 C.2   187  GLU187      0.3649
    105  OE1        8.2810   23.7910   14.3380 O.co2 187  GLU187     -0.2457
    106  OE2        7.2530   22.6390   15.9560 O.co2 187  GLU187     -0.2457
    107  N          7.0810   25.7080   17.0180 N.am  188  TRP188     -0.1962
    108  CA         8.0140   25.7140   18.1370 C.3   188  TRP188      0.1771
    109  C          9.3980   25.1180   17.8320 C.2   188  TRP188      0.2619
    110  O         10.4230   25.6680   18.2740 O.2   188  TRP188     -0.2715
    111  CB         7.3820   24.9930   19.3730 C.3   188  TRP188      0.0590
    112  CG         6.7290   25.9530   20.2950 C.ar  188  TRP188      0.0006
    113  CD1        5.4050   26.2220   20.4700 C.ar  188  TRP188      0.0946
    114  CD2        7.4370   26.8030   21.1950 C.ar  188  TRP188      0.0152
    115  NE1        5.2500   27.1850   21.4210 N.ar  188  TRP188     -0.2442
    116  CE2        6.4820   27.5680   21.8790 C.ar  188  TRP188      0.0810
    117  CE3        8.7910   26.9950   21.4660 C.ar  188  TRP188      0.0012
    118  CZ2        6.8440   28.5150   22.8340 C.ar  188  TRP188      0.0191
    119  CZ3        9.1600   27.9450   22.4390 C.ar  188  TRP188      0.0001
    120  CH2        8.1820   28.6830   23.0880 C.ar  188  TRP188      0.0015
    121  N          9.4660   23.9880   17.1410 N.am  189  ASN189     -0.1972
    122  CA        10.7650   23.3740   16.8830 C.3   189  ASN189      0.1688
    123  C         11.6810   24.2950   16.0870 C.2   189  ASN189      0.2292
    124  O         12.8890   24.3500   16.3150 O.2   189  ASN189     -0.2864
    125  CB        10.6460   22.0330   16.1480 C.3   189  ASN189      0.1181
    126  CG        10.1380   20.9340   17.0270 C.2   189  ASN189      0.2629
    127  OD1       10.0630   21.0770   18.2560 O.2   189  ASN189     -0.2716
    128  ND2        9.7730   19.8130   16.4040 N.am  189  ASN189     -0.0877
    129  N         -5.8480   19.1000   26.2850 N.3   251  GLU251     -0.1245
    130  CA        -5.2680   20.3550   25.8100 C.3   251  GLU251      0.1567
    131  C         -6.1300   21.0070   24.7380 C.2   251  GLU251      0.2260
    132  O         -6.1980   22.2200   24.6530 O.2   251  GLU251     -0.2867
    133  CB        -3.8380   20.1680   25.3120 C.3   251  GLU251      0.0388
    134  CG        -2.9160   19.7420   26.4800 C.3   251  GLU251      0.1160
    135  CD        -1.4390   19.7810   26.1960 C.2   251  GLU251      0.3649
    136  OE1       -1.0170   20.5290   25.2780 O.co2 251  GLU251     -0.2457
    137  OE2       -0.6930   19.0380   26.9100 O.co2 251  GLU251     -0.2457
    138  N         -7.1970   24.8360   25.3440 N.3   255  ARG255     -0.1245
    139  CA        -6.7690   25.8460   24.3770 C.3   255  ARG255      0.1563
    140  C         -7.7430   26.0150   23.1960 C.2   255  ARG255      0.2260
    141  O         -7.3530   26.4500   22.1300 O.2   255  ARG255     -0.2867
    142  CB        -5.3490   25.5690   23.9140 C.3   255  ARG255      0.0307
    143  CG        -4.3150   25.6960   24.9880 C.3   255  ARG255      0.0489
    144  CD        -2.8480   25.8480   24.3470 C.3   255  ARG255      0.2205
    145  NE        -2.5550   24.6240   23.6090 N.pl3 255  ARG255     -0.0865
    146  CZ        -2.0540   23.5060   24.1410 C.cat 255  ARG255      0.5346
    147  NH1       -1.7080   23.4390   25.4090 N.pl3 255  ARG255      0.1354
    148  NH2       -1.9120   22.4450   23.3410 N.pl3 255  ARG255      0.1354
    149  N         -3.0280   19.1850   21.6520 N.3   260  TYR260     -0.1241
    150  CA        -1.7770   18.3990   21.5780 C.3   260  TYR260      0.1605
    151  C         -1.9990   17.4480   20.4220 C.2   260  TYR260      0.2264
    152  O         -3.0280   16.7840   20.3280 O.2   260  TYR260     -0.2867
    153  CB        -1.5260   17.6950   22.9290 C.3   260  TYR260      0.0534
    154  CG        -0.1240   17.1380   23.0910 C.ar  260  TYR260     -0.0201
    155  CD1        0.8420   17.8510   23.8220 C.ar  260  TYR260     -0.0009
    156  CD2        0.2540   15.9470   22.5350 C.ar  260  TYR260     -0.0009
    157  CE1        2.1390   17.3610   23.9900 C.ar  260  TYR260      0.0417
    158  CE2        1.5720   15.4270   22.7020 C.ar  260  TYR260      0.0417
    159  CZ         2.5070   16.1680   23.4340 C.ar  260  TYR260      0.1957
    160  OH         3.7910   15.6400   23.5660 O.3   260  TYR260     -0.2866
    161  N          2.3360   14.9870   16.5490 N.3   263  TRP263     -0.1227
    162  CA         3.2590   15.6350   15.6230 C.3   263  TRP263      0.1737
    163  C          4.4170   14.7220   15.2380 C.2   263  TRP263      0.2595
    164  O          4.6490   14.4060   14.0360 O.2   263  TRP263     -0.2718
    165  CB         3.7920   16.8940   16.1870 C.3   263  TRP263      0.0564
    166  CG         2.9700   18.0140   16.6700 C.ar  263  TRP263      0.0003
    167  CD1        2.4580   19.0330   15.9400 C.ar  263  TRP263      0.0946
    168  CD2        2.6220   18.3160   18.0520 C.ar  263  TRP263      0.0152
    169  NE1        1.8190   19.9500   16.7570 N.ar  263  TRP263     -0.2442
    170  CE2        1.8970   19.5370   18.0540 C.ar  263  TRP263      0.0810
    171  CE3        2.8310   17.6540   19.2720 C.ar  263  TRP263      0.0012
    172  CZ2        1.4270   20.1290   19.2060 C.ar  263  TRP263      0.0191
    173  CZ3        2.3650   18.2470   20.4280 C.ar  263  TRP263      0.0001
    174  CH2        1.6710   19.4560   20.3910 C.ar  263  TRP263      0.0015
    175  N          5.1800   14.3140   16.2310 N.am  264  ASP264     -0.1974
    176  CA         6.3590   13.5120   16.0230 C.3   264  ASP264      0.1709
    177  C          6.0280   12.0800   15.6770 C.2   264  ASP264      0.2293
    178  O          6.7610   11.4100   14.9080 O.2   264  ASP264     -0.2864
    179  CB         7.2290   13.5400   17.2990 C.3   264  ASP264      0.1436
    180  CG         7.7310   14.9220   17.6940 C.2   264  ASP264      0.3671
    181  OD1        7.6130   15.8440   16.8500 O.co2 264  ASP264     -0.2456
    182  OD2        8.1790   15.0360   18.8510 O.co2 264  ASP264     -0.2456
@<TRIPOS>BOND
     1    82    83    1
     2    83    84    1
     3    83    86    1
     4    84    85    2
     5    89    88    1
     6    86    87    1
     7   102   103    1
     8   102    99    1
     9    87    88    1
    10   164   163    2
    11    98    99    1
    12   105   104   ar
    13   103   104    1
    14   178   177    2
    15    99   100    1
    16   104   106   ar
    17   163   162    1
    18   163   175   am
    19    75    76    1
    20   101   100    2
    21   162   165    1
    22   162   161    1
    23   177   176    1
    24    81    79    1
    25   100   107   am
    26   167   166   ar
    27   167   169   ar
    28   176   175    1
    29   176   179    1
    30    90    91    1
    31   123   124    2
    32   123   122    1
    33   125   122    1
    34   125   126    1
    35    76    79    1
    36    76    77    1
    37   165   166    1
    38   128   126   am
    39   166   168   ar
    40   169   170   ar
    41    79    80    1
    42   181   180   ar
    43   122   121    1
    44   107   108    1
    45   126   127    2
    46   121   109   am
    47    77    78    2
    48   179   180    1
    49    91    94    1
    50    91    92    1
    51    97    95   am
    52    95    96    2
    53    95    94    1
    54   180   182   ar
    55   109   108    1
    56   109   110    2
    57   168   170   ar
    58   168   171   ar
    59   170   172   ar
    60   108   111    1
    61    92    93    2
    62    33    31   ar
    63    32    31   ar
    64   172   174   ar
    65   171   173   ar
    66    31    30    1
    67   111   112    1
    68    29    28    2
    69    40    39   ar
    70   112   113   ar
    71   112   114   ar
    72   152   151    2
    73   174   173   ar
    74   151   150    1
    75   113   115   ar
    76    37    36    2
    77    30    27    1
    78    28    34   am
    79    28    27    1
    80    35    36    1
    81    35    34    1
    82    35    38    1
    83     7     6   ar
    84    39    38    1
    85    39    41   ar
    86   114   117   ar
    87   114   116   ar
    88     1     2    1
    89   115   116   ar
    90    60    59   ar
    91    60    58   ar
    92   117   119   ar
    93    27    26    1
    94     6     8   ar
    95     6     5    1
    96   150   149    1
    97   150   153    1
    98   116   118   ar
    99     5     2    1
   100    59    57   ar
   101   141   140    2
   102    58    56   ar
   103   119   120   ar
   104     2     3    1
   105   156   158   ar
   106   156   154   ar
   107   158   159   ar
   108   118   120   ar
   109    26    19   am
   110   153   154    1
   111   154   155   ar
   112   140   139    1
   113   148   146    1
   114    57    55   ar
   115    56    55   ar
   116   159   160    1
   117   159   157   ar
   118    49    47   ar
   119     3     4    2
   120    20    19    2
   121   145   146    2
   122   145   144    1
   123    73    74   ar
   124    73    71   ar
   125    74    72   ar
   126    19    18    1
   127   155   157   ar
   128   142   139    1
   129   142   143    1
   130    46    47    1
   131    46    43    1
   132    55    54    1
   133   146   147    1
   134    47    48   ar
   135    13    10    1
   136    13    14    1
   137    12    11    2
   138   144   143    1
   139   139   138    1
   140    42    43    1
   141     9    10    1
   142   132   131    2
   143    71    68   ar
   144   131   130    1
   145    72    70   ar
   146    11    10    1
   147    11    17   am
   148    43    44    1
   149    18    17    1
   150    18    21    1
   151    15    14    2
   152    14    16   am
   153   136   135   ar
   154   133   130    1
   155   133   134    1
   156    50    51    1
   157    54    51    1
   158    51    52    1
   159    21    22    1
   160    70    68   ar
   161    70    69   ar
   162   130   129    1
   163    68    66   ar
   164    44    45    2
   165   135   134    1
   166   135   137   ar
   167    52    53    2
   168    69    67   ar
   169    66    65    1
   170    66    67   ar
   171    24    25    1
   172    24    23    1
   173    22    23    1
   174    65    62    1
   175    64    63    2
   176    62    63    1
   177    62    61    1
