@<TRIPOS>MOLECULE
tmp/4i72A00.pdb
 182 177 0 0 0
SMALL
GASTEIGER

@<TRIPOS>ATOM
      1  N         15.6480   44.4900    2.2740 N.3    13  ASP13      -0.1239
      2  CA        16.5760   43.3720    2.3250 C.3    13  ASP13       0.1674
      3  C         16.2040   42.2320    3.3100 C.2    13  ASP13       0.2266
      4  O         17.0610   41.4750    3.7510 O.2    13  ASP13      -0.2867
      5  CB        18.0170   43.8580    2.5120 C.3    13  ASP13       0.1410
      6  CG        18.2900   44.4620    3.8980 C.2    13  ASP13       0.3668
      7  OD1       17.3440   44.8550    4.6190 O.co2  13  ASP13      -0.2456
      8  OD2       19.4990   44.5420    4.2490 O.co2  13  ASP13      -0.2456
      9  N         14.8370   41.2920    6.3880 N.3    15  ASN15      -0.1225
     10  CA        14.9870   40.9070    7.7770 C.3    15  ASN15       0.1785
     11  C         13.6680   41.1480    8.4480 C.2    15  ASN15       0.2597
     12  O         12.7130   41.5520    7.7940 O.2    15  ASN15      -0.2718
     13  CB        16.1280   41.6440    8.4870 C.3    15  ASN15       0.1169
     14  CG        16.8250   40.7540    9.5310 C.2    15  ASN15       0.2627
     15  OD1       16.3980   40.7180   10.6800 O.2    15  ASN15      -0.2716
     16  ND2       17.8610   39.9940    9.1150 N.am   15  ASN15      -0.0877
     17  N         13.6090   40.9210    9.7440 N.am   16  LYS16      -0.1966
     18  CA        12.3350   40.9720   10.4800 C.3    16  LYS16       0.1728
     19  C         11.7490   42.3820   10.4770 C.2    16  LYS16       0.2616
     20  O         10.5590   42.5600   10.2450 O.2    16  LYS16      -0.2715
     21  CB        12.5250   40.4400   11.9060 C.3    16  LYS16       0.0311
     22  CG        12.9550   38.9440   11.9310 C.3    16  LYS16       0.0038
     23  CD        13.6350   38.5360   13.2400 C.3    16  LYS16       0.0206
     24  CE        15.0550   39.1630   13.3690 C.3    16  LYS16       0.1093
     25  NZ        15.7630   38.7930   14.6040 N.3    16  LYS16      -0.1314
     26  N         12.5820   43.3880   10.6750 N.am   17  ASP17      -0.1957
     27  CA        12.0840   44.7480   10.6160 C.3    17  ASP17       0.1840
     28  C         11.6850   45.1640    9.1770 C.2    17  ASP17       0.2622
     29  O         10.7380   45.9270    9.0070 O.2    17  ASP17      -0.2715
     30  CB        13.0140   45.7800   11.2810 C.3    17  ASP17       0.1450
     31  CG        14.3150   46.0070   10.5420 C.2    17  ASP17       0.3671
     32  OD1       14.9470   45.0460    9.9890 O.co2  17  ASP17      -0.2456
     33  OD2       14.7340   47.1960   10.5710 O.co2  17  ASP17      -0.2456
     34  N         12.3690   44.6370    8.1700 N.am   18  ASP18      -0.1971
     35  CA        11.9540   44.9290    6.7900 C.3    18  ASP18       0.1709
     36  C         10.5320   44.4550    6.5990 C.2    18  ASP18       0.2293
     37  O          9.7750   45.1030    5.9080 O.2    18  ASP18      -0.2864
     38  CB        12.8250   44.2310    5.7310 C.3    18  ASP18       0.1436
     39  CG        14.2400   44.7060    5.7590 C.2    18  ASP18       0.3671
     40  OD1       14.6020   45.6020    4.9590 O.co2  18  ASP18      -0.2456
     41  OD2       14.9880   44.1860    6.6180 O.co2  18  ASP18      -0.2456
     42  N         20.7250   41.8320    4.1500 N.3    43  ASP43      -0.1239
     43  CA        20.3710   41.2820    5.4710 C.3    43  ASP43       0.1674
     44  C         19.4150   40.0770    5.3840 C.2    43  ASP43       0.2266
     45  O         18.6500   39.8000    6.3100 O.2    43  ASP43      -0.2867
     46  CB        19.7640   42.3910    6.2930 C.3    43  ASP43       0.1410
     47  CG        19.8190   42.1490    7.7750 C.2    43  ASP43       0.3668
     48  OD1       20.6160   41.3070    8.2680 O.co2  43  ASP43      -0.2456
     49  OD2       19.0470   42.8790    8.4490 O.co2  43  ASP43      -0.2456
     50  N         26.4020   41.5470    5.4330 N.3    82  PHE82      -0.1241
     51  CA        25.8650   41.4330    6.7870 C.3    82  PHE82       0.1605
     52  C         26.4160   40.1780    7.4660 C.2    82  PHE82       0.2264
     53  O         26.7710   39.2030    6.7850 O.2    82  PHE82      -0.2867
     54  CB        24.3250   41.3830    6.7490 C.3    82  PHE82       0.0534
     55  CG        23.6940   42.7300    6.6950 C.ar   82  PHE82      -0.0203
     56  CD1       23.3260   43.3920    7.8730 C.ar   82  PHE82      -0.0042
     57  CD2       23.5020   43.3640    5.4750 C.ar   82  PHE82      -0.0042
     58  CE1       22.7300   44.6710    7.8230 C.ar   82  PHE82      -0.0003
     59  CE2       22.9460   44.6130    5.4040 C.ar   82  PHE82      -0.0003
     60  CZ        22.5370   45.2800    6.5790 C.ar   82  PHE82      -0.0000
     61  N         22.6360   36.7820   11.0500 N.3    86  TRP86      -0.1241
     62  CA        21.4780   37.6830   10.9720 C.3    86  TRP86       0.1605
     63  C         20.6370   37.3930    9.7340 C.2    86  TRP86       0.2264
     64  O         19.4390   37.6110    9.7310 O.2    86  TRP86      -0.2867
     65  CB        21.9310   39.1380   10.8880 C.3    86  TRP86       0.0550
     66  CG        22.6670   39.6550   12.0670 C.ar   86  TRP86       0.0003
     67  CD1       23.0130   38.9720   13.2050 C.ar   86  TRP86       0.0946
     68  CD2       23.1730   40.9880   12.2280 C.ar   86  TRP86       0.0152
     69  NE1       23.7000   39.8090   14.0620 N.ar   86  TRP86      -0.2442
     70  CE2       23.8220   41.0450   13.4810 C.ar   86  TRP86       0.0810
     71  CE3       23.1360   42.1310   11.4390 C.ar   86  TRP86       0.0012
     72  CZ2       24.4420   42.2080   13.9560 C.ar   86  TRP86       0.0191
     73  CZ3       23.7750   43.2980   11.9090 C.ar   86  TRP86       0.0001
     74  CH2       24.3990   43.3200   13.1650 C.ar   86  TRP86       0.0015
     75  N         14.8110   50.1820    2.8740 N.3   140  THR140     -0.1218
     76  CA        15.0990   49.6420    4.1850 C.3   140  THR140      0.1862
     77  C         16.2760   48.6740    4.1620 C.2   140  THR140      0.2287
     78  O         16.6480   48.1230    5.2130 O.2   140  THR140     -0.2866
     79  CB        13.8870   48.9650    4.7930 C.3   140  THR140      0.1770
     80  OG1       13.4970   47.8700    3.9740 O.3   140  THR140     -0.2211
     81  CG2       12.7750   49.9200    4.9660 C.3   140  THR140      0.0375
     82  N         16.1310   54.1030    5.5340 N.3   167  MET167     -0.1245
     83  CA        16.6910   53.7010    6.7920 C.3   167  MET167      0.1570
     84  C         18.1940   53.5840    6.5520 C.2   167  MET167      0.2261
     85  O         18.6970   52.7490    5.7380 O.2   167  MET167     -0.2867
     86  CB        16.0860   52.3830    7.2800 C.3   167  MET167      0.0387
     87  CG        16.3820   52.1160    8.7740 C.3   167  MET167      0.0595
     88  SD        18.0610   51.6190    9.0250 S.3   167  MET167     -0.1393
     89  CE        18.6110   52.7330   10.3530 C.3   167  MET167      0.0692
     90  N         26.3350   51.1910   14.3340 N.3   176  ASN176     -0.1240
     91  CA        26.1140   49.8350   14.8150 C.3   176  ASN176      0.1653
     92  C         26.9390   48.7910   14.0630 C.2   176  ASN176      0.2266
     93  O         26.6010   47.6170   14.0740 O.2   176  ASN176     -0.2867
     94  CB        24.6270   49.4910   14.8060 C.3   176  ASN176      0.1155
     95  CG        23.9740   49.5600   13.4140 C.2   176  ASN176      0.2627
     96  OD1       24.6330   49.6630   12.3960 O.2   176  ASN176     -0.2716
     97  ND2       22.6420   49.4480   13.3970 N.am  176  ASN176     -0.0877
     98  N         26.8540   52.7730   10.1240 N.3   187  GLU187     -0.1231
     99  CA        25.6370   52.0250   10.2540 C.3   187  GLU187      0.1699
    100  C         25.5870   50.9910    9.1140 C.2   187  GLU187      0.2592
    101  O         26.0910   51.2290    8.0150 O.2   187  GLU187     -0.2718
    102  CB        24.4520   52.9850   10.2430 C.3   187  GLU187      0.0402
    103  CG        23.1070   52.3140   10.3160 C.3   187  GLU187      0.1161
    104  CD        22.6440   51.7720    8.9470 C.2   187  GLU187      0.3649
    105  OE1       23.0520   52.3290    7.9000 O.co2 187  GLU187     -0.2457
    106  OE2       21.8730   50.7890    8.9370 O.co2 187  GLU187     -0.2457
    107  N         24.9780   49.8530    9.4070 N.am  188  TRP188     -0.1962
    108  CA        25.0170   48.6740    8.5350 C.3   188  TRP188      0.1771
    109  C         24.5270   48.8860    7.1100 C.2   188  TRP188      0.2619
    110  O         25.2020   48.4870    6.1560 O.2   188  TRP188     -0.2715
    111  CB        24.2610   47.5020    9.1970 C.3   188  TRP188      0.0590
    112  CG        25.2020   46.6520    9.9040 C.ar  188  TRP188      0.0006
    113  CD1       25.3830   46.5720   11.2550 C.ar  188  TRP188      0.0946
    114  CD2       26.2010   45.8260    9.3050 C.ar  188  TRP188      0.0152
    115  NE1       26.4240   45.7070   11.5360 N.ar  188  TRP188     -0.2442
    116  CE2       26.9410   45.2360   10.3540 C.ar  188  TRP188      0.0810
    117  CE3       26.5310   45.5060    7.9760 C.ar  188  TRP188      0.0012
    118  CZ2       28.0100   44.3510   10.1170 C.ar  188  TRP188      0.0191
    119  CZ3       27.5890   44.6030    7.7360 C.ar  188  TRP188      0.0001
    120  CH2       28.3090   44.0400    8.8070 C.ar  188  TRP188      0.0015
    121  N         23.3750   49.5180    6.9390 N.am  189  ASN189     -0.1972
    122  CA        22.8420   49.7290    5.5820 C.3   189  ASN189      0.1688
    123  C         23.7770   50.4980    4.6700 C.2   189  ASN189      0.2292
    124  O         23.9080   50.1730    3.5070 O.2   189  ASN189     -0.2864
    125  CB        21.4650   50.4000    5.6320 C.3   189  ASN189      0.1181
    126  CG        20.3580   49.4250    6.0300 C.2   189  ASN189      0.2629
    127  OD1       20.6170   48.2550    6.2810 O.2   189  ASN189     -0.2716
    128  ND2       19.1140   49.9110    6.0920 N.am  189  ASN189     -0.0877
    129  N         18.1210   40.2050   21.8770 N.3   251  GLU251     -0.1245
    130  CA        19.4070   40.6660   21.2920 C.3   251  GLU251      0.1567
    131  C         20.1030   41.7390   22.1310 C.2   251  GLU251      0.2260
    132  O         21.3500   41.8190   22.1490 O.2   251  GLU251     -0.2867
    133  CB        19.2320   41.1490   19.8350 C.3   251  GLU251      0.0388
    134  CG        18.6750   40.0550   18.9590 C.3   251  GLU251      0.1160
    135  CD        18.8430   40.2880   17.4630 C.2   251  GLU251      0.3649
    136  OE1       19.6040   41.2030   17.0390 O.co2 251  GLU251     -0.2457
    137  OE2       18.2250   39.5040   16.7080 O.co2 251  GLU251     -0.2457
    138  N         23.9660   41.0030   22.9790 N.3   255  ARG255     -0.1245
    139  CA        25.0330   41.8720   22.5140 C.3   255  ARG255      0.1563
    140  C         25.2240   43.0570   23.4530 C.2   255  ARG255      0.2260
    141  O         25.6410   44.1270   23.0480 O.2   255  ARG255     -0.2867
    142  CB        24.7430   42.3420   21.0750 C.3   255  ARG255      0.0307
    143  CG        24.7580   41.2520   20.0020 C.3   255  ARG255      0.0489
    144  CD        24.8550   41.9190   18.6220 C.3   255  ARG255      0.2205
    145  NE        23.6780   42.7650   18.3730 N.pl3 255  ARG255     -0.0865
    146  CZ        22.5050   42.3370   17.8940 C.cat 255  ARG255      0.5346
    147  NH1       22.3320   41.0640   17.5680 N.pl3 255  ARG255      0.1354
    148  NH2       21.4970   43.1910   17.7590 N.pl3 255  ARG255      0.1354
    149  N         18.1830   45.0940   19.2880 N.3   260  TYR260     -0.1241
    150  CA        17.3580   45.0490   18.0610 C.3   260  TYR260      0.1605
    151  C         16.3620   46.2280   18.1630 C.2   260  TYR260      0.2264
    152  O         15.7660   46.4730   19.2410 O.2   260  TYR260     -0.2867
    153  CB        16.6430   43.6770   17.8430 C.3   260  TYR260      0.0534
    154  CG        16.2240   43.4100   16.3760 C.ar  260  TYR260     -0.0201
    155  CD1       17.0770   42.7690   15.5040 C.ar  260  TYR260     -0.0009
    156  CD2       14.9820   43.8060   15.8720 C.ar  260  TYR260     -0.0009
    157  CE1       16.7140   42.5050   14.1620 C.ar  260  TYR260      0.0417
    158  CE2       14.6100   43.5550   14.5000 C.ar  260  TYR260      0.0417
    159  CZ        15.4790   42.9150   13.6550 C.ar  260  TYR260      0.1957
    160  OH        15.1930   42.6860   12.2650 O.3   260  TYR260     -0.2866
    161  N         13.8450   49.4890   13.2820 N.3   263  TRP263     -0.1227
    162  CA        14.5270   50.4710   12.4410 C.3   263  TRP263      0.1737
    163  C         13.6950   50.7730   11.2080 C.2   263  TRP263      0.2595
    164  O         13.2500   51.9100   11.0080 O.2   263  TRP263     -0.2718
    165  CB        15.8970   49.9710   11.9580 C.3   263  TRP263      0.0564
    166  CG        16.9480   49.5980   12.9420 C.ar  263  TRP263      0.0003
    167  CD1       17.7890   50.4470   13.5940 C.ar  263  TRP263      0.0946
    168  CD2       17.3450   48.2830   13.3130 C.ar  263  TRP263      0.0152
    169  NE1       18.6720   49.7510   14.3570 N.ar  263  TRP263     -0.2442
    170  CE2       18.4130   48.4140   14.2280 C.ar  263  TRP263      0.0810
    171  CE3       16.8900   47.0020   12.9890 C.ar  263  TRP263      0.0012
    172  CZ2       19.0550   47.3060   14.8080 C.ar  263  TRP263      0.0191
    173  CZ3       17.5380   45.8890   13.5570 C.ar  263  TRP263      0.0001
    174  CH2       18.6130   46.0540   14.4540 C.ar  263  TRP263      0.0015
    175  N         13.4960   49.7370   10.4010 N.am  264  ASP264     -0.1974
    176  CA        12.8190   49.8440    9.1550 C.3   264  ASP264      0.1709
    177  C         11.3260   50.1200    9.3490 C.2   264  ASP264      0.2293
    178  O         10.7110   50.7940    8.5130 O.2   264  ASP264     -0.2864
    179  CB        13.0380   48.5640    8.3260 C.3   264  ASP264      0.1436
    180  CG        14.5150   48.2890    8.0050 C.2   264  ASP264      0.3671
    181  OD1       15.4010   49.1770    8.2160 O.co2 264  ASP264     -0.2456
    182  OD2       14.7890   47.1550    7.5480 O.co2 264  ASP264     -0.2456
@<TRIPOS>BOND
     1     1     2    1
     2     2     5    1
     3     2     3    1
     4     5     6    1
     5    75    76    1
     6     3     4    2
     7   124   123    2
     8     6     8   ar
     9     6     7   ar
    10    80    79    1
    11    42    43    1
    12    77    76    1
    13    77    78    2
    14    76    79    1
    15   123   122    1
    16    79    81    1
    17    40    39   ar
    18    44    43    1
    19    44    45    2
    20    59    57   ar
    21    59    60   ar
    22    50    51    1
    23    43    46    1
    24    57    55   ar
    25    82    83    1
    26   122   125    1
    27   122   121    1
    28   125   126    1
    29    38    39    1
    30    38    35    1
    31    85    84    2
    32    39    41   ar
    33    37    36    2
    34   126   128   am
    35   126   127    2
    36   110   109    2
    37    46    47    1
    38     9    10    1
    39    84    83    1
    40    60    58   ar
    41    36    35    1
    42    55    54    1
    43    55    56   ar
    44    54    51    1
    45    53    52    2
    46    51    52    1
    47    35    34    1
    48    83    86    1
    49   121   109   am
    50   109   108    1
    51    86    87    1
    52   182   180   ar
    53   119   117   ar
    54   119   120   ar
    55    47    48   ar
    56    47    49   ar
    57    10    11    1
    58    10    13    1
    59    12    11    2
    60    58    56   ar
    61   105   104   ar
    62   117   114   ar
    63   180   181   ar
    64   180   179    1
    65   101   100    2
    66    34    28   am
    67   179   176    1
    68    11    17   am
    69    13    14    1
    70   178   177    2
    71   108   111    1
    72   108   107    1
    73    87    88    1
    74   120   118   ar
    75   106   104   ar
    76   104   103    1
    77    29    28    2
    78    88    89    1
    79   100   107   am
    80   100    99    1
    81    16    14   am
    82   176   177    1
    83   176   175    1
    84    28    27    1
    85   111   112    1
    86   114   112   ar
    87   114   116   ar
    88    14    15    2
    89    64    63    2
    90    63    62    1
    91    17    18    1
    92   112   113   ar
    93    32    31   ar
    94   118   116   ar
    95    98    99    1
    96   102    99    1
    97   102   103    1
    98    20    19    2
    99   116   115   ar
   100   175   163   am
   101    19    18    1
   102    19    26   am
   103    18    21    1
   104    31    33   ar
   105    31    30    1
   106    27    26    1
   107    27    30    1
   108    65    62    1
   109    65    66    1
   110    62    61    1
   111   164   163    2
   112   163   162    1
   113   113   115   ar
   114    71    73   ar
   115    71    68   ar
   116    21    22    1
   117    73    74   ar
   118    22    23    1
   119   165   162    1
   120   165   166    1
   121    66    68   ar
   122    66    67   ar
   123    68    70   ar
   124   160   159    1
   125    96    95    2
   126   162   161    1
   127   166   168   ar
   128   166   167   ar
   129   171   168   ar
   130   171   173   ar
   131    74    72   ar
   132    67    69   ar
   133    23    24    1
   134   168   170   ar
   135    24    25    1
   136    97    95   am
   137    95    94    1
   138    70    72   ar
   139    70    69   ar
   140   173   174   ar
   141   167   169   ar
   142   159   157   ar
   143   159   158   ar
   144    92    93    2
   145    92    91    1
   146   157   155   ar
   147   170   169   ar
   148   170   172   ar
   149    90    91    1
   150   174   172   ar
   151   158   156   ar
   152    94    91    1
   153   155   154   ar
   154   156   154   ar
   155   154   153    1
   156   137   135   ar
   157   136   135   ar
   158   135   134    1
   159   147   146    1
   160   148   146    1
   161   153   150    1
   162   146   145    2
   163   150   151    1
   164   150   149    1
   165   151   152    2
   166   145   144    1
   167   144   143    1
   168   134   133    1
   169   133   130    1
   170   143   142    1
   171   142   139    1
   172   130   129    1
   173   130   131    1
   174   131   132    2
   175   139   138    1
   176   139   140    1
   177   141   140    2
