@<TRIPOS>MOLECULE
tmp/4i74A01.pdb
 141 137 0 0 0
SMALL
GASTEIGER

@<TRIPOS>ATOM
      1  N        -16.1360  -12.9260  -21.0530 N.3    13  ASP13      -0.1239
      2  CA       -16.0610  -13.8470  -22.2160 C.3    13  ASP13       0.1674
      3  C        -17.0540  -13.4710  -23.3060 C.2    13  ASP13       0.2266
      4  O        -17.4720  -14.3130  -24.0530 O.2    13  ASP13      -0.2867
      5  CB       -16.1910  -15.3070  -21.8030 C.3    13  ASP13       0.1410
      6  CG       -17.5570  -15.6660  -21.2910 C.2    13  ASP13       0.3668
      7  OD1      -18.3530  -14.7830  -20.8520 O.co2  13  ASP13      -0.2456
      8  OD2      -17.8460  -16.8990  -21.3420 O.co2  13  ASP13      -0.2456
      9  N        -20.2300  -12.4690  -24.1760 N.3    15  ASN15      -0.1240
     10  CA       -21.6410  -12.7060  -24.5180 C.3    15  ASN15       0.1653
     11  C        -22.2940  -11.3300  -24.3660 C.2    15  ASN15       0.2266
     12  O        -21.6950  -10.3450  -23.8570 O.2    15  ASN15      -0.2867
     13  CB       -22.3700  -13.7180  -23.6330 C.3    15  ASN15       0.1155
     14  CG       -23.7970  -14.0510  -24.1420 C.2    15  ASN15       0.2627
     15  OD1      -24.0250  -14.0870  -25.3970 O.2    15  ASN15      -0.2716
     16  ND2      -24.7830  -14.2540  -23.1940 N.am   15  ASN15      -0.0877
     17  N        -24.5590  -10.3400  -22.2570 N.3    17  ASP17      -0.1225
     18  CA       -24.6230   -9.7790  -20.9200 C.3    17  ASP17       0.1805
     19  C        -23.2480   -9.3940  -20.3770 C.2    17  ASP17       0.2597
     20  O        -23.1840   -8.5360  -19.5300 O.2    17  ASP17      -0.2718
     21  CB       -25.3860  -10.6670  -19.9800 C.3    17  ASP17       0.1424
     22  CG       -24.7350  -11.9820  -19.7850 C.2    17  ASP17       0.3668
     23  OD1      -24.1010  -12.5490  -20.7280 O.co2  17  ASP17      -0.2456
     24  OD2      -24.8680  -12.4380  -18.6450 O.co2  17  ASP17      -0.2456
     25  N        -22.1630  -10.0250  -20.8620 N.am   18  ASP18      -0.1974
     26  CA       -20.8320   -9.5090  -20.5160 C.3    18  ASP18       0.1709
     27  C        -20.7200   -8.0430  -20.9000 C.2    18  ASP18       0.2293
     28  O        -20.1260   -7.2380  -20.1600 O.2    18  ASP18      -0.2864
     29  CB       -19.7040  -10.2780  -21.2030 C.3    18  ASP18       0.1436
     30  CG       -19.6580  -11.7390  -20.7910 C.2    18  ASP18       0.3671
     31  OD1      -18.9140  -12.0390  -19.8390 O.co2  18  ASP18      -0.2456
     32  OD2      -20.3880  -12.5860  -21.3800 O.co2  18  ASP18      -0.2456
     33  N        -17.5640  -17.9590  -24.1650 N.3    43  ASP43      -0.1239
     34  CA       -18.8650  -17.7200  -24.7670 C.3    43  ASP43       0.1674
     35  C        -18.8260  -16.7060  -25.9330 C.2    43  ASP43       0.2266
     36  O        -19.8470  -16.0740  -26.2090 O.2    43  ASP43      -0.2867
     37  CB       -19.8640  -17.2380  -23.6960 C.3    43  ASP43       0.1410
     38  CG       -21.3090  -17.6250  -23.9590 C.2    43  ASP43       0.3668
     39  OD1      -21.6160  -18.4560  -24.8530 O.co2  43  ASP43      -0.2456
     40  OD2      -22.1620  -17.0670  -23.1900 O.co2  43  ASP43      -0.2456
     41  N        -18.0950  -23.8810  -25.0790 N.3    82  PHE82      -0.1241
     42  CA       -19.4790  -23.4490  -25.2020 C.3    82  PHE82       0.1605
     43  C        -20.0040  -23.8550  -26.5620 C.2    82  PHE82       0.2264
     44  O        -19.2410  -24.0250  -27.5200 O.2    82  PHE82      -0.2867
     45  CB       -19.5840  -21.9350  -25.0940 C.3    82  PHE82       0.0534
     46  CG       -19.7010  -21.4150  -23.6790 C.ar   82  PHE82      -0.0203
     47  CD1      -20.9250  -21.3700  -23.0660 C.ar   82  PHE82      -0.0042
     48  CD2      -18.6100  -20.9620  -22.9750 C.ar   82  PHE82      -0.0042
     49  CE1      -21.0790  -20.8770  -21.7770 C.ar   82  PHE82      -0.0003
     50  CE2      -18.7450  -20.4580  -21.6660 C.ar   82  PHE82      -0.0003
     51  CZ       -20.0030  -20.4150  -21.0790 C.ar   82  PHE82      -0.0000
     52  N        -23.8450  -20.2840  -29.7880 N.3    86  TRP86      -0.1241
     53  CA       -23.8780  -19.2340  -28.7830 C.3    86  TRP86       0.1605
     54  C        -22.7110  -18.2650  -28.9180 C.2    86  TRP86       0.2264
     55  O        -22.8390  -17.0600  -28.6470 O.2    86  TRP86      -0.2867
     56  CB       -23.8000  -19.8120  -27.3600 C.3    86  TRP86       0.0550
     57  CG       -24.9010  -20.7110  -26.9840 C.ar   86  TRP86       0.0003
     58  CD1      -25.9140  -21.1860  -27.7870 C.ar   86  TRP86       0.0946
     59  CD2      -25.0800  -21.3100  -25.7170 C.ar   86  TRP86       0.0152
     60  NE1      -26.7260  -22.0290  -27.0640 N.ar   86  TRP86      -0.2442
     61  CE2      -26.2300  -22.1200  -25.7890 C.ar   86  TRP86       0.0810
     62  CE3      -24.3740  -21.2460  -24.5190 C.ar   86  TRP86       0.0012
     63  CZ2      -26.7060  -22.8520  -24.6790 C.ar   86  TRP86       0.0191
     64  CZ3      -24.8340  -21.9710  -23.4150 C.ar   86  TRP86       0.0001
     65  CH2      -25.9950  -22.7650  -23.5130 C.ar   86  TRP86       0.0015
     66  N        -16.9080  -12.4310  -15.3370 N.3   140  THR140     -0.1218
     67  CA       -18.1890  -12.7780  -15.9160 C.3   140  THR140      0.1862
     68  C        -18.0730  -13.9060  -16.9520 C.2   140  THR140      0.2287
     69  O        -19.0500  -14.3550  -17.5430 O.2   140  THR140     -0.2866
     70  CB       -18.8690  -11.5020  -16.4670 C.3   140  THR140      0.1770
     71  OG1      -18.0440  -10.9340  -17.4790 O.3   140  THR140     -0.2211
     72  CG2      -19.1120  -10.4870  -15.3140 C.3   140  THR140      0.0375
     73  N        -19.5020  -14.3060  -11.6480 N.3   167  MET167     -0.1245
     74  CA       -20.7160  -14.9490  -12.1320 C.3   167  MET167      0.1570
     75  C        -20.3720  -16.4200  -12.3800 C.2   167  MET167      0.2261
     76  O        -19.5190  -16.7630  -13.2180 O.2   167  MET167     -0.2867
     77  CB       -21.2700  -14.2940  -13.3990 C.3   167  MET167      0.0387
     78  CG       -22.7190  -14.7240  -13.6970 C.3   167  MET167      0.0595
     79  SD       -22.8580  -16.3660  -14.4370 S.3   167  MET167     -0.1393
     80  CE       -24.0550  -17.2680  -13.3940 C.3   167  MET167      0.0692
     81  N        -27.3230  -25.1990  -15.5110 N.3   176  ASN176     -0.1240
     82  CA       -27.7880  -24.8220  -16.8270 C.3   176  ASN176      0.1653
     83  C        -26.9880  -25.4650  -17.9660 C.2   176  ASN176      0.2266
     84  O        -27.1020  -25.0260  -19.1380 O.2   176  ASN176     -0.2867
     85  CB       -27.8510  -23.2770  -16.9270 C.3   176  ASN176      0.1155
     86  CG       -26.5080  -22.6070  -16.9410 C.2   176  ASN176      0.2627
     87  OD1      -25.4740  -23.2600  -17.0340 O.2   176  ASN176     -0.2716
     88  ND2      -26.5210  -21.2720  -16.8770 N.am  176  ASN176     -0.0877
     89  N        -23.2400  -25.2740  -13.7890 N.3   187  GLU187     -0.1231
     90  CA       -23.3800  -23.9880  -14.4790 C.3   187  GLU187      0.1699
     91  C        -22.2330  -23.8220  -15.4730 C.2   187  GLU187      0.2592
     92  O        -21.0880  -24.2820  -15.2400 O.2   187  GLU187     -0.2718
     93  CB       -23.4910  -22.8450  -13.4710 C.3   187  GLU187      0.0402
     94  CG       -23.6400  -21.4590  -14.0680 C.3   187  GLU187      0.1161
     95  CD       -22.3380  -20.8730  -14.5510 C.2   187  GLU187      0.3649
     96  OE1      -21.3040  -21.2420  -13.9270 O.co2 187  GLU187     -0.2457
     97  OE2      -22.3560  -20.0450  -15.5370 O.co2 187  GLU187     -0.2457
     98  N        -22.5400  -23.1580  -16.5930 N.am  188  TRP188     -0.1962
     99  CA       -21.5980  -23.0650  -17.7180 C.3   188  TRP188      0.1771
    100  C        -20.2090  -22.4660  -17.4840 C.2   188  TRP188      0.2619
    101  O        -19.2210  -23.0210  -17.9570 O.2   188  TRP188     -0.2715
    102  CB       -22.2480  -22.3840  -18.9350 C.3   188  TRP188      0.0590
    103  CG       -22.8540  -23.3630  -19.8910 C.ar  188  TRP188      0.0006
    104  CD1      -24.1730  -23.6320  -20.0770 C.ar  188  TRP188      0.0946
    105  CD2      -22.1420  -24.2230  -20.7950 C.ar  188  TRP188      0.0152
    106  NE1      -24.3290  -24.6050  -21.0340 N.ar  188  TRP188     -0.2442
    107  CE2      -23.1000  -24.9740  -21.4980 C.ar  188  TRP188      0.0810
    108  CE3      -20.7720  -24.4210  -21.0750 C.ar  188  TRP188      0.0012
    109  CZ2      -22.7430  -25.9140  -22.4480 C.ar  188  TRP188      0.0191
    110  CZ3      -20.4280  -25.3390  -22.0230 C.ar  188  TRP188      0.0001
    111  CH2      -21.4170  -26.0780  -22.7000 C.ar  188  TRP188      0.0015
    112  N        -20.1420  -21.3120  -16.8040 N.am  189  ASN189     -0.1972
    113  CA       -18.8300  -20.7130  -16.5230 C.3   189  ASN189      0.1688
    114  C        -17.8930  -21.6480  -15.7550 C.2   189  ASN189      0.2292
    115  O        -16.6930  -21.6650  -16.0300 O.2   189  ASN189     -0.2864
    116  CB       -18.9250  -19.3750  -15.8310 C.3   189  ASN189      0.1181
    117  CG       -19.5010  -18.2770  -16.7110 C.2   189  ASN189      0.2629
    118  OD1      -19.7310  -18.4400  -17.9280 O.2   189  ASN189     -0.2716
    119  ND2      -19.7420  -17.1420  -16.1010 N.am  189  ASN189     -0.0877
    120  N        -27.6220  -12.5210  -16.1130 N.3   263  TRP263     -0.1227
    121  CA       -26.5920  -13.0300  -15.2750 C.3   263  TRP263      0.1737
    122  C        -25.4280  -12.0890  -14.9670 C.2   263  TRP263      0.2595
    123  O        -25.2290  -11.6810  -13.8230 O.2   263  TRP263     -0.2718
    124  CB       -26.0230  -14.2690  -15.9270 C.3   263  TRP263      0.0564
    125  CG       -26.8890  -15.4280  -16.4550 C.ar  263  TRP263      0.0003
    126  CD1      -27.3190  -16.5250  -15.7630 C.ar  263  TRP263      0.0946
    127  CD2      -27.2840  -15.6450  -17.8150 C.ar  263  TRP263      0.0152
    128  NE1      -27.9900  -17.3820  -16.5980 N.ar  263  TRP263     -0.2442
    129  CE2      -27.9810  -16.8750  -17.8590 C.ar  263  TRP263      0.0810
    130  CE3      -27.1360  -14.9140  -18.9930 C.ar  263  TRP263      0.0012
    131  CZ2      -28.5130  -17.3850  -19.0270 C.ar  263  TRP263      0.0191
    132  CZ3      -27.6520  -15.4120  -20.1400 C.ar  263  TRP263      0.0001
    133  CH2      -28.3450  -16.6450  -20.1610 C.ar  263  TRP263      0.0015
    134  N        -24.6260  -11.7520  -15.9740 N.am  264  ASP264     -0.1974
    135  CA       -23.4270  -10.9470  -15.7380 C.3   264  ASP264      0.1709
    136  C        -23.7170   -9.4850  -15.3390 C.2   264  ASP264      0.2293
    137  O        -22.9050   -8.8440  -14.6700 O.2   264  ASP264     -0.2864
    138  CB       -22.5390  -10.9620  -16.9840 C.3   264  ASP264      0.1436
    139  CG       -22.0870  -12.3480  -17.3860 C.2   264  ASP264      0.3671
    140  OD1      -22.2950  -13.3120  -16.6420 O.co2 264  ASP264     -0.2456
    141  OD2      -21.5020  -12.4820  -18.5080 O.co2 264  ASP264     -0.2456
@<TRIPOS>BOND
     1    52    53    1
     2    54    53    1
     3    54    55    2
     4    53    56    1
     5    58    60   ar
     6    58    57   ar
     7    44    43    2
     8    56    57    1
     9    60    61   ar
    10    57    59   ar
    11    43    42    1
    12    36    35    2
    13    35    34    1
    14    61    59   ar
    15    61    63   ar
    16    59    62   ar
    17    15    14    2
    18    42    45    1
    19    42    41    1
    20    45    46    1
    21    39    38   ar
    22    34    33    1
    23    34    37    1
    24    63    65   ar
    25    62    64   ar
    26    10    11    1
    27    10     9    1
    28    10    13    1
    29    11    12    2
    30    14    13    1
    31    14    16   am
    32     4     3    2
    33    38    37    1
    34    38    40   ar
    35    46    47   ar
    36    46    48   ar
    37    65    64   ar
    38     3     2    1
    39    47    49   ar
    40    48    50   ar
    41   111   109   ar
    42   111   110   ar
    43   109   107   ar
    44    17    18    1
    45     2     5    1
    46     2     1    1
    47   110   108   ar
    48     5     6    1
    49    49    51   ar
    50    50    51   ar
    51   107   106   ar
    52   107   105   ar
    53    32    30   ar
    54     8     6   ar
    55     6     7   ar
    56    29    30    1
    57    29    26    1
    58   108   105   ar
    59   106   104   ar
    60    18    19    1
    61    18    21    1
    62    27    26    1
    63    27    28    2
    64    25    26    1
    65    25    19   am
    66   105   103   ar
    67    30    31   ar
    68    23    22   ar
    69    19    20    2
    70   133   132   ar
    71   133   131   ar
    72   132   130   ar
    73   104   103   ar
    74    21    22    1
    75   103   102    1
    76    22    24   ar
    77    84    83    2
    78   131   129   ar
    79   130   127   ar
    80   102    99    1
    81   141   139   ar
    82    83    82    1
    83   101   100    2
    84   118   117    2
    85   129   127   ar
    86   129   128   ar
    87   127   125   ar
    88    99   100    1
    89    99    98    1
    90    69    68    2
    91   100   112   am
    92    71    70    1
    93   139   138    1
    94   139   140   ar
    95    87    86    2
    96   138   135    1
    97    68    67    1
    98    86    85    1
    99    86    88   am
   100    85    82    1
   101    82    81    1
   102   112   113    1
   103   117   119   am
   104   117   116    1
   105   128   126   ar
   106    98    91   am
   107   113   116    1
   108   113   114    1
   109    70    67    1
   110    70    72    1
   111   125   124    1
   112   125   126   ar
   113   120   121    1
   114   115   114    2
   115   134   135    1
   116   134   122   am
   117   124   121    1
   118    67    66    1
   119   135   136    1
   120    97    95   ar
   121    91    92    2
   122    91    90    1
   123   136   137    2
   124   121   122    1
   125   122   123    2
   126    95    94    1
   127    95    96   ar
   128    90    89    1
   129    90    93    1
   130    79    78    1
   131    79    80    1
   132    94    93    1
   133    78    77    1
   134    77    74    1
   135    76    75    2
   136    75    74    1
   137    74    73    1
