@<TRIPOS>MOLECULE
tmp/4i74A00.pdb
 185 182 0 0 0
SMALL
GASTEIGER

@<TRIPOS>ATOM
      1  N        -16.1360  -12.9260  -21.0530 N.3    13  ASP13      -0.1239
      2  CA       -16.0610  -13.8470  -22.2160 C.3    13  ASP13       0.1674
      3  C        -17.0540  -13.4710  -23.3060 C.2    13  ASP13       0.2266
      4  O        -17.4720  -14.3130  -24.0530 O.2    13  ASP13      -0.2867
      5  CB       -16.1910  -15.3070  -21.8030 C.3    13  ASP13       0.1410
      6  CG       -17.5570  -15.6660  -21.2910 C.2    13  ASP13       0.3668
      7  OD1      -18.3530  -14.7830  -20.8520 O.co2  13  ASP13      -0.2456
      8  OD2      -17.8460  -16.8990  -21.3420 O.co2  13  ASP13      -0.2456
      9  N        -20.2300  -12.4690  -24.1760 N.3    15  ASN15      -0.1225
     10  CA       -21.6410  -12.7060  -24.5180 C.3    15  ASN15       0.1785
     11  C        -22.2940  -11.3300  -24.3660 C.2    15  ASN15       0.2597
     12  O        -21.6950  -10.3450  -23.8570 O.2    15  ASN15      -0.2718
     13  CB       -22.3700  -13.7180  -23.6330 C.3    15  ASN15       0.1169
     14  CG       -23.7970  -14.0510  -24.1420 C.2    15  ASN15       0.2627
     15  OD1      -24.0250  -14.0870  -25.3970 O.2    15  ASN15      -0.2716
     16  ND2      -24.7830  -14.2540  -23.1940 N.am   15  ASN15      -0.0877
     17  N        -23.5500  -11.2480  -24.7920 N.am   16  LYS16      -0.1966
     18  CA       -24.3070  -10.0160  -24.6670 C.3    16  LYS16       0.1728
     19  C        -24.3450   -9.5080  -23.2530 C.2    16  LYS16       0.2616
     20  O        -24.1760   -8.3090  -23.0360 O.2    16  LYS16      -0.2715
     21  CB       -25.7460  -10.1520  -25.2270 C.3    16  LYS16       0.0311
     22  CG       -25.7740  -10.5040  -26.6940 C.3    16  LYS16       0.0038
     23  CD       -27.0680  -11.1390  -27.1490 C.3    16  LYS16       0.0206
     24  CE       -27.3290  -12.5020  -26.5500 C.3    16  LYS16       0.1093
     25  NZ       -26.4890  -13.6140  -27.0570 N.3    16  LYS16      -0.1314
     26  N        -24.5590  -10.3400  -22.2570 N.am   17  ASP17      -0.1957
     27  CA       -24.6230   -9.7790  -20.9200 C.3    17  ASP17       0.1840
     28  C        -23.2480   -9.3940  -20.3770 C.2    17  ASP17       0.2622
     29  O        -23.1840   -8.5360  -19.5300 O.2    17  ASP17      -0.2715
     30  CB       -25.3860  -10.6670  -19.9800 C.3    17  ASP17       0.1450
     31  CG       -24.7350  -11.9820  -19.7850 C.2    17  ASP17       0.3671
     32  OD1      -24.1010  -12.5490  -20.7280 O.co2  17  ASP17      -0.2456
     33  OD2      -24.8680  -12.4380  -18.6450 O.co2  17  ASP17      -0.2456
     34  N        -22.1630  -10.0250  -20.8620 N.am   18  ASP18      -0.1971
     35  CA       -20.8320   -9.5090  -20.5160 C.3    18  ASP18       0.1709
     36  C        -20.7200   -8.0430  -20.9000 C.2    18  ASP18       0.2293
     37  O        -20.1260   -7.2380  -20.1600 O.2    18  ASP18      -0.2864
     38  CB       -19.7040  -10.2780  -21.2030 C.3    18  ASP18       0.1436
     39  CG       -19.6580  -11.7390  -20.7910 C.2    18  ASP18       0.3671
     40  OD1      -18.9140  -12.0390  -19.8390 O.co2  18  ASP18      -0.2456
     41  OD2      -20.3880  -12.5860  -21.3800 O.co2  18  ASP18      -0.2456
     42  N        -17.5640  -17.9590  -24.1650 N.3    43  ASP43      -0.1239
     43  CA       -18.8650  -17.7200  -24.7670 C.3    43  ASP43       0.1674
     44  C        -18.8260  -16.7060  -25.9330 C.2    43  ASP43       0.2266
     45  O        -19.8470  -16.0740  -26.2090 O.2    43  ASP43      -0.2867
     46  CB       -19.8640  -17.2380  -23.6960 C.3    43  ASP43       0.1410
     47  CG       -21.3090  -17.6250  -23.9590 C.2    43  ASP43       0.3668
     48  OD1      -21.6160  -18.4560  -24.8530 O.co2  43  ASP43      -0.2456
     49  OD2      -22.1620  -17.0670  -23.1900 O.co2  43  ASP43      -0.2456
     50  N        -18.0950  -23.8810  -25.0790 N.3    82  PHE82      -0.1241
     51  CA       -19.4790  -23.4490  -25.2020 C.3    82  PHE82       0.1605
     52  C        -20.0040  -23.8550  -26.5620 C.2    82  PHE82       0.2264
     53  O        -19.2410  -24.0250  -27.5200 O.2    82  PHE82      -0.2867
     54  CB       -19.5840  -21.9350  -25.0940 C.3    82  PHE82       0.0534
     55  CG       -19.7010  -21.4150  -23.6790 C.ar   82  PHE82      -0.0203
     56  CD1      -20.9250  -21.3700  -23.0660 C.ar   82  PHE82      -0.0042
     57  CD2      -18.6100  -20.9620  -22.9750 C.ar   82  PHE82      -0.0042
     58  CE1      -21.0790  -20.8770  -21.7770 C.ar   82  PHE82      -0.0003
     59  CE2      -18.7450  -20.4580  -21.6660 C.ar   82  PHE82      -0.0003
     60  CZ       -20.0030  -20.4150  -21.0790 C.ar   82  PHE82      -0.0000
     61  N        -23.8450  -20.2840  -29.7880 N.3    86  TRP86      -0.1241
     62  CA       -23.8780  -19.2340  -28.7830 C.3    86  TRP86       0.1605
     63  C        -22.7110  -18.2650  -28.9180 C.2    86  TRP86       0.2264
     64  O        -22.8390  -17.0600  -28.6470 O.2    86  TRP86      -0.2867
     65  CB       -23.8000  -19.8120  -27.3600 C.3    86  TRP86       0.0550
     66  CG       -24.9010  -20.7110  -26.9840 C.ar   86  TRP86       0.0003
     67  CD1      -25.9140  -21.1860  -27.7870 C.ar   86  TRP86       0.0946
     68  CD2      -25.0800  -21.3100  -25.7170 C.ar   86  TRP86       0.0152
     69  NE1      -26.7260  -22.0290  -27.0640 N.ar   86  TRP86      -0.2442
     70  CE2      -26.2300  -22.1200  -25.7890 C.ar   86  TRP86       0.0810
     71  CE3      -24.3740  -21.2460  -24.5190 C.ar   86  TRP86       0.0012
     72  CZ2      -26.7060  -22.8520  -24.6790 C.ar   86  TRP86       0.0191
     73  CZ3      -24.8340  -21.9710  -23.4150 C.ar   86  TRP86       0.0001
     74  CH2      -25.9950  -22.7650  -23.5130 C.ar   86  TRP86       0.0015
     75  N        -16.9080  -12.4310  -15.3370 N.3   140  THR140     -0.1218
     76  CA       -18.1890  -12.7780  -15.9160 C.3   140  THR140      0.1862
     77  C        -18.0730  -13.9060  -16.9520 C.2   140  THR140      0.2287
     78  O        -19.0500  -14.3550  -17.5430 O.2   140  THR140     -0.2866
     79  CB       -18.8690  -11.5020  -16.4670 C.3   140  THR140      0.1770
     80  OG1      -18.0440  -10.9340  -17.4790 O.3   140  THR140     -0.2211
     81  CG2      -19.1120  -10.4870  -15.3140 C.3   140  THR140      0.0375
     82  N        -19.5020  -14.3060  -11.6480 N.3   167  MET167     -0.1245
     83  CA       -20.7160  -14.9490  -12.1320 C.3   167  MET167      0.1570
     84  C        -20.3720  -16.4200  -12.3800 C.2   167  MET167      0.2261
     85  O        -19.5190  -16.7630  -13.2180 O.2   167  MET167     -0.2867
     86  CB       -21.2700  -14.2940  -13.3990 C.3   167  MET167      0.0387
     87  CG       -22.7190  -14.7240  -13.6970 C.3   167  MET167      0.0595
     88  SD       -22.8580  -16.3660  -14.4370 S.3   167  MET167     -0.1393
     89  CE       -24.0550  -17.2680  -13.3940 C.3   167  MET167      0.0692
     90  N        -27.3230  -25.1990  -15.5110 N.3   176  ASN176     -0.1240
     91  CA       -27.7880  -24.8220  -16.8270 C.3   176  ASN176      0.1653
     92  C        -26.9880  -25.4650  -17.9660 C.2   176  ASN176      0.2266
     93  O        -27.1020  -25.0260  -19.1380 O.2   176  ASN176     -0.2867
     94  CB       -27.8510  -23.2770  -16.9270 C.3   176  ASN176      0.1155
     95  CG       -26.5080  -22.6070  -16.9410 C.2   176  ASN176      0.2627
     96  OD1      -25.4740  -23.2600  -17.0340 O.2   176  ASN176     -0.2716
     97  ND2      -26.5210  -21.2720  -16.8770 N.am  176  ASN176     -0.0877
     98  N        -23.2400  -25.2740  -13.7890 N.3   187  GLU187     -0.1231
     99  CA       -23.3800  -23.9880  -14.4790 C.3   187  GLU187      0.1699
    100  C        -22.2330  -23.8220  -15.4730 C.2   187  GLU187      0.2592
    101  O        -21.0880  -24.2820  -15.2400 O.2   187  GLU187     -0.2718
    102  CB       -23.4910  -22.8450  -13.4710 C.3   187  GLU187      0.0402
    103  CG       -23.6400  -21.4590  -14.0680 C.3   187  GLU187      0.1161
    104  CD       -22.3380  -20.8730  -14.5510 C.2   187  GLU187      0.3649
    105  OE1      -21.3040  -21.2420  -13.9270 O.co2 187  GLU187     -0.2457
    106  OE2      -22.3560  -20.0450  -15.5370 O.co2 187  GLU187     -0.2457
    107  N        -22.5400  -23.1580  -16.5930 N.am  188  TRP188     -0.1962
    108  CA       -21.5980  -23.0650  -17.7180 C.3   188  TRP188      0.1771
    109  C        -20.2090  -22.4660  -17.4840 C.2   188  TRP188      0.2619
    110  O        -19.2210  -23.0210  -17.9570 O.2   188  TRP188     -0.2715
    111  CB       -22.2480  -22.3840  -18.9350 C.3   188  TRP188      0.0590
    112  CG       -22.8540  -23.3630  -19.8910 C.ar  188  TRP188      0.0006
    113  CD1      -24.1730  -23.6320  -20.0770 C.ar  188  TRP188      0.0946
    114  CD2      -22.1420  -24.2230  -20.7950 C.ar  188  TRP188      0.0152
    115  NE1      -24.3290  -24.6050  -21.0340 N.ar  188  TRP188     -0.2442
    116  CE2      -23.1000  -24.9740  -21.4980 C.ar  188  TRP188      0.0810
    117  CE3      -20.7720  -24.4210  -21.0750 C.ar  188  TRP188      0.0012
    118  CZ2      -22.7430  -25.9140  -22.4480 C.ar  188  TRP188      0.0191
    119  CZ3      -20.4280  -25.3390  -22.0230 C.ar  188  TRP188      0.0001
    120  CH2      -21.4170  -26.0780  -22.7000 C.ar  188  TRP188      0.0015
    121  N        -20.1420  -21.3120  -16.8040 N.am  189  ASN189     -0.1972
    122  CA       -18.8300  -20.7130  -16.5230 C.3   189  ASN189      0.1688
    123  C        -17.8930  -21.6480  -15.7550 C.2   189  ASN189      0.2292
    124  O        -16.6930  -21.6650  -16.0300 O.2   189  ASN189     -0.2864
    125  CB       -18.9250  -19.3750  -15.8310 C.3   189  ASN189      0.1181
    126  CG       -19.5010  -18.2770  -16.7110 C.2   189  ASN189      0.2629
    127  OD1      -19.7310  -18.4400  -17.9280 O.2   189  ASN189     -0.2716
    128  ND2      -19.7420  -17.1420  -16.1010 N.am  189  ASN189     -0.0877
    129  N        -31.1790  -15.3400  -27.5020 N.3   249  THR249     -0.1203
    130  CA       -31.4200  -16.5740  -28.2120 C.3   249  THR249      0.1994
    131  C        -31.1800  -17.7430  -27.2640 C.2   249  THR249      0.2618
    132  O        -30.6530  -17.5900  -26.1370 O.2   249  THR249     -0.2717
    133  CB       -30.5070  -16.7190  -29.4380 C.3   249  THR249      0.1784
    134  OG1      -29.1390  -16.4500  -29.0630 O.3   249  THR249     -0.2211
    135  CG2      -30.9480  -15.7410  -30.5520 C.3   249  THR249      0.0376
    136  N        -31.5880  -18.9120  -27.7480 N.am  250  HIS250     -0.1961
    137  CA       -31.4060  -20.1600  -27.0130 C.3   250  HIS250      0.1787
    138  C        -31.8530  -20.1030  -25.5840 C.2   250  HIS250      0.2620
    139  O        -32.9860  -19.6810  -25.3280 O.2   250  HIS250     -0.2715
    140  CB       -29.9640  -20.5900  -27.1360 C.3   250  HIS250      0.0785
    141  CG       -29.5040  -20.5930  -28.5420 C.ar  250  HIS250      0.0821
    142  ND1      -28.5470  -19.7280  -29.0130 N.ar  250  HIS250     -0.2267
    143  CD2      -29.8980  -21.3360  -29.5970 C.ar  250  HIS250      0.1154
    144  CE1      -28.3490  -19.9540  -30.2990 C.ar  250  HIS250      0.1986
    145  NE2      -29.1590  -20.9250  -30.6790 N.ar  250  HIS250     -0.2212
    146  N        -30.9890  -20.5090  -24.6430 N.am  251  GLU251     -0.1963
    147  CA       -31.3930  -20.6320  -23.2540 C.3   251  GLU251      0.1733
    148  C        -31.2350  -19.2790  -22.4840 C.2   251  GLU251      0.2616
    149  O        -31.3710  -19.2260  -21.2620 O.2   251  GLU251     -0.2715
    150  CB       -30.6780  -21.8700  -22.6370 C.3   251  GLU251      0.0429
    151  CG       -30.9460  -23.2090  -23.4800 C.3   251  GLU251      0.1163
    152  CD       -29.9250  -24.4060  -23.2550 C.2   251  GLU251      0.3649
    153  OE1      -29.1540  -24.4340  -22.2670 O.co2 251  GLU251     -0.2457
    154  OE2      -29.8970  -25.3510  -24.0890 O.co2 251  GLU251     -0.2457
    155  N        -30.9740  -18.1790  -23.2190 N.am  252  GLU252     -0.1977
    156  CA       -31.0660  -16.8240  -22.6410 C.3   252  GLU252      0.1602
    157  C        -32.5260  -16.4140  -22.4310 C.2   252  GLU252      0.2287
    158  O        -32.8320  -15.5420  -21.5850 O.2   252  GLU252     -0.2864
    159  CB       -30.3990  -15.7840  -23.5390 C.3   252  GLU252      0.0415
    160  CG       -28.9510  -16.0660  -23.7120 C.3   252  GLU252      0.1163
    161  CD       -28.2910  -15.1980  -24.7210 C.2   252  GLU252      0.3649
    162  OE1      -28.8500  -14.9890  -25.8240 O.co2 252  GLU252     -0.2457
    163  OE2      -27.1820  -14.7400  -24.4040 O.co2 252  GLU252     -0.2457
    164  N        -27.6220  -12.5210  -16.1130 N.3   263  TRP263     -0.1227
    165  CA       -26.5920  -13.0300  -15.2750 C.3   263  TRP263      0.1737
    166  C        -25.4280  -12.0890  -14.9670 C.2   263  TRP263      0.2595
    167  O        -25.2290  -11.6810  -13.8230 O.2   263  TRP263     -0.2718
    168  CB       -26.0230  -14.2690  -15.9270 C.3   263  TRP263      0.0564
    169  CG       -26.8890  -15.4280  -16.4550 C.ar  263  TRP263      0.0003
    170  CD1      -27.3190  -16.5250  -15.7630 C.ar  263  TRP263      0.0946
    171  CD2      -27.2840  -15.6450  -17.8150 C.ar  263  TRP263      0.0152
    172  NE1      -27.9900  -17.3820  -16.5980 N.ar  263  TRP263     -0.2442
    173  CE2      -27.9810  -16.8750  -17.8590 C.ar  263  TRP263      0.0810
    174  CE3      -27.1360  -14.9140  -18.9930 C.ar  263  TRP263      0.0012
    175  CZ2      -28.5130  -17.3850  -19.0270 C.ar  263  TRP263      0.0191
    176  CZ3      -27.6520  -15.4120  -20.1400 C.ar  263  TRP263      0.0001
    177  CH2      -28.3450  -16.6450  -20.1610 C.ar  263  TRP263      0.0015
    178  N        -24.6260  -11.7520  -15.9740 N.am  264  ASP264     -0.1974
    179  CA       -23.4270  -10.9470  -15.7380 C.3   264  ASP264      0.1709
    180  C        -23.7170   -9.4850  -15.3390 C.2   264  ASP264      0.2293
    181  O        -22.9050   -8.8440  -14.6700 O.2   264  ASP264     -0.2864
    182  CB       -22.5390  -10.9620  -16.9840 C.3   264  ASP264      0.1436
    183  CG       -22.0870  -12.3480  -17.3860 C.2   264  ASP264      0.3671
    184  OD1      -22.2950  -13.3120  -16.6420 O.co2 264  ASP264     -0.2456
    185  OD2      -21.5020  -12.4820  -18.5080 O.co2 264  ASP264     -0.2456
@<TRIPOS>BOND
     1   145   144   ar
     2   145   143   ar
     3   135   133    1
     4   144   142   ar
     5    61    62    1
     6   143   141   ar
     7   133   134    1
     8   133   130    1
     9   142   141   ar
    10    63    62    1
    11    63    64    2
    12    62    65    1
    13   141   140    1
    14   130   129    1
    15   130   131    1
    16    67    69   ar
    17    67    66   ar
    18   136   131   am
    19   136   137    1
    20    53    52    2
    21    65    66    1
    22   131   132    2
    23    23    22    1
    24    23    24    1
    25   140   137    1
    26    69    70   ar
    27    25    24    1
    28   137   138    1
    29    66    68   ar
    30    22    21    1
    31    52    51    1
    32    45    44    2
    33    44    43    1
    34   162   161   ar
    35    70    68   ar
    36    70    72   ar
    37    68    71   ar
    38   138   139    2
    39   138   146   am
    40    15    14    2
    41    21    18    1
    42    51    54    1
    43    51    50    1
    44    54    55    1
    45    48    47   ar
    46    17    18    1
    47    17    11   am
    48    43    42    1
    49    43    46    1
    50   161   163   ar
    51   161   160    1
    52    72    74   ar
    53    18    19    1
    54   146   147    1
    55    71    73   ar
    56    10    11    1
    57    10     9    1
    58    10    13    1
    59    11    12    2
    60    14    13    1
    61    14    16   am
    62   154   152   ar
    63     4     3    2
    64    47    46    1
    65    47    49   ar
    66   160   159    1
    67    55    56   ar
    68    55    57   ar
    69   159   156    1
    70    74    73   ar
    71   151   152    1
    72   151   150    1
    73     3     2    1
    74   152   153   ar
    75   147   150    1
    76   147   148    1
    77    19    20    2
    78    19    26   am
    79   155   156    1
    80   155   148   am
    81    56    58   ar
    82    57    59   ar
    83   120   118   ar
    84   120   119   ar
    85   156   157    1
    86   148   149    2
    87   118   116   ar
    88   157   158    2
    89    26    27    1
    90     2     5    1
    91     2     1    1
    92   119   117   ar
    93     5     6    1
    94    58    60   ar
    95    59    60   ar
    96   116   115   ar
    97   116   114   ar
    98    41    39   ar
    99     8     6   ar
   100     6     7   ar
   101    38    39    1
   102    38    35    1
   103   117   114   ar
   104   115   113   ar
   105    27    28    1
   106    27    30    1
   107    36    35    1
   108    36    37    2
   109    34    35    1
   110    34    28   am
   111   114   112   ar
   112    39    40   ar
   113    32    31   ar
   114    28    29    2
   115   177   176   ar
   116   177   175   ar
   117   176   174   ar
   118   113   112   ar
   119    30    31    1
   120   112   111    1
   121    31    33   ar
   122    93    92    2
   123   175   173   ar
   124   174   171   ar
   125   111   108    1
   126   185   183   ar
   127    92    91    1
   128   110   109    2
   129   127   126    2
   130   173   171   ar
   131   173   172   ar
   132   171   169   ar
   133   108   109    1
   134   108   107    1
   135    78    77    2
   136   109   121   am
   137    80    79    1
   138   183   182    1
   139   183   184   ar
   140    96    95    2
   141   182   179    1
   142    77    76    1
   143    95    94    1
   144    95    97   am
   145    94    91    1
   146    91    90    1
   147   121   122    1
   148   126   128   am
   149   126   125    1
   150   172   170   ar
   151   107   100   am
   152   122   125    1
   153   122   123    1
   154    79    76    1
   155    79    81    1
   156   169   168    1
   157   169   170   ar
   158   164   165    1
   159   124   123    2
   160   178   179    1
   161   178   166   am
   162   168   165    1
   163    76    75    1
   164   179   180    1
   165   106   104   ar
   166   100   101    2
   167   100    99    1
   168   180   181    2
   169   165   166    1
   170   166   167    2
   171   104   103    1
   172   104   105   ar
   173    99    98    1
   174    99   102    1
   175    88    87    1
   176    88    89    1
   177   103   102    1
   178    87    86    1
   179    86    83    1
   180    85    84    2
   181    84    83    1
   182    83    82    1
