@<TRIPOS>MOLECULE
tmp/4i76A00.pdb
 111 105 0 0 0
SMALL
GASTEIGER

@<TRIPOS>ATOM
      1  N         19.3840   39.7130   28.1250 N.3    81  ILE81      -0.1245
      2  CA        20.4290   40.4900   27.4880 C.3    81  ILE81       0.1561
      3  C         20.1860   40.5480   25.9500 C.2    81  ILE81       0.2260
      4  O         20.3050   41.5850   25.3440 O.2    81  ILE81      -0.2867
      5  CB        21.7860   39.8820   27.7620 C.3    81  ILE81       0.0252
      6  CG1       22.1780   40.1620   29.2190 C.3    81  ILE81       0.0019
      7  CG2       22.8160   40.4350   26.7670 C.3    81  ILE81       0.0019
      8  CD1       23.2200   39.2370   29.7220 C.3    81  ILE81       0.0001
      9  N         19.7310   43.9060   23.8750 N.3    85  LEU85      -0.1245
     10  CA        20.4880   44.1280   22.6200 C.3    85  LEU85       0.1561
     11  C         19.5250   44.4120   21.4370 C.2    85  LEU85       0.2260
     12  O         19.8170   45.2280   20.5770 O.2    85  LEU85      -0.2867
     13  CB        21.2980   42.8960   22.2430 C.3    85  LEU85       0.0270
     14  CG        22.5030   42.5770   23.1760 C.3    85  LEU85       0.0019
     15  CD1       23.0900   41.2480   22.8090 C.3    85  LEU85       0.0001
     16  CD2       23.5260   43.6810   23.0780 C.3    85  LEU85       0.0001
     17  N         18.0830   47.9270   21.8700 N.3    88  SER88      -0.1217
     18  CA        19.0630   48.9620   21.5800 C.3    88  SER88       0.1889
     19  C         19.2650   49.1710   20.0920 C.2    88  SER88       0.2288
     20  O         19.4120   50.2950   19.6710 O.2    88  SER88      -0.2866
     21  CB        20.4060   48.6430   22.2390 C.3    88  SER88       0.2089
     22  OG        20.2110   48.4430   23.6220 O.3    88  SER88      -0.2183
     23  N         28.8990   40.9560   35.6540 N.3   151  PHE151     -0.1241
     24  CA        28.7760   40.5930   34.2500 C.3   151  PHE151      0.1605
     25  C         27.6190   41.3810   33.6470 C.2   151  PHE151      0.2264
     26  O         27.7990   42.0660   32.6430 O.2   151  PHE151     -0.2867
     27  CB        28.5840   39.0730   34.0540 C.3   151  PHE151      0.0534
     28  CG        28.3580   38.6460   32.5990 C.ar  151  PHE151     -0.0203
     29  CD1       27.0770   38.4330   32.1130 C.ar  151  PHE151     -0.0042
     30  CD2       29.4310   38.3990   31.7350 C.ar  151  PHE151     -0.0042
     31  CE1       26.8540   38.0490   30.7900 C.ar  151  PHE151     -0.0003
     32  CE2       29.2140   38.0120   30.4110 C.ar  151  PHE151     -0.0003
     33  CZ        27.9250   37.8420   29.9410 C.ar  151  PHE151     -0.0000
     34  N         28.0220   45.1870   33.1380 N.3   154  GLY154     -0.1210
     35  CA        28.8740   45.5910   32.0320 C.3   154  GLY154      0.1956
     36  C         28.2010   45.8920   30.6910 C.2   154  GLY154      0.2611
     37  O         28.8620   46.3410   29.7590 O.2   154  GLY154     -0.2717
     38  N         26.9010   45.6810   30.5860 N.am  155  PHE155     -0.1976
     39  CA        26.2000   45.9640   29.3330 C.3   155  PHE155      0.1639
     40  C         26.3670   47.4420   28.9920 C.2   155  PHE155      0.2290
     41  O         26.6620   47.8040   27.8570 O.2   155  PHE155     -0.2864
     42  CB        24.7100   45.6720   29.4920 C.3   155  PHE155      0.0560
     43  CG        23.9170   45.7460   28.2020 C.ar  155  PHE155     -0.0200
     44  CD1       23.5720   46.9840   27.6550 C.ar  155  PHE155     -0.0042
     45  CD2       23.5100   44.6010   27.5560 C.ar  155  PHE155     -0.0042
     46  CE1       22.8190   47.0460   26.4940 C.ar  155  PHE155     -0.0003
     47  CE2       22.7390   44.6620   26.3980 C.ar  155  PHE155     -0.0003
     48  CZ        22.3960   45.8890   25.8680 C.ar  155  PHE155     -0.0000
     49  N         30.0060   48.6890   28.0350 N.3   158  VAL158     -0.1231
     50  CA        30.3240   48.4110   26.6170 C.3   158  VAL158      0.1692
     51  C         29.6070   49.3940   25.6930 C.2   158  VAL158      0.2592
     52  O         30.2030   49.9120   24.7400 O.2   158  VAL158     -0.2718
     53  CB        30.0490   46.9380   26.2460 C.3   158  VAL158      0.0266
     54  CG1       30.0480   46.7050   24.7400 C.3   158  VAL158      0.0020
     55  CG2       31.0960   46.0780   26.9040 C.3   158  VAL158      0.0020
     56  N         28.3360   49.6730   25.9850 N.am  159  TYR159     -0.1976
     57  CA        27.5200   50.4920   25.0810 C.3   159  TYR159      0.1639
     58  C         28.1350   51.8700   24.9740 C.2   159  TYR159      0.2290
     59  O         28.3480   52.3980   23.8780 O.2   159  TYR159     -0.2864
     60  CB        26.0300   50.6300   25.5330 C.3   159  TYR159      0.0560
     61  CG        25.1920   51.4390   24.5230 C.ar  159  TYR159     -0.0198
     62  CD1       24.5470   50.8210   23.4570 C.ar  159  TYR159     -0.0009
     63  CD2       25.0460   52.8160   24.6320 C.ar  159  TYR159     -0.0009
     64  CE1       23.7820   51.5410   22.5390 C.ar  159  TYR159      0.0417
     65  CE2       24.2830   53.5440   23.7120 C.ar  159  TYR159      0.0417
     66  CZ        23.6690   52.9180   22.6430 C.ar  159  TYR159      0.1957
     67  OH        22.9100   53.6600   21.7150 O.3   159  TYR159     -0.2866
     68  N         29.2210   51.7960   21.2900 N.3   163  TYR163     -0.1241
     69  CA        28.0690   51.8990   20.4030 C.3   163  TYR163      0.1605
     70  C         27.2330   53.1550   20.4760 C.2   163  TYR163      0.2264
     71  O         26.3510   53.3720   19.5910 O.2   163  TYR163     -0.2867
     72  CB        27.1630   50.6910   20.5760 C.3   163  TYR163      0.0534
     73  CG        27.8300   49.4180   20.1910 C.ar  163  TYR163     -0.0201
     74  CD1       28.0630   49.0960   18.8380 C.ar  163  TYR163     -0.0009
     75  CD2       28.2380   48.5060   21.1630 C.ar  163  TYR163     -0.0009
     76  CE1       28.7430   47.9250   18.5010 C.ar  163  TYR163      0.0417
     77  CE2       28.8960   47.3420   20.8110 C.ar  163  TYR163      0.0417
     78  CZ        29.1170   47.0330   19.4780 C.ar  163  TYR163      0.1957
     79  OH        29.7410   45.8530   19.1700 O.3   163  TYR163     -0.2866
     80  N         26.2790   48.9690   15.8220 N.3   170  LEU170     -0.1245
     81  CA        25.6140   48.0100   16.7360 C.3   170  LEU170      0.1561
     82  C         24.7650   47.0410   15.9500 C.2   170  LEU170      0.2260
     83  O         24.7230   45.8370   16.2560 O.2   170  LEU170     -0.2867
     84  CB        24.7590   48.7540   17.7250 C.3   170  LEU170      0.0270
     85  CG        23.9520   47.8580   18.6590 C.3   170  LEU170      0.0019
     86  CD1       24.8390   47.0440   19.6250 C.3   170  LEU170      0.0001
     87  CD2       23.0080   48.7610   19.4010 C.3   170  LEU170      0.0001
     88  N         27.2730   39.7460   19.0860 N.3   176  LEU176     -0.1245
     89  CA        27.2830   40.0420   20.5130 C.3   176  LEU176      0.1561
     90  C         26.4280   39.0580   21.2270 C.2   176  LEU176      0.2260
     91  O         26.8040   38.5770   22.2480 O.2   176  LEU176     -0.2867
     92  CB        26.7950   41.4640   20.7580 C.3   176  LEU176      0.0270
     93  CG        27.7310   42.5520   20.2050 C.3   176  LEU176      0.0019
     94  CD1       27.0470   43.8960   20.2420 C.3   176  LEU176      0.0001
     95  CD2       29.0870   42.6050   20.9440 C.3   176  LEU176      0.0001
     96  N         28.2420   35.7640   21.4380 N.3   179  GLU179     -0.1231
     97  CA        29.3000   35.8420   22.4770 C.3   179  GLU179      0.1699
     98  C         28.7380   35.8420   23.8950 C.2   179  GLU179      0.2592
     99  O         29.2660   35.2120   24.7710 O.2   179  GLU179     -0.2718
    100  CB        30.1120   37.1220   22.2930 C.3   179  GLU179      0.0402
    101  CG        30.9420   37.0790   21.0230 C.3   179  GLU179      0.1161
    102  CD        31.8000   38.3010   20.8530 C.2   179  GLU179      0.3649
    103  OE1       31.3870   39.3680   21.3310 O.co2 179  GLU179     -0.2457
    104  OE2       32.8650   38.1830   20.2110 O.co2 179  GLU179     -0.2457
    105  N         27.6260   36.5210   24.0990 N.am  180  VAL180     -0.1980
    106  CA        26.9580   36.4840   25.4060 C.3   180  VAL180      0.1595
    107  C         26.5240   35.0970   25.7840 C.2   180  VAL180      0.2287
    108  O         26.7040   34.6240   26.9310 O.2   180  VAL180     -0.2864
    109  CB        25.7980   37.4920   25.4930 C.3   180  VAL180      0.0276
    110  CG1       25.0410   37.3510   26.8230 C.3   180  VAL180      0.0022
    111  CG2       26.3200   38.8850   25.3370 C.3   180  VAL180      0.0022
@<TRIPOS>BOND
     1    80    81    1
     2    82    83    2
     3    82    81    1
     4    81    84    1
     5    84    85    1
     6    76    74   ar
     7    76    78   ar
     8    85    87    1
     9    85    86    1
    10    74    73   ar
    11    88    89    1
    12    79    78    1
    13    78    77   ar
    14    71    70    2
    15    20    19    2
    16    19    18    1
    17    73    72    1
    18    73    75   ar
    19    93    94    1
    20    93    92    1
    21    93    95    1
    22   104   102   ar
    23    69    70    1
    24    69    72    1
    25    69    68    1
    26    89    92    1
    27    89    90    1
    28    12    11    2
    29    77    75   ar
    30   102   101    1
    31   102   103   ar
    32   101   100    1
    33    90    91    2
    34    11    10    1
    35    96    97    1
    36    18    17    1
    37    18    21    1
    38    67    66    1
    39    21    22    1
    40    13    10    1
    41    13    14    1
    42   100    97    1
    43    97    98    1
    44    64    66   ar
    45    64    62   ar
    46    10     9    1
    47    66    65   ar
    48    15    14    1
    49    16    14    1
    50    62    61   ar
    51    65    63   ar
    52    59    58    2
    53    98   105   am
    54    98    99    2
    55   105   106    1
    56    61    63   ar
    57    61    60    1
    58    52    51    2
    59    54    53    1
    60    58    57    1
    61    57    60    1
    62    57    56    1
    63   111   109    1
    64     4     3    2
    65   106   109    1
    66   106   107    1
    67   109   110    1
    68    51    56   am
    69    51    50    1
    70   107   108    2
    71    48    47   ar
    72    48    46   ar
    73     3     2    1
    74    53    50    1
    75    53    55    1
    76    47    45   ar
    77    46    44   ar
    78    50    49    1
    79     7     5    1
    80     2     5    1
    81     2     1    1
    82    45    43   ar
    83    44    43   ar
    84     5     6    1
    85    41    40    2
    86    43    42    1
    87    40    39    1
    88     6     8    1
    89    39    42    1
    90    39    38    1
    91    37    36    2
    92    33    32   ar
    93    33    31   ar
    94    32    30   ar
    95    38    36   am
    96    36    35    1
    97    31    29   ar
    98    30    28   ar
    99    35    34    1
   100    29    28   ar
   101    28    27    1
   102    26    25    2
   103    25    24    1
   104    27    24    1
   105    24    23    1
