@<TRIPOS>MOLECULE
tmp/4i7bA00.pdb
 188 183 0 0 0
SMALL
GASTEIGER

@<TRIPOS>ATOM
      1  N          7.1500    4.0670    3.9900 N.3    66  THR66      -0.1218
      2  CA         6.1090    4.1620    5.0080 C.3    66  THR66       0.1862
      3  C          6.7130    4.4920    6.3640 C.2    66  THR66       0.2287
      4  O          7.8450    4.1090    6.6640 O.2    66  THR66      -0.2866
      5  CB         5.2990    2.8520    5.1020 C.3    66  THR66       0.1770
      6  OG1        4.6740    2.5840    3.8400 O.3    66  THR66      -0.2211
      7  CG2        4.2230    2.9510    6.1740 C.3    66  THR66       0.0375
      8  N          5.8540    4.2880   10.4930 N.3    68  LEU68      -0.1231
      9  CA         5.0310    3.8110   11.6080 C.3    68  LEU68       0.1693
     10  C          5.3580    4.5800   12.8860 C.2    68  LEU68       0.2592
     11  O          6.5210    4.8740   13.1650 O.2    68  LEU68      -0.2718
     12  CB         5.2300    2.3080   11.8480 C.3    68  LEU68       0.0284
     13  CG         4.1130    1.3690   11.3790 C.3    68  LEU68       0.0019
     14  CD1        4.4930   -0.0830   11.6360 C.3    68  LEU68       0.0001
     15  CD2        2.7960    1.6970   12.0680 C.3    68  LEU68       0.0001
     16  N          4.3180    4.8890   13.6550 N.am   69  GLN69      -0.1966
     17  CA         4.4650    5.5550   14.9440 C.3    69  GLN69       0.1733
     18  C          4.6270    4.4980   16.0290 C.2    69  GLN69       0.2616
     19  O          3.8450    3.5510   16.1010 O.2    69  GLN69      -0.2715
     20  CB         3.2350    6.4160   15.2450 C.3    69  GLN69       0.0408
     21  CG         2.8950    7.4340   14.1630 C.3    69  GLN69       0.0908
     22  CD         3.9810    8.4780   13.9680 C.2    69  GLN69       0.2608
     23  OE1        4.5320    9.0070   14.9360 O.2    69  GLN69      -0.2717
     24  NE2        4.2920    8.7830   12.7110 N.am   69  GLN69      -0.0878
     25  N          5.6470    4.6610   16.8640 N.am   70  GLY70      -0.1955
     26  CA         5.8640    3.7660   17.9930 C.3    70  GLY70       0.1869
     27  C          7.3310    3.5020   18.2610 C.2    70  GLY70       0.2309
     28  O          8.1310    3.3950   17.3340 O.2    70  GLY70      -0.2863
     29  N          8.1130    0.7470   19.6730 N.3    72  ASP72      -0.1225
     30  CA         8.1390   -0.7020   19.4970 C.3    72  ASP72       0.1805
     31  C          7.1930   -1.0970   18.3600 C.2    72  ASP72       0.2598
     32  O          5.9820   -0.9250   18.4720 O.2    72  ASP72      -0.2718
     33  CB         7.7170   -1.3830   20.8100 C.3    72  ASP72       0.1424
     34  CG         8.5030   -2.6460   21.1030 C.2    72  ASP72       0.3668
     35  OD1        9.2950   -3.0770   20.2410 O.co2  72  ASP72      -0.2456
     36  OD2        8.3350   -3.2090   22.2050 O.co2  72  ASP72      -0.2456
     37  N          7.7510   -1.6160   17.2680 N.am   73  ILE73      -0.1966
     38  CA         6.9750   -1.9530   16.0680 C.3    73  ILE73       0.1727
     39  C          7.4120   -3.2790   15.4330 C.2    73  ILE73       0.2616
     40  O          8.3750   -3.9040   15.8760 O.2    73  ILE73      -0.2715
     41  CB         7.1120   -0.8530   14.9900 C.3    73  ILE73       0.0290
     42  CG1        8.5530   -0.7890   14.4680 C.3    73  ILE73       0.0022
     43  CG2        6.6850    0.4960   15.5440 C.3    73  ILE73       0.0023
     44  CD1        8.7020   -0.0380   13.1660 C.3    73  ILE73       0.0001
     45  N          6.7020   -3.6880   14.3830 N.am   74  VAL74      -0.1963
     46  CA         7.0950   -4.8400   13.5770 C.3    74  VAL74       0.1727
     47  C          7.3260   -4.4220   12.1250 C.2    74  VAL74       0.2616
     48  O          6.4430   -3.8620   11.4780 O.2    74  VAL74      -0.2715
     49  CB         6.0490   -5.9700   13.6140 C.3    74  VAL74       0.0290
     50  CG1        6.6240   -7.2370   12.9890 C.3    74  VAL74       0.0023
     51  CG2        5.6050   -6.2410   15.0430 C.3    74  VAL74       0.0023
     52  N          8.5270   -4.7180   11.6360 N.am   75  PHE75      -0.1960
     53  CA         8.9680   -4.4000   10.2820 C.3    75  PHE75       0.1771
     54  C          8.8980   -5.7050    9.4810 C.2    75  PHE75       0.2619
     55  O          9.7680   -6.5670    9.6110 O.2    75  PHE75      -0.2715
     56  CB        10.3890   -3.8100   10.3770 C.3    75  PHE75       0.0574
     57  CG        11.1230   -3.6560    9.0630 C.ar   75  PHE75      -0.0200
     58  CD1       10.4630   -3.3990    7.8690 C.ar   75  PHE75      -0.0042
     59  CD2       12.5130   -3.7130    9.0490 C.ar   75  PHE75      -0.0042
     60  CE1       11.1790   -3.2430    6.6890 C.ar   75  PHE75      -0.0003
     61  CE2       13.2270   -3.5560    7.8750 C.ar   75  PHE75      -0.0003
     62  CZ        12.5600   -3.3210    6.6940 C.ar   75  PHE75      -0.0000
     63  N          7.8360   -5.8550    8.6880 N.am   76  LEU76      -0.1977
     64  CA         7.5880   -7.0820    7.9180 C.3    76  LEU76       0.1596
     65  C          8.1190   -6.9790    6.4830 C.2    76  LEU76       0.2287
     66  O          7.4840   -6.3780    5.6120 O.2    76  LEU76      -0.2864
     67  CB         6.0890   -7.4160    7.8930 C.3    76  LEU76       0.0297
     68  CG         5.6860   -8.7560    7.2540 C.3    76  LEU76       0.0022
     69  CD1        6.2010   -9.9300    8.0700 C.3    76  LEU76       0.0001
     70  CD2        4.1790   -8.8540    7.1000 C.3    76  LEU76       0.0001
     71  N          8.5680   -8.4360    3.0290 N.3    78  THR78      -0.1203
     72  CA         7.8130   -9.3940    2.2210 C.3    78  THR78       0.1994
     73  C          8.6100   -9.8940    1.0180 C.2    78  THR78       0.2617
     74  O          9.4450   -9.1720    0.4730 O.2    78  THR78      -0.2717
     75  CB         6.5060   -8.7670    1.7020 C.3    78  THR78       0.1784
     76  OG1        6.8040   -7.7850    0.7020 O.3    78  THR78      -0.2211
     77  CG2        5.7310   -8.1150    2.8430 C.3    78  THR78       0.0376
     78  N          8.3200  -11.1280    0.6050 N.am   79  ASP79      -0.1973
     79  CA         8.9560  -11.7730   -0.5530 C.3    79  ASP79       0.1709
     80  C         10.4790  -11.7630   -0.4520 C.2    79  ASP79       0.2293
     81  O         11.1740  -11.2230   -1.3170 O.2    79  ASP79      -0.2864
     82  CB         8.4850  -11.1300   -1.8650 C.3    79  ASP79       0.1436
     83  CG         6.9990  -11.3370   -2.1210 C.2    79  ASP79       0.3671
     84  OD1        6.3110  -11.9360   -1.2660 O.co2  79  ASP79      -0.2456
     85  OD2        6.5150  -10.9020   -3.1870 O.co2  79  ASP79      -0.2456
     86  N         13.0740  -13.5180   -3.3580 N.3    82  LEU82      -0.1231
     87  CA        13.2300  -12.9870   -4.7130 C.3    82  LEU82       0.1678
     88  C         14.7190  -12.8290   -5.0010 C.2    82  LEU82       0.2434
     89  O         15.3940  -12.0600   -4.3160 O.2    82  LEU82      -0.2733
     90  CB        12.5340  -11.6300   -4.8570 C.3    82  LEU82       0.0284
     91  CG        11.0100  -11.6290   -4.9830 C.3    82  LEU82       0.0019
     92  CD1       10.4530  -10.2500   -4.6700 C.3    82  LEU82       0.0001
     93  CD2       10.5880  -12.0750   -6.3750 C.3    82  LEU82       0.0001
     94  N         15.2400  -13.5620   -6.0060 N.am   83  PRO83      -0.2718
     95  CA        16.6880  -13.5850   -6.2190 C.3    83  PRO83       0.1535
     96  C         17.2570  -12.2340   -6.6450 C.2    83  PRO83       0.2599
     97  O         16.5200  -11.3670   -7.1240 O.2    83  PRO83      -0.2715
     98  CB        16.8680  -14.6250   -7.3310 C.3    83  PRO83       0.0310
     99  CG        15.5750  -14.6270   -8.0670 C.3    83  PRO83       0.0237
    100  CD        14.5170  -14.3220   -7.0450 C.3    83  PRO83       0.0939
    101  N         18.5630  -12.0710   -6.4580 N.am   84  GLY84      -0.1941
    102  CA        19.2510  -10.8260   -6.7830 C.3    84  GLY84       0.2014
    103  C         19.3060   -9.8930   -5.5930 C.2    84  GLY84       0.2639
    104  O         18.7850  -10.2080   -4.5220 O.2    84  GLY84      -0.2714
    105  N         19.9490   -8.7440   -5.7820 N.am   85  ALA85      -0.1963
    106  CA        20.0320   -7.7240   -4.7400 C.3    85  ALA85       0.1728
    107  C         18.6410   -7.1560   -4.4690 C.2    85  ALA85       0.2616
    108  O         17.8890   -6.8630   -5.4010 O.2    85  ALA85      -0.2715
    109  CB        20.9920   -6.6180   -5.1540 C.3    85  ALA85       0.0334
    110  N         18.2970   -7.0230   -3.1910 N.am   86  VAL86      -0.1963
    111  CA        16.9760   -6.5480   -2.7880 C.3    86  VAL86       0.1727
    112  C         17.0880   -5.6930   -1.5210 C.2    86  VAL86       0.2616
    113  O         17.8160   -6.0480   -0.5940 O.2    86  VAL86      -0.2715
    114  CB        16.0060   -7.7270   -2.5350 C.3    86  VAL86       0.0290
    115  CG1       14.6020   -7.2150   -2.2590 C.3    86  VAL86       0.0023
    116  CG2       15.9880   -8.6910   -3.7170 C.3    86  VAL86       0.0023
    117  N         16.3730   -4.5680   -1.5020 N.am   87  ASP87      -0.1957
    118  CA        16.3440   -3.6500   -0.3580 C.3    87  ASP87       0.1840
    119  C         14.9270   -3.5750    0.2130 C.2    87  ASP87       0.2622
    120  O         13.9470   -3.6670   -0.5260 O.2    87  ASP87      -0.2715
    121  CB        16.7780   -2.2350   -0.7780 C.3    87  ASP87       0.1450
    122  CG        18.1200   -2.2090   -1.5040 C.2    87  ASP87       0.3671
    123  OD1       19.0800   -2.8410   -1.0120 O.co2  87  ASP87      -0.2456
    124  OD2       18.2160   -1.5430   -2.5620 O.co2  87  ASP87      -0.2456
    125  N         14.8290   -3.4140    1.5300 N.am   88  TRP88      -0.1960
    126  CA        13.5700   -3.0550    2.1850 C.3    88  TRP88       0.1771
    127  C         13.8250   -1.8300    2.9980 C.2    88  TRP88       0.2620
    128  O         14.8540   -1.7460    3.6660 O.2    88  TRP88      -0.2715
    129  CB        13.0820   -4.1710    3.1000 C.3    88  TRP88       0.0590
    130  CG        12.5180   -5.3700    2.3830 C.ar   88  TRP88       0.0006
    131  CD1       11.1820   -5.6500    2.1170 C.ar   88  TRP88       0.0946
    132  CD2       13.2630   -6.5030    1.8280 C.ar   88  TRP88       0.0152
    133  NE1       11.0540   -6.8410    1.4490 N.ar   88  TRP88      -0.2442
    134  CE2       12.2650   -7.4050    1.2450 C.ar   88  TRP88       0.0810
    135  CE3       14.6060   -6.8500    1.7570 C.ar   88  TRP88       0.0012
    136  CZ2       12.6240   -8.5920    0.6220 C.ar   88  TRP88       0.0191
    137  CZ3       14.9560   -8.0490    1.1250 C.ar   88  TRP88       0.0001
    138  CH2       13.9860   -8.8970    0.5710 C.ar   88  TRP88       0.0015
    139  N         12.9090   -0.8650    2.9560 N.am   89  VAL89      -0.1963
    140  CA        13.0780    0.3790    3.7180 C.3    89  VAL89       0.1727
    141  C         11.7770    0.8440    4.3600 C.2    89  VAL89       0.2616
    142  O         10.6950    0.6970    3.7880 O.2    89  VAL89      -0.2715
    143  CB        13.6030    1.5380    2.8420 C.3    89  VAL89       0.0290
    144  CG1       14.2680    2.5900    3.7160 C.3    89  VAL89       0.0023
    145  CG2       14.5790    1.0320    1.7920 C.3    89  VAL89       0.0023
    146  N         11.9010    1.4060    5.5570 N.am   90  MET90      -0.1977
    147  CA        10.7890    2.0720    6.2260 C.3    90  MET90       0.1605
    148  C         11.3460    3.0220    7.2650 C.2    90  MET90       0.2287
    149  O         12.5370    2.9820    7.5720 O.2    90  MET90      -0.2864
    150  CB         9.8430    1.0640    6.8930 C.3    90  MET90       0.0413
    151  CG        10.4020    0.3580    8.1250 C.3    90  MET90       0.0598
    152  SD         9.1430   -0.5320    9.0650 S.3    90  MET90      -0.1393
    153  CE         8.0310    0.7970    9.5240 C.3    90  MET90       0.0692
    154  N         16.9990   -2.3370   18.9690 N.3   131  ARG131     -0.1245
    155  CA        17.0190   -3.7850   19.1210 C.3   131  ARG131      0.1563
    156  C         16.2190   -4.4250   17.9950 C.2   131  ARG131      0.2260
    157  O         15.0460   -4.0970   17.8000 O.2   131  ARG131     -0.2867
    158  CB        16.4290   -4.1800   20.4770 C.3   131  ARG131      0.0307
    159  CG        16.2380   -5.6780   20.6780 C.3   131  ARG131      0.0489
    160  CD        15.6540   -5.9860   22.0470 C.3   131  ARG131      0.2205
    161  NE        14.3220   -5.4060   22.2240 N.pl3 131  ARG131     -0.0865
    162  CZ        13.5740   -5.5440   23.3180 C.cat 131  ARG131      0.5346
    163  NH1       14.0140   -6.2510   24.3560 N.pl3 131  ARG131      0.1354
    164  NH2       12.3750   -4.9740   23.3750 N.pl3 131  ARG131      0.1354
    165  N         14.8360   -8.1210   16.4630 N.3   133  GLU133     -0.1245
    166  CA        14.5170   -9.5030   16.8420 C.3   133  GLU133      0.1567
    167  C         13.9590  -10.2940   15.6690 C.2   133  GLU133      0.2260
    168  O         13.1390   -9.7800   14.9100 O.2   133  GLU133     -0.2867
    169  CB        13.4720   -9.5240   17.9620 C.3   133  GLU133      0.0388
    170  CG        13.9640  -10.0330   19.3100 C.3   133  GLU133      0.1160
    171  CD        12.8500  -10.1160   20.3500 C.2   133  GLU133      0.3649
    172  OE1       11.6790  -10.3640   19.9800 O.co2 133  GLU133     -0.2457
    173  OE2       13.1450   -9.9390   21.5510 O.co2 133  GLU133     -0.2457
    174  N         11.0170   -7.5440   14.7090 N.3   183  ASN183     -0.1240
    175  CA        10.5740   -6.7110   15.8250 C.3   183  ASN183      0.1653
    176  C         11.6190   -5.6440   16.1430 C.2   183  ASN183      0.2266
    177  O         12.6510   -5.9360   16.7430 O.2   183  ASN183     -0.2867
    178  CB        10.3150   -7.5630   17.0760 C.3   183  ASN183      0.1155
    179  CG         9.0090   -8.3410   17.0120 C.2   183  ASN183      0.2627
    180  OD1        8.0580   -7.9520   16.3270 O.2   183  ASN183     -0.2716
    181  ND2        8.9540   -9.4460   17.7480 N.am  183  ASN183     -0.0877
    182  N         12.7450   -2.3340   18.1410 N.3   185  THR185     -0.1218
    183  CA        12.4880   -1.5330   19.3380 C.3   185  THR185      0.1862
    184  C         13.5560   -0.4650   19.5030 C.2   185  THR185      0.2287
    185  O         14.7300   -0.7750   19.6940 O.2   185  THR185     -0.2866
    186  CB        12.4920   -2.3930   20.6120 C.3   185  THR185      0.1770
    187  OG1       11.6030   -3.5030   20.4490 O.3   185  THR185     -0.2211
    188  CG2       12.0640   -1.5640   21.8070 C.3   185  THR185      0.0375
@<TRIPOS>BOND
     1    99    98    1
     2    99   100    1
     3    98    95    1
     4    97    96    2
     5   100    94    1
     6   102   101    1
     7   102   103    1
     8    96   101   am
     9    96    95    1
    10    93    91    1
    11    95    94    1
    12    94    88   am
    13   105   103   am
    14   105   106    1
    15   103   104    2
    16   108   107    2
    17   109   106    1
    18    88    87    1
    19    88    89    2
    20    91    90    1
    21    91    92    1
    22    90    87    1
    23   106   107    1
    24    87    86    1
    25   107   110   am
    26   116   114    1
    27   110   111    1
    28    85    83   ar
    29   111   114    1
    30   111   112    1
    31   124   122   ar
    32   114   115    1
    33    83    82    1
    34    83    84   ar
    35    82    79    1
    36   112   117   am
    37   112   113    2
    38   122   123   ar
    39   122   121    1
    40   117   118    1
    41    81    80    2
    42   121   118    1
    43    79    80    1
    44    79    78    1
    45   120   119    2
    46   118   119    1
    47   119   125   am
    48    74    73    2
    49   138   136   ar
    50   138   137   ar
    51    78    73   am
    52   136   134   ar
    53    76    75    1
    54    73    72    1
    55   137   135   ar
    56   134   133   ar
    57   134   132   ar
    58   133   131   ar
    59   125   126    1
    60    75    72    1
    61    75    77    1
    62   135   132   ar
    63   145   143    1
    64   132   130   ar
    65   131   130   ar
    66   126   127    1
    67   126   129    1
    68    72    71    1
    69   130   129    1
    70   143   144    1
    71   143   140    1
    72   139   127   am
    73   139   140    1
    74   127   128    2
    75   140   141    1
    76   142   141    2
    77     6     5    1
    78     1     2    1
    79   141   146   am
    80     2     5    1
    81     2     3    1
    82     5     7    1
    83   146   147    1
    84    66    65    2
    85   147   150    1
    86   147   148    1
    87     3     4    2
    88    65    64    1
    89    60    62   ar
    90    60    58   ar
    91    62    61   ar
    92   150   151    1
    93    70    68    1
    94    68    67    1
    95    68    69    1
    96   148   149    2
    97    58    57   ar
    98    61    59   ar
    99    67    64    1
   100    64    63    1
   101   151   152    1
   102    63    54   am
   103    59    57   ar
   104    57    56    1
   105   152   153    1
   106    54    55    2
   107    54    53    1
   108    53    56    1
   109    53    52    1
   110     8     9    1
   111    13    14    1
   112    13    12    1
   113    13    15    1
   114    48    47    2
   115     9    12    1
   116     9    10    1
   117    52    47   am
   118    47    46    1
   119    24    22   am
   120    10    11    2
   121    10    16   am
   122    50    49    1
   123    44    42    1
   124    46    49    1
   125    46    45    1
   126    49    51    1
   127    16    17    1
   128    22    21    1
   129    22    23    2
   130    21    20    1
   131    45    39   am
   132    42    41    1
   133   174   175    1
   134   168   167    2
   135    17    20    1
   136    17    18    1
   137    41    43    1
   138    41    38    1
   139    39    40    2
   140    39    38    1
   141   167   166    1
   142   175   176    1
   143   175   178    1
   144    18    19    2
   145    18    25   am
   146    38    37    1
   147   176   177    2
   148   180   179    2
   149   165   166    1
   150   166   169    1
   151    25    26    1
   152   179   178    1
   153   179   181   am
   154    37    31   am
   155    28    27    2
   156   157   156    2
   157   169   170    1
   158    26    27    1
   159   156   155    1
   160   182   183    1
   161    31    32    2
   162    31    30    1
   163   154   155    1
   164   155   158    1
   165   170   171    1
   166   183   184    1
   167   183   186    1
   168    30    29    1
   169    30    33    1
   170   184   185    2
   171   172   171   ar
   172    35    34   ar
   173   171   173   ar
   174   187   186    1
   175   158   159    1
   176   186   188    1
   177   159   160    1
   178    33    34    1
   179    34    36   ar
   180   160   161    1
   181   161   162    2
   182   162   164    1
   183   162   163    1
