@<TRIPOS>MOLECULE
tmp/4i7fA00.pdb
 220 218 0 0 0
SMALL
GASTEIGER

@<TRIPOS>ATOM
      1  N         11.2180   22.3240   21.1240 N.3    95  PRO95      -0.2116
      2  CA        10.4140   22.1810   19.9030 C.3    95  PRO95       0.1372
      3  C          8.9380   21.9890   20.1940 C.2    95  PRO95       0.2244
      4  O          8.5630   21.4220   21.2240 O.2    95  PRO95      -0.2868
      5  CB        11.0270   20.9780   19.1850 C.3    95  PRO95       0.0268
      6  CG        11.9330   20.3270   20.2060 C.3    95  PRO95       0.0207
      7  CD        12.3170   21.3490   21.2100 C.3    95  PRO95       0.0892
      8  N          7.0030   19.5450   13.7840 N.3   100  LEU100     -0.1231
      9  CA         7.7260   18.3380   13.3660 C.3   100  LEU100      0.1693
     10  C          7.3360   17.8420   11.9620 C.2   100  LEU100      0.2591
     11  O          6.1540   17.6070   11.6760 O.2   100  LEU100     -0.2718
     12  CB         7.5090   17.2050   14.3840 C.3   100  LEU100      0.0284
     13  CG         7.9120   17.4860   15.8430 C.3   100  LEU100      0.0019
     14  CD1        7.5750   16.2800   16.7050 C.3   100  LEU100      0.0001
     15  CD2        9.4170   17.8050   15.9310 C.3   100  LEU100      0.0001
     16  N          8.3400   17.6880   11.0970 N.am  101  LYS101     -0.1980
     17  CA         8.1900   16.9520    9.8370 C.3   101  LYS101      0.1596
     18  C          7.6780   15.5540   10.1470 C.2   101  LYS101      0.2287
     19  O          8.1790   14.8960   11.0540 O.2   101  LYS101     -0.2864
     20  CB         9.5330   16.8270    9.1180 C.3   101  LYS101      0.0298
     21  CG         9.9000   17.9740    8.1830 C.3   101  LYS101      0.0038
     22  CD         9.9190   19.3150    8.8970 C.3   101  LYS101      0.0206
     23  CE        10.9220   20.2750    8.2640 C.3   101  LYS101      0.1093
     24  NZ        12.3340   19.8670    8.5480 N.3   101  LYS101     -0.1314
     25  N          7.3320   11.6710   10.0250 N.3   103  LYS103     -0.1231
     26  CA         8.2980   10.6190    9.7450 C.3   103  LYS103      0.1693
     27  C          7.6050    9.2670    9.6630 C.2   103  LYS103      0.2592
     28  O          6.5770    9.0440   10.3000 O.2   103  LYS103     -0.2718
     29  CB         9.3800   10.5810   10.8300 C.3   103  LYS103      0.0285
     30  CG        10.3600   11.7460   10.7890 C.3   103  LYS103      0.0035
     31  CD        11.0750   11.7970    9.4540 C.3   103  LYS103      0.0206
     32  CE        11.7500   13.1390    9.2210 C.3   103  LYS103      0.1093
     33  NZ        12.1720   13.2910    7.7910 N.3   103  LYS103     -0.1314
     34  N          8.1750    8.3640    8.8750 N.am  104  LYS104     -0.1966
     35  CA         7.6500    7.0090    8.7710 C.3   104  LYS104      0.1728
     36  C          7.9470    6.2170   10.0530 C.2   104  LYS104      0.2617
     37  O          7.1200    5.4250   10.5060 O.2   104  LYS104     -0.2715
     38  CB         8.2620    6.3120    7.5500 C.3   104  LYS104      0.0311
     39  CG         7.4770    5.1100    7.0400 C.3   104  LYS104      0.0038
     40  CD         7.9570    4.6720    5.6490 C.3   104  LYS104      0.0206
     41  CE         7.7780    5.7780    4.6040 C.3   104  LYS104      0.1093
     42  NZ         6.3490    5.9650    4.1980 N.3   104  LYS104     -0.1314
     43  N          9.1210    6.4450   10.6420 N.am  105  SER105     -0.1936
     44  CA         9.4790    5.8050   11.9070 C.3   105  SER105      0.2055
     45  C         10.3370    6.6640   12.8310 C.2   105  SER105      0.2643
     46  O         11.2340    7.3890   12.3890 O.2   105  SER105     -0.2714
     47  CB        10.2030    4.4840   11.6480 C.3   105  SER105      0.2130
     48  OG         9.2780    3.4560   11.3450 O.3   105  SER105     -0.2179
     49  N         10.0420    6.5570   14.1230 N.am  106  VAL106     -0.1963
     50  CA        10.8350    7.1610   15.1890 C.3   106  VAL106      0.1727
     51  C         11.0280    6.1230   16.3030 C.2   106  VAL106      0.2616
     52  O         10.0610    5.5130   16.7680 O.2   106  VAL106     -0.2715
     53  CB        10.1070    8.4060   15.7790 C.3   106  VAL106      0.0290
     54  CG1       10.8610    8.9400   16.9830 C.3   106  VAL106      0.0023
     55  CG2        9.9820    9.4890   14.7170 C.3   106  VAL106      0.0023
     56  N         12.2700    5.9070   16.7250 N.am  107  THR107     -0.1951
     57  CA        12.5040    5.1140   17.9280 C.3   107  THR107      0.1897
     58  C         13.2080    5.9470   18.9830 C.2   107  THR107      0.2313
     59  O         13.9240    6.9080   18.6620 O.2   107  THR107     -0.2863
     60  CB        13.3390    3.8090   17.6390 C.3   107  THR107      0.1794
     61  OG1       14.4920    4.1150   16.8500 O.3   107  THR107     -0.2208
     62  CG2       12.4910    2.7790   16.9040 C.3   107  THR107      0.0378
     63  N         16.9070   12.0640   11.2340 N.3   179  VAL179     -0.1245
     64  CA        16.5910   13.0930   12.2140 C.3   179  VAL179      0.1561
     65  C         16.8760   12.6010   13.6340 C.2   179  VAL179      0.2260
     66  O         16.4210   11.5200   14.0410 O.2   179  VAL179     -0.2867
     67  CB        15.1050   13.5070   12.1100 C.3   179  VAL179      0.0252
     68  CG1       14.8030   14.6510   13.0640 C.3   179  VAL179      0.0019
     69  CG2       14.7860   13.8980   10.6890 C.3   179  VAL179      0.0019
     70  N         16.7710   14.0490   17.5860 N.3   181  TYR181     -0.1241
     71  CA        16.5230   15.0790   18.5750 C.3   181  TYR181      0.1605
     72  C         17.1840   14.6950   19.8990 C.2   181  TYR181      0.2264
     73  O         16.8760   13.6480   20.4610 O.2   181  TYR181     -0.2867
     74  CB        15.0130   15.2860   18.7720 C.3   181  TYR181      0.0534
     75  CG        14.7090   16.3130   19.8380 C.ar  181  TYR181     -0.0201
     76  CD1       15.2260   17.5990   19.7490 C.ar  181  TYR181     -0.0009
     77  CD2       13.9690   15.9780   20.9730 C.ar  181  TYR181     -0.0009
     78  CE1       15.0280   18.5160   20.7670 C.ar  181  TYR181      0.0417
     79  CE2       13.7610   16.8920   21.9920 C.ar  181  TYR181      0.0417
     80  CZ        14.2960   18.1520   21.8860 C.ar  181  TYR181      0.1957
     81  OH        14.1360   19.0550   22.9140 O.3   181  TYR181     -0.2866
     82  N         15.7860   10.9330   20.2000 N.3   188  TYR188     -0.1227
     83  CA        14.6840   10.5420   19.3270 C.3   188  TYR188      0.1736
     84  C         15.1810   10.5280   17.8970 C.2   188  TYR188      0.2595
     85  O         15.7640   11.5030   17.4170 O.2   188  TYR188     -0.2718
     86  CB        13.4880   11.4940   19.4930 C.3   188  TYR188      0.0548
     87  CG        12.7490   11.2760   20.7980 C.ar  188  TYR188     -0.0200
     88  CD1       13.1390   11.9370   21.9520 C.ar  188  TYR188     -0.0009
     89  CD2       11.6820   10.3820   20.8830 C.ar  188  TYR188     -0.0009
     90  CE1       12.4980   11.7230   23.1580 C.ar  188  TYR188      0.0417
     91  CE2       11.0300   10.1610   22.0940 C.ar  188  TYR188      0.0417
     92  CZ        11.4520   10.8400   23.2250 C.ar  188  TYR188      0.1957
     93  OH        10.8380   10.6280   24.4370 O.3   188  TYR188     -0.2866
     94  N         14.9740    9.3990   17.2330 N.am  189  VAL189     -0.1966
     95  CA        15.5980    9.1430   15.9420 C.3   189  VAL189      0.1727
     96  C         14.5270    8.7390   14.9310 C.2   189  VAL189      0.2616
     97  O         13.7430    7.8130   15.1670 O.2   189  VAL189     -0.2715
     98  CB        16.6500    8.0230   16.0730 C.3   189  VAL189      0.0290
     99  CG1       17.4010    7.8470   14.7670 C.3   189  VAL189      0.0023
    100  CG2       17.6060    8.3530   17.2090 C.3   189  VAL189      0.0023
    101  N         14.4830    9.4500   13.8140 N.am  190  GLY190     -0.1955
    102  CA        13.3690    9.2830   12.9040 C.3   190  GLY190      0.1869
    103  C         13.8040    9.2810   11.4540 C.2   190  GLY190      0.2309
    104  O         14.7360    9.9920   11.0610 O.2   190  GLY190     -0.2863
    105  N         10.7750   -0.3360    7.6110 N.3   195  ILE195     -0.1245
    106  CA        11.1560   -0.8850    8.9110 C.3   195  ILE195      0.1561
    107  C         12.5810   -1.4260    8.9050 C.2   195  ILE195      0.2260
    108  O         13.4440   -0.9110    9.6210 O.2   195  ILE195     -0.2867
    109  CB        10.2080   -2.0160    9.3640 C.3   195  ILE195      0.0252
    110  CG1        8.8070   -1.4580    9.6170 C.3   195  ILE195      0.0019
    111  CG2       10.7310   -2.6460   10.6520 C.3   195  ILE195      0.0019
    112  CD1        8.7010   -0.6330   10.8860 C.3   195  ILE195      0.0001
    113  N         15.3480    0.8660    8.5680 N.3   198  HIS198     -0.1226
    114  CA        15.3040    1.7310    9.7350 C.3   198  HIS198      0.1752
    115  C         15.8380    0.9680   10.9320 C.2   198  HIS198      0.2595
    116  O         16.6290    1.4930   11.7120 O.2   198  HIS198     -0.2718
    117  CB        13.8670    2.1890   10.0080 C.3   198  HIS198      0.0759
    118  CG        13.7190    2.9960   11.2620 C.ar  198  HIS198      0.0818
    119  ND1       14.1560    4.2990   11.3660 N.ar  198  HIS198     -0.2268
    120  CD2       13.2090    2.6730   12.4750 C.ar  198  HIS198      0.1154
    121  CE1       13.9270    4.7420   12.5890 C.ar  198  HIS198      0.1986
    122  NE2       13.3530    3.7750   13.2820 N.ar  198  HIS198     -0.2212
    123  N         15.4020   -0.2800   11.0640 N.am  199  ARG199     -0.1980
    124  CA        15.8930   -1.1640   12.1160 C.3   199  ARG199      0.1597
    125  C         17.4040   -1.2680   12.0130 C.2   199  ARG199      0.2287
    126  O         18.1180   -1.3040   13.0170 O.2   199  ARG199     -0.2864
    127  CB        15.2730   -2.5540   11.9650 C.3   199  ARG199      0.0334
    128  CG        13.7680   -2.5930   12.1800 C.3   199  ARG199      0.0492
    129  CD        13.3730   -1.7580   13.3840 C.3   199  ARG199      0.2205
    130  NE        12.1930   -2.2810   14.0690 N.pl3 199  ARG199     -0.0865
    131  CZ        11.8050   -1.8860   15.2790 C.cat 199  ARG199      0.5346
    132  NH1       12.5030   -0.9630   15.9320 N.pl3 199  ARG199      0.1354
    133  NH2       10.7250   -2.4160   15.8400 N.pl3 199  ARG199      0.1354
    134  N         11.2200    1.5910   23.6310 N.3   223  LYS223     -0.1231
    135  CA         9.8300    1.8480   23.9840 C.3   223  LYS223      0.1693
    136  C          8.9580    2.0390   22.7540 C.2   223  LYS223      0.2592
    137  O          9.4600    2.1890   21.6400 O.2   223  LYS223     -0.2718
    138  CB         9.7210    3.0760   24.8960 C.3   223  LYS223      0.0285
    139  CG         8.9640    2.8080   26.2050 C.3   223  LYS223      0.0035
    140  CD         7.6380    2.0560   25.9730 C.3   223  LYS223      0.0206
    141  CE         7.1700    1.3080   27.2240 C.3   223  LYS223      0.1093
    142  NZ         6.9840    2.1990   28.4090 N.3   223  LYS223     -0.1314
    143  N          7.6470    2.0240   22.9720 N.am  224  GLU224     -0.1966
    144  CA         6.6750    2.0830   21.8850 C.3   224  GLU224      0.1718
    145  C          5.7090    3.2620   21.9960 C.2   224  GLU224      0.2458
    146  O          5.4820    3.8030   23.0810 O.2   224  GLU224     -0.2730
    147  CB         5.8720    0.7820   21.8370 C.3   224  GLU224      0.0428
    148  CG         6.7240   -0.4510   21.6600 C.3   224  GLU224      0.1163
    149  CD         5.9050   -1.6820   21.3420 C.2   224  GLU224      0.3649
    150  OE1        5.1730   -2.1680   22.2340 O.co2 224  GLU224     -0.2457
    151  OE2        5.9940   -2.1610   20.1920 O.co2 224  GLU224     -0.2457
    152  N          5.1220    3.6600   20.8580 N.am  225  PRO225     -0.2727
    153  CA         4.1270    4.7270   20.6820 C.3   225  PRO225      0.1402
    154  C          2.8280    4.4890   21.4470 C.2   225  PRO225      0.2269
    155  O          2.4440    3.3480   21.7030 O.2   225  PRO225     -0.2865
    156  CB         3.8840    4.7480   19.1750 C.3   225  PRO225      0.0296
    157  CG         5.1080    4.1450   18.5900 C.3   225  PRO225      0.0237
    158  CD         5.5440    3.0990   19.5640 C.3   225  PRO225      0.0939
    159  N          4.6380    8.1610   22.0660 N.3   227  PHE227     -0.1241
    160  CA         5.7020    8.6570   22.9190 C.3   227  PHE227      0.1605
    161  C          5.1850    9.7930   23.7740 C.2   227  PHE227      0.2264
    162  O          4.5180   10.7010   23.2830 O.2   227  PHE227     -0.2867
    163  CB         6.8850    9.1420   22.0860 C.3   227  PHE227      0.0534
    164  CG         7.5520    8.0540   21.3080 C.ar  227  PHE227     -0.0203
    165  CD1        7.7710    6.8170   21.8830 C.ar  227  PHE227     -0.0042
    166  CD2        7.9160    8.2510   19.9850 C.ar  227  PHE227     -0.0042
    167  CE1        8.3350    5.7890   21.1520 C.ar  227  PHE227     -0.0003
    168  CE2        8.4810    7.2280   19.2490 C.ar  227  PHE227     -0.0003
    169  CZ         8.6890    5.9910   19.8350 C.ar  227  PHE227     -0.0000
    170  N          6.1370   12.9050   25.9360 N.3   229  TRP229     -0.1241
    171  CA         7.2780   13.8010   25.9830 C.3   229  TRP229      0.1605
    172  C          6.8370   15.2340   26.1970 C.2   229  TRP229      0.2264
    173  O          6.0580   15.7680   25.4180 O.2   229  TRP229     -0.2867
    174  CB         8.0820   13.6750   24.6820 C.3   229  TRP229      0.0550
    175  CG         9.0910   14.7560   24.4750 C.ar  229  TRP229      0.0003
    176  CD1       10.3430   14.8300   25.0070 C.ar  229  TRP229      0.0946
    177  CD2        8.9290   15.9250   23.6610 C.ar  229  TRP229      0.0152
    178  NE1       10.9780   15.9760   24.5710 N.ar  229  TRP229     -0.2442
    179  CE2       10.1290   16.6640   23.7450 C.ar  229  TRP229      0.0810
    180  CE3        7.8830   16.4180   22.8690 C.ar  229  TRP229      0.0012
    181  CZ2       10.3120   17.8720   23.0690 C.ar  229  TRP229      0.0191
    182  CZ3        8.0680   17.6170   22.1980 C.ar  229  TRP229      0.0001
    183  CH2        9.2760   18.3300   22.3040 C.ar  229  TRP229      0.0015
    184  N          2.6260   11.7630   21.4610 N.3   234  LEU234     -0.1231
    185  CA         2.9990   11.8700   20.0550 C.3   234  LEU234      0.1693
    186  C          2.8070   10.5690   19.2950 C.2   234  LEU234      0.2592
    187  O          3.6950    9.7250   19.2780 O.2   234  LEU234     -0.2718
    188  CB         4.4610   12.3010   19.9430 C.3   234  LEU234      0.0284
    189  CG         4.7670   13.6640   20.5640 C.3   234  LEU234      0.0019
    190  CD1        6.2580   13.8320   20.7400 C.3   234  LEU234      0.0001
    191  CD2        4.2000   14.7560   19.6810 C.3   234  LEU234      0.0001
    192  N          1.6520   10.4090   18.6610 N.am  235  HIS235     -0.1962
    193  CA         1.3850    9.2330   17.8400 C.3   235  HIS235      0.1772
    194  C          2.0050    9.3700   16.4540 C.2   235  HIS235      0.2462
    195  O          2.4530   10.4470   16.0640 O.2   235  HIS235     -0.2730
    196  CB        -0.1150    9.0270   17.7100 C.3   235  HIS235      0.0785
    197  CG        -0.8320    9.0320   19.0200 C.ar  235  HIS235      0.0821
    198  ND1       -1.3810    7.8970   19.5720 N.ar  235  HIS235     -0.2267
    199  CD2       -1.0840   10.0360   19.8910 C.ar  235  HIS235      0.1154
    200  CE1       -1.9420    8.2010   20.7280 C.ar  235  HIS235      0.1986
    201  NE2       -1.7750    9.4930   20.9440 N.ar  235  HIS235     -0.2212
    202  N          2.0450    8.2700   15.6950 N.am  236  PRO236     -0.2727
    203  CA         2.7540    8.2360   14.4110 C.3   236  PRO236      0.1402
    204  C          2.3420    9.2740   13.3610 C.2   236  PRO236      0.2269
    205  O          3.1980    9.7880   12.6520 O.2   236  PRO236     -0.2865
    206  CB         2.5510    6.7990   13.9310 C.3   236  PRO236      0.0296
    207  CG         2.3930    6.0190   15.1970 C.3   236  PRO236      0.0237
    208  CD         1.6230    6.9230   16.1210 C.3   236  PRO236      0.0939
    209  N          0.9970   17.0110   11.9210 N.3   318  TYR318     -0.1241
    210  CA         2.4070   17.3700   11.8200 C.3   318  TYR318      0.1605
    211  C          2.6310   18.1840   10.5550 C.2   318  TYR318      0.2264
    212  O          1.7310   18.3300    9.7450 O.2   318  TYR318     -0.2867
    213  CB         3.2950   16.1110   11.7890 C.3   318  TYR318      0.0534
    214  CG         3.2430   15.2950   13.0600 C.ar  318  TYR318     -0.0201
    215  CD1        3.8540   15.7460   14.2210 C.ar  318  TYR318     -0.0009
    216  CD2        2.5550   14.0980   13.1080 C.ar  318  TYR318     -0.0009
    217  CE1        3.7780   15.0360   15.3880 C.ar  318  TYR318      0.0417
    218  CE2        2.4720   13.3840   14.2730 C.ar  318  TYR318      0.0417
    219  CZ         3.0870   13.8590   15.4150 C.ar  318  TYR318      0.1957
    220  OH         2.9960   13.1470   16.5900 O.3   318  TYR318     -0.2866
@<TRIPOS>BOND
     1    42    41    1
     2    41    40    1
     3    40    39    1
     4    39    38    1
     5    38    35    1
     6   105   106    1
     7    33    32    1
     8    21    22    1
     9    21    20    1
    10    23    24    1
    11    23    22    1
    12   113   114    1
    13    35    34    1
    14    35    36    1
    15    34    27   am
    16   107   106    1
    17   107   108    2
    18   106   109    1
    19    20    17    1
    20    32    31    1
    21   109   110    1
    22   109   111    1
    23    31    30    1
    24   110   112    1
    25    27    26    1
    26    27    28    2
    27   114   117    1
    28   114   115    1
    29   212   211    2
    30    26    25    1
    31    26    29    1
    32    17    18    1
    33    17    16    1
    34   117   118    1
    35    36    37    2
    36    36    43   am
    37    18    19    2
    38   211   210    1
    39    43    44    1
    40    69    67    1
    41    30    29    1
    42   115   123   am
    43   115   116    2
    44   104   103    2
    45   123   124    1
    46    16    10   am
    47    63    64    1
    48   118   119   ar
    49   118   120   ar
    50    48    47    1
    51   119   121   ar
    52   103   102    1
    53    47    44    1
    54    11    10    2
    55   213   210    1
    56   213   214    1
    57   210   209    1
    58    44    45    1
    59    10     9    1
    60   127   124    1
    61   127   128    1
    62   125   124    1
    63   125   126    2
    64    67    64    1
    65    67    68    1
    66   128   129    1
    67    64    65    1
    68    46    45    2
    69   120   122   ar
    70   121   122   ar
    71   205   204    2
    72    45    49   am
    73   102   101    1
    74   214   216   ar
    75   214   215   ar
    76   216   218   ar
    77   204   203    1
    78     9     8    1
    79     9    12    1
    80   129   130    1
    81    65    66    2
    82   101    96   am
    83   206   203    1
    84   206   207    1
    85   130   131    2
    86    49    50    1
    87   215   217   ar
    88   218   219   ar
    89    12    13    1
    90   203   202    1
    91    55    53    1
    92    99    98    1
    93    96    97    2
    94    96    95    1
    95    50    53    1
    96    50    51    1
    97   207   208    1
    98   131   133    1
    99   131   132    1
   100   217   219   ar
   101   219   220    1
   102   202   208    1
   103   202   194   am
   104    53    54    1
   105    13    15    1
   106    13    14    1
   107    95    98    1
   108    95    94    1
   109   195   194    2
   110    98   100    1
   111    51    56   am
   112    51    52    2
   113   194   193    1
   114    56    57    1
   115    61    60    1
   116    62    60    1
   117    94    84   am
   118    85    84    2
   119    70    71    1
   120    60    57    1
   121   196   193    1
   122   196   197    1
   123   193   192    1
   124    84    83    1
   125    57    58    1
   126    71    74    1
   127    71    72    1
   128   157   156    1
   129   157   158    1
   130   192   186   am
   131    59    58    2
   132    74    75    1
   133   197   198   ar
   134   197   199   ar
   135   156   153    1
   136     5     2    1
   137     5     6    1
   138   168   169   ar
   139   168   166   ar
   140   187   186    2
   141   186   185    1
   142    83    86    1
   143    83    82    1
   144    86    87    1
   145   158   152    1
   146   198   200   ar
   147   191   189    1
   148    76    75   ar
   149    76    78   ar
   150   169   167   ar
   151    75    77   ar
   152   199   201   ar
   153    72    73    2
   154     2     3    1
   155     2     1    1
   156   188   185    1
   157   188   189    1
   158   166   164   ar
   159   185   184    1
   160   151   149   ar
   161     3     4    2
   162     6     7    1
   163   189   190    1
   164   153   152    1
   165   153   154    1
   166   200   201   ar
   167    78    80   ar
   168    87    89   ar
   169    87    88   ar
   170   152   145   am
   171    89    91   ar
   172    77    79   ar
   173     1     7    1
   174   167   165   ar
   175   164   165   ar
   176   164   163    1
   177   149   148    1
   178   149   150   ar
   179   154   155    2
   180   137   136    2
   181   148   147    1
   182   147   144    1
   183   144   145    1
   184   144   143    1
   185    80    79   ar
   186    80    81    1
   187    88    90   ar
   188   145   146    2
   189   159   160    1
   190   163   160    1
   191    91    92   ar
   192   182   183   ar
   193   182   180   ar
   194   183   181   ar
   195   136   143   am
   196   136   135    1
   197   180   177   ar
   198   160   161    1
   199   181   179   ar
   200    90    92   ar
   201    92    93    1
   202   162   161    2
   203   134   135    1
   204   177   179   ar
   205   177   175   ar
   206   179   178   ar
   207   135   138    1
   208   175   174    1
   209   175   176   ar
   210   178   176   ar
   211   174   171    1
   212   138   139    1
   213   173   172    2
   214   170   171    1
   215   140   139    1
   216   140   141    1
   217   171   172    1
   218   141   142    1
