@<TRIPOS>MOLECULE
tmp/4i7mA00.pdb
 125 117 0 0 0
SMALL
GASTEIGER

@<TRIPOS>ATOM
      1  N         -3.8070    8.0720    5.5740 N.3    89  ILE89      -0.1245
      2  CA        -3.2460    7.3090    4.4270 C.3    89  ILE89       0.1561
      3  C         -4.1730    6.1700    4.0180 C.2    89  ILE89       0.2260
      4  O         -4.4850    5.9830    2.8450 O.2    89  ILE89      -0.2867
      5  CB        -1.8240    6.7230    4.8330 C.3    89  ILE89       0.0252
      6  CG1       -0.8140    7.8710    4.8450 C.3    89  ILE89       0.0019
      7  CG2       -1.4040    5.6310    3.8370 C.3    89  ILE89       0.0019
      8  CD1        0.5270    7.4800    5.5410 C.3    89  ILE89       0.0001
      9  N         -3.1110    7.1940   -1.8830 N.3    95  LEU95      -0.1245
     10  CA        -1.9760    6.8860   -0.9940 C.3    95  LEU95       0.1561
     11  C         -1.9690    5.4350   -0.5530 C.2    95  LEU95       0.2260
     12  O         -0.8470    4.8660   -0.5010 O.2    95  LEU95      -0.2867
     13  CB        -1.9850    7.7710    0.2600 C.3    95  LEU95       0.0270
     14  CG        -1.9300    9.2910    0.0130 C.3    95  LEU95       0.0019
     15  CD1       -1.9520    9.9900    1.3720 C.3    95  LEU95       0.0001
     16  CD2       -0.7160    9.6700   -0.8300 C.3    95  LEU95       0.0001
     17  N          0.0960    2.8550   -2.6480 N.3    98  VAL98      -0.1231
     18  CA         1.5460    3.0990   -2.6330 C.3    98  VAL98       0.1692
     19  C          2.0760    2.7060   -1.2580 C.2    98  VAL98       0.2592
     20  O          3.1350    2.0220   -1.1550 O.2    98  VAL98      -0.2718
     21  CB         1.9130    4.5960   -2.9260 C.3    98  VAL98       0.0266
     22  CG1        3.4750    4.8120   -2.9340 C.3    98  VAL98       0.0020
     23  CG2        1.3710    4.9600   -4.3100 C.3    98  VAL98       0.0020
     24  N          1.3920    3.0790   -0.2050 N.am   99  TYR99      -0.1976
     25  CA         1.8130    2.7040    1.1450 C.3    99  TYR99       0.1639
     26  C          1.8940    1.2030    1.2490 C.2    99  TYR99       0.2290
     27  O          2.8960    0.6880    1.8140 O.2    99  TYR99      -0.2864
     28  CB         0.7280    3.2190    2.1660 C.3    99  TYR99       0.0560
     29  CG         1.0170    2.9010    3.5890 C.ar   99  TYR99      -0.0198
     30  CD1        1.8710    3.7030    4.3300 C.ar   99  TYR99      -0.0009
     31  CD2        0.4600    1.7790    4.1530 C.ar   99  TYR99      -0.0009
     32  CE1        2.1310    3.4360    5.6660 C.ar   99  TYR99       0.0417
     33  CE2        0.6890    1.4950    5.5160 C.ar   99  TYR99       0.0417
     34  CZ         1.5500    2.3300    6.2310 C.ar   99  TYR99       0.1957
     35  OH         1.8090    2.0820    7.5640 O.3    99  TYR99      -0.2866
     36  N          5.0730   -0.4420    0.0180 N.3   102  LEU102     -0.1245
     37  CA         6.3440   -0.1250    0.6530 C.3   102  LEU102      0.1561
     38  C          6.6570   -1.1510    1.7270 C.2   102  LEU102      0.2260
     39  O          5.7910   -1.7270    2.3740 O.2   102  LEU102     -0.2867
     40  CB         6.2410    1.2780    1.3290 C.3   102  LEU102      0.0270
     41  CG         6.0950    2.4330    0.3330 C.3   102  LEU102      0.0019
     42  CD1        5.8100    3.7290    1.1550 C.3   102  LEU102      0.0001
     43  CD2        7.3260    2.5450   -0.4910 C.3   102  LEU102      0.0001
     44  N          6.4860    7.3410    5.2140 N.3   110  ALA110     -0.1245
     45  CA         5.2290    7.8200    4.6500 C.3   110  ALA110      0.1562
     46  C          4.3330    8.3910    5.7410 C.2   110  ALA110      0.2260
     47  O          3.7650    9.4880    5.5620 O.2   110  ALA110     -0.2867
     48  CB         4.5080    6.6290    3.8960 C.3   110  ALA110      0.0290
     49  N          5.8660   11.7530    6.7220 N.3   113  HIS113     -0.1226
     50  CA         5.5490   12.7600    5.7170 C.3   113  HIS113      0.1752
     51  C          4.1170   13.3030    5.8640 C.2   113  HIS113      0.2595
     52  O          3.9150   14.5280    5.8150 O.2   113  HIS113     -0.2718
     53  CB         5.8170   12.1290    4.3600 C.3   113  HIS113      0.0759
     54  CG         5.8860   13.0930    3.2080 C.ar  113  HIS113      0.0818
     55  ND1        5.6310   12.6430    1.9200 N.ar  113  HIS113     -0.2268
     56  CD2        6.2130   14.3990    3.1070 C.ar  113  HIS113      0.1154
     57  CE1        5.7860   13.6490    1.0730 C.ar  113  HIS113      0.1986
     58  NE2        6.1170   14.7270    1.7550 N.ar  113  HIS113     -0.2212
     59  N          3.1470   12.3980    6.0200 N.am  114  VAL114     -0.1980
     60  CA         1.7410   12.8650    6.1960 C.3   114  VAL114      0.1595
     61  C          1.5780   13.6150    7.5060 C.2   114  VAL114      0.2287
     62  O          0.8380   14.6260    7.5300 O.2   114  VAL114     -0.2864
     63  CB         0.8130   11.6590    6.0920 C.3   114  VAL114      0.0276
     64  CG1       -0.5990   12.0250    6.4810 C.3   114  VAL114      0.0022
     65  CG2        0.8040   11.0800    4.6100 C.3   114  VAL114      0.0022
     66  N          0.7070   15.5610    0.5980 N.3   122  VAL122     -0.1245
     67  CA         1.4790   14.4180    0.1280 C.3   122  VAL122      0.1561
     68  C          0.8820   13.8410   -1.1570 C.2   122  VAL122      0.2260
     69  O          1.5960   13.4350   -2.0560 O.2   122  VAL122     -0.2867
     70  CB         1.5630   13.2980    1.2140 C.3   122  VAL122      0.0252
     71  CG1        2.2260   12.0430    0.6390 C.3   122  VAL122      0.0019
     72  CG2        2.3500   13.7410    2.5100 C.3   122  VAL122      0.0019
     73  N          2.0470   14.8440   -4.7120 N.3   125  PHE125     -0.1241
     74  CA         3.3480   14.4940   -5.2540 C.3   125  PHE125      0.1605
     75  C          3.1720   13.3680   -6.2520 C.2   125  PHE125      0.2264
     76  O          3.5720   12.2290   -6.0200 O.2   125  PHE125     -0.2867
     77  CB         4.3260   14.0430   -4.1740 C.3   125  PHE125      0.0534
     78  CG         4.9100   15.1330   -3.3590 C.ar  125  PHE125     -0.0203
     79  CD1        4.4180   15.3920   -2.1170 C.ar  125  PHE125     -0.0042
     80  CD2        6.0030   15.8630   -3.8290 C.ar  125  PHE125     -0.0042
     81  CE1        4.9520   16.4060   -1.3210 C.ar  125  PHE125     -0.0003
     82  CE2        6.5320   16.8700   -3.0550 C.ar  125  PHE125     -0.0003
     83  CZ         6.0130   17.1230   -1.7700 C.ar  125  PHE125     -0.0000
     84  N          6.4210   11.4610   -7.4030 N.3   128  VAL128     -0.1231
     85  CA         7.0970   10.7080   -6.3000 C.3   128  VAL128      0.1692
     86  C          6.2410    9.4830   -5.9160 C.2   128  VAL128      0.2591
     87  O          6.7680    8.3710   -5.7080 O.2   128  VAL128     -0.2718
     88  CB         7.2620   11.5990   -5.0810 C.3   128  VAL128      0.0266
     89  CG1        7.7850   10.7990   -3.8370 C.3   128  VAL128      0.0020
     90  CG2        8.2300   12.7110   -5.4290 C.3   128  VAL128      0.0020
     91  N          4.9370    9.6280   -5.9420 N.am  129  LEU129     -0.1980
     92  CA         4.0990    8.4540   -5.7130 C.3   129  LEU129      0.1596
     93  C          4.3530    7.3320   -6.7030 C.2   129  LEU129      0.2287
     94  O          4.5030    6.1620   -6.3100 O.2   129  LEU129     -0.2864
     95  CB         2.5890    8.8390   -5.7270 C.3   129  LEU129      0.0297
     96  CG         2.1810    9.6010   -4.4310 C.3   129  LEU129      0.0022
     97  CD1        0.8930   10.2730   -4.6530 C.3   129  LEU129      0.0001
     98  CD2        2.0960    8.6950   -3.1930 C.3   129  LEU129      0.0001
     99  N          7.8610    5.8240   -6.0770 N.3   132  LEU132     -0.1245
    100  CA         7.9010    4.9140   -4.9120 C.3   132  LEU132      0.1561
    101  C          7.2460    3.5760   -5.2640 C.2   132  LEU132      0.2260
    102  O          7.7920    2.5030   -4.9030 O.2   132  LEU132     -0.2867
    103  CB         7.2330    5.5530   -3.6960 C.3   132  LEU132      0.0270
    104  CG         8.0010    6.7010   -3.0950 C.3   132  LEU132      0.0019
    105  CD1        7.1440    7.3210   -1.9790 C.3   132  LEU132      0.0001
    106  CD2        9.4260    6.2700   -2.5000 C.3   132  LEU132      0.0001
    107  N         11.7440   14.5470   -3.9780 N.3   144  LEU144     -0.1245
    108  CA        11.2840   15.1100   -2.6960 C.3   144  LEU144      0.1561
    109  C         12.1770   16.2820   -2.2630 C.2   144  LEU144      0.2260
    110  O         11.6910   17.2380   -1.6060 O.2   144  LEU144     -0.2867
    111  CB        11.3520   14.0330   -1.6020 C.3   144  LEU144      0.0270
    112  CG        10.2220   13.0210   -1.6740 C.3   144  LEU144      0.0019
    113  CD1       10.5440   11.8400   -0.6810 C.3   144  LEU144      0.0001
    114  CD2        8.8690   13.6520   -1.3200 C.3   144  LEU144      0.0001
    115  N         13.4530    7.3590    2.7430 N.3   164  PHE164     -0.1241
    116  CA        12.8470    6.8820    1.4670 C.3   164  PHE164      0.1605
    117  C         13.9150    6.3570    0.4930 C.2   164  PHE164      0.2264
    118  O         13.6640    5.4190   -0.2840 O.2   164  PHE164     -0.2867
    119  CB        12.0610    8.0270    0.7640 C.3   164  PHE164      0.0534
    120  CG        10.6090    8.1880    1.3150 C.ar  164  PHE164     -0.0203
    121  CD1        9.6820    7.0840    1.2360 C.ar  164  PHE164     -0.0042
    122  CD2       10.1690    9.4090    1.8790 C.ar  164  PHE164     -0.0042
    123  CE1        8.3770    7.2440    1.7650 C.ar  164  PHE164     -0.0003
    124  CE2        8.8340    9.5430    2.3520 C.ar  164  PHE164     -0.0003
    125  CZ         7.9880    8.4490    2.2980 C.ar  164  PHE164     -0.0000
@<TRIPOS>BOND
     1    84    85    1
     2    93    94    2
     3    93    92    1
     4    85    86    1
     5    85    88    1
     6    75    76    2
     7    75    74    1
     8    99   100    1
     9    91    86   am
    10    91    92    1
    11    86    87    2
    12    95    92    1
    13    95    96    1
    14    90    88    1
    15   101   100    1
    16   101   102    2
    17    74    73    1
    18    74    77    1
    19    88    89    1
    20   100   103    1
    21    97    96    1
    22    96    98    1
    23    23    21    1
    24    77    78    1
    25   107   108    1
    26    80    78   ar
    27    80    82   ar
    28   103   104    1
    29    78    79   ar
    30   104   106    1
    31   104   105    1
    32    82    83   ar
    33    22    21    1
    34    21    18    1
    35   108   109    1
    36   108   111    1
    37    17    18    1
    38    18    19    1
    39   109   110    2
    40    79    81   ar
    41    69    68    2
    42     9    10    1
    43    83    81   ar
    44   112   111    1
    45   112   114    1
    46   112   113    1
    47    19    20    2
    48    19    24   am
    49    68    67    1
    50    10    11    1
    51    10    13    1
    52    16    14    1
    53    11    12    2
    54    43    41    1
    55   118   117    2
    56    24    25    1
    57    14    13    1
    58    14    15    1
    59    36    37    1
    60    67    66    1
    61    67    70    1
    62    41    42    1
    63    41    40    1
    64   117   116    1
    65    71    70    1
    66    37    40    1
    67    37    38    1
    68   119   120    1
    69   119   116    1
    70    57    58   ar
    71    57    55   ar
    72    25    26    1
    73    25    28    1
    74    70    72    1
    75   121   120   ar
    76   121   123   ar
    77    26    27    2
    78   120   122   ar
    79   116   115    1
    80    38    39    2
    81    58    56   ar
    82   123   125   ar
    83   122   124   ar
    84    55    54   ar
    85    28    29    1
    86   125   124   ar
    87     4     3    2
    88    56    54   ar
    89    54    53    1
    90    29    31   ar
    91    29    30   ar
    92     7     5    1
    93    48    45    1
    94     3     2    1
    95    31    33   ar
    96    30    32   ar
    97    53    50    1
    98     2     5    1
    99     2     1    1
   100    65    63    1
   101    45    44    1
   102    45    46    1
   103     5     6    1
   104     6     8    1
   105    33    34   ar
   106    47    46    2
   107    32    34   ar
   108    50    51    1
   109    50    49    1
   110    52    51    2
   111    51    59   am
   112    59    60    1
   113    63    60    1
   114    63    64    1
   115    60    61    1
   116    34    35    1
   117    61    62    2
