@<TRIPOS>MOLECULE
tmp/4i7nA00.pdb
 125 117 0 0 0
SMALL
GASTEIGER

@<TRIPOS>ATOM
      1  N         -3.7400    8.7310    5.6090 N.3    89  ILE89      -0.1245
      2  CA        -3.1810    7.9600    4.4930 C.3    89  ILE89       0.1561
      3  C         -4.1210    6.8150    4.0990 C.2    89  ILE89       0.2260
      4  O         -4.4510    6.6540    2.9160 O.2    89  ILE89      -0.2867
      5  CB        -1.7860    7.3550    4.8690 C.3    89  ILE89       0.0252
      6  CG1       -0.7560    8.4960    4.9280 C.3    89  ILE89       0.0019
      7  CG2       -1.3310    6.2700    3.8240 C.3    89  ILE89       0.0019
      8  CD1        0.5680    8.0550    5.6760 C.3    89  ILE89       0.0001
      9  N         -3.0280    7.9220   -1.7740 N.3    95  LEU95      -0.1245
     10  CA        -1.9080    7.6270   -0.8810 C.3    95  LEU95       0.1561
     11  C         -1.8650    6.1580   -0.4510 C.2    95  LEU95       0.2260
     12  O         -0.7520    5.6210   -0.3210 O.2    95  LEU95      -0.2867
     13  CB        -1.9610    8.4890    0.3690 C.3    95  LEU95       0.0270
     14  CG        -1.7870   10.0020    0.1310 C.3    95  LEU95       0.0019
     15  CD1       -1.8670   10.6470    1.4960 C.3    95  LEU95       0.0001
     16  CD2       -0.5510   10.3320   -0.7000 C.3    95  LEU95       0.0001
     17  N          0.1600    3.5870   -2.5920 N.3    98  VAL98      -0.1231
     18  CA         1.6120    3.8170   -2.5580 C.3    98  VAL98       0.1692
     19  C          2.1510    3.3830   -1.2030 C.2    98  VAL98       0.2592
     20  O          3.1990    2.7180   -1.1140 O.2    98  VAL98      -0.2718
     21  CB         1.9540    5.2800   -2.7990 C.3    98  VAL98       0.0266
     22  CG1        3.4940    5.4780   -2.7410 C.3    98  VAL98       0.0020
     23  CG2        1.4590    5.6620   -4.2160 C.3    98  VAL98       0.0020
     24  N          1.4270    3.7260   -0.1490 N.am   99  TYR99      -0.1976
     25  CA         1.8550    3.3300    1.1980 C.3    99  TYR99       0.1639
     26  C          1.9470    1.8230    1.3050 C.2    99  TYR99       0.2290
     27  O          2.9570    1.2920    1.8490 O.2    99  TYR99      -0.2864
     28  CB         0.8140    3.8570    2.2230 C.3    99  TYR99       0.0560
     29  CG         1.1270    3.5060    3.6600 C.ar   99  TYR99      -0.0198
     30  CD1        1.9320    4.3320    4.4230 C.ar   99  TYR99      -0.0009
     31  CD2        0.5640    2.3800    4.2400 C.ar   99  TYR99      -0.0009
     32  CE1        2.2020    4.0400    5.7660 C.ar   99  TYR99       0.0417
     33  CE2        0.8430    2.0770    5.5850 C.ar   99  TYR99       0.0417
     34  CZ         1.6680    2.9110    6.3030 C.ar   99  TYR99       0.1957
     35  OH         1.9580    2.6100    7.6240 O.3    99  TYR99      -0.2866
     36  N          5.1110    0.1870    0.0890 N.3   102  LEU102     -0.1245
     37  CA         6.3890    0.5390    0.7400 C.3   102  LEU102      0.1561
     38  C          6.7500   -0.4830    1.7990 C.2   102  LEU102      0.2260
     39  O          5.8860   -1.1540    2.3670 O.2   102  LEU102     -0.2867
     40  CB         6.2770    1.9190    1.4070 C.3   102  LEU102      0.0270
     41  CG         6.1900    3.0750    0.4030 C.3   102  LEU102      0.0019
     42  CD1        5.9340    4.3620    1.2200 C.3   102  LEU102      0.0001
     43  CD2        7.4290    3.1700   -0.4680 C.3   102  LEU102      0.0001
     44  N          6.6250    7.9250    5.2620 N.3   110  ALA110     -0.1245
     45  CA         5.3590    8.4250    4.6440 C.3   110  ALA110      0.1562
     46  C          4.4830    8.9990    5.7380 C.2   110  ALA110      0.2260
     47  O          3.8900   10.0900    5.5530 O.2   110  ALA110     -0.2867
     48  CB         4.6440    7.2320    3.8690 C.3   110  ALA110      0.0290
     49  N          5.9490   12.3450    6.7400 N.3   113  HIS113     -0.1226
     50  CA         5.6770   13.3940    5.7440 C.3   113  HIS113      0.1752
     51  C          4.2480   13.9290    5.8590 C.2   113  HIS113      0.2595
     52  O          4.0310   15.1470    5.8900 O.2   113  HIS113     -0.2718
     53  CB         5.9230   12.8230    4.3780 C.3   113  HIS113      0.0759
     54  CG         5.9980   13.8520    3.2920 C.ar  113  HIS113      0.0818
     55  ND1        5.9120   13.4890    1.9680 N.ar  113  HIS113     -0.2268
     56  CD2        6.0890   15.2130    3.3110 C.ar  113  HIS113      0.1154
     57  CE1        6.0000   14.5710    1.2130 C.ar  113  HIS113      0.1986
     58  NE2        6.0760   15.6320    1.9990 N.ar  113  HIS113     -0.2212
     59  N          3.2940   13.0220    6.0150 N.am  114  VAL114     -0.1980
     60  CA         1.8870   13.4300    6.2220 C.3   114  VAL114      0.1595
     61  C          1.6830   14.1630    7.5790 C.2   114  VAL114      0.2287
     62  O          0.9420   15.1670    7.6070 O.2   114  VAL114     -0.2864
     63  CB         0.9480   12.2050    6.0580 C.3   114  VAL114      0.0276
     64  CG1       -0.4650   12.5610    6.4420 C.3   114  VAL114      0.0022
     65  CG2        0.9900   11.7600    4.5630 C.3   114  VAL114      0.0022
     66  N          0.7290   16.3390    0.7240 N.3   122  VAL122     -0.1245
     67  CA         1.4840   15.1640    0.2910 C.3   122  VAL122      0.1561
     68  C          0.8900   14.5400   -0.9720 C.2   122  VAL122      0.2260
     69  O          1.6230   14.1480   -1.8740 O.2   122  VAL122     -0.2867
     70  CB         1.5770   14.1180    1.4250 C.3   122  VAL122      0.0252
     71  CG1        2.2530   12.8470    0.8940 C.3   122  VAL122      0.0019
     72  CG2        2.3990   14.7250    2.5730 C.3   122  VAL122      0.0019
     73  N          2.0730   15.5960   -4.4030 N.3   125  PHE125     -0.1241
     74  CA         3.4220   15.2820   -4.8750 C.3   125  PHE125      0.1605
     75  C          3.3330   14.1250   -5.8970 C.2   125  PHE125      0.2264
     76  O          3.7780   13.0090   -5.6510 O.2   125  PHE125     -0.2867
     77  CB         4.3020   14.8110   -3.6990 C.3   125  PHE125      0.0534
     78  CG         4.9070   15.9050   -2.8330 C.ar  125  PHE125     -0.0203
     79  CD1        4.1520   16.5930   -1.9230 C.ar  125  PHE125     -0.0042
     80  CD2        6.2670   16.1360   -2.8470 C.ar  125  PHE125     -0.0042
     81  CE1        4.7250   17.5920   -1.1260 C.ar  125  PHE125     -0.0003
     82  CE2        6.8440   17.0970   -2.0350 C.ar  125  PHE125     -0.0003
     83  CZ         6.0710   17.8320   -1.1810 C.ar  125  PHE125     -0.0000
     84  N          6.6380   12.2230   -7.0670 N.3   128  VAL128     -0.1231
     85  CA         7.2780   11.4590   -6.0140 C.3   128  VAL128      0.1692
     86  C          6.4670   10.1870   -5.6980 C.2   128  VAL128      0.2591
     87  O          7.0510    9.1180   -5.4840 O.2   128  VAL128     -0.2718
     88  CB         7.4110   12.3100   -4.7500 C.3   128  VAL128      0.0266
     89  CG1        7.8590   11.4660   -3.5370 C.3   128  VAL128      0.0020
     90  CG2        8.3870   13.4050   -5.0310 C.3   128  VAL128      0.0020
     91  N          5.1460   10.3140   -5.6700 N.am  129  LEU129     -0.1980
     92  CA         4.3260    9.1520   -5.3330 C.3   129  LEU129      0.1596
     93  C          4.5370    8.0760   -6.3570 C.2   129  LEU129      0.2287
     94  O          4.6410    6.8950   -6.0390 O.2   129  LEU129     -0.2864
     95  CB         2.8490    9.5620   -5.2290 C.3   129  LEU129      0.0297
     96  CG         2.4470   10.3790   -4.0140 C.3   129  LEU129      0.0022
     97  CD1        1.0360   10.8860   -4.1530 C.3   129  LEU129      0.0001
     98  CD2        2.5170    9.4760   -2.7320 C.3   129  LEU129      0.0001
     99  N          7.9770    6.5170   -5.8900 N.3   132  LEU132     -0.1245
    100  CA         8.0460    5.6000   -4.7500 C.3   132  LEU132      0.1561
    101  C          7.3730    4.2660   -5.1080 C.2   132  LEU132      0.2260
    102  O          7.9380    3.2100   -4.7770 O.2   132  LEU132     -0.2867
    103  CB         7.3980    6.2280   -3.5060 C.3   132  LEU132      0.0270
    104  CG         8.2340    7.3900   -2.8980 C.3   132  LEU132      0.0019
    105  CD1        7.4120    8.0740   -1.7710 C.3   132  LEU132      0.0001
    106  CD2        9.6000    6.9180   -2.3150 C.3   132  LEU132      0.0001
    107  N         11.9230   15.1480   -3.8080 N.3   144  LEU144     -0.1245
    108  CA        11.4410   15.6650   -2.5570 C.3   144  LEU144      0.1561
    109  C         12.3220   16.8490   -2.1600 C.2   144  LEU144      0.2260
    110  O         11.8300   17.8240   -1.5580 O.2   144  LEU144     -0.2867
    111  CB        11.5430   14.5820   -1.4560 C.3   144  LEU144      0.0270
    112  CG        10.3990   13.5900   -1.4970 C.3   144  LEU144      0.0019
    113  CD1       10.7730   12.4100   -0.5360 C.3   144  LEU144      0.0001
    114  CD2        9.1370   14.3160   -1.0230 C.3   144  LEU144      0.0001
    115  N         13.6680    7.9150    2.7710 N.3   164  PHE164     -0.1241
    116  CA        13.0920    7.4650    1.5110 C.3   164  PHE164      0.1605
    117  C         14.1500    6.9430    0.5430 C.2   164  PHE164      0.2264
    118  O         13.8970    5.9780   -0.2350 O.2   164  PHE164     -0.2867
    119  CB        12.2430    8.5610    0.8110 C.3   164  PHE164      0.0534
    120  CG        10.8150    8.6710    1.3480 C.ar  164  PHE164     -0.0203
    121  CD1        9.9630    7.5280    1.3520 C.ar  164  PHE164     -0.0042
    122  CD2       10.3480    9.8900    1.8370 C.ar  164  PHE164     -0.0042
    123  CE1        8.6510    7.6160    1.8340 C.ar  164  PHE164     -0.0003
    124  CE2        9.0450    9.9970    2.2760 C.ar  164  PHE164     -0.0003
    125  CZ         8.2090    8.8560    2.3030 C.ar  164  PHE164     -0.0000
@<TRIPOS>BOND
     1    84    85    1
     2    93    94    2
     3    93    92    1
     4    85    86    1
     5    85    88    1
     6    75    76    2
     7    75    74    1
     8    99   100    1
     9    86    91   am
    10    86    87    2
    11    91    92    1
    12    92    95    1
    13    95    96    1
    14   101   102    2
    15   101   100    1
    16    90    88    1
    17    74    73    1
    18    74    77    1
    19    88    89    1
    20   100   103    1
    21    23    21    1
    22    97    96    1
    23    96    98    1
    24   107   108    1
    25    77    78    1
    26   103   104    1
    27   104   106    1
    28   104   105    1
    29    80    78   ar
    30    80    82   ar
    31    78    79   ar
    32    21    22    1
    33    21    18    1
    34    17    18    1
    35    18    19    1
    36   108   109    1
    37   108   111    1
    38   109   110    2
    39    82    83   ar
    40    79    81   ar
    41    69    68    2
    42     9    10    1
    43   112   111    1
    44   112   114    1
    45   112   113    1
    46    19    20    2
    47    19    24   am
    48    83    81   ar
    49    68    67    1
    50    10    11    1
    51    10    13    1
    52    16    14    1
    53    43    41    1
    54    11    12    2
    55   118   117    2
    56    24    25    1
    57    36    37    1
    58    14    13    1
    59    14    15    1
    60    67    66    1
    61    67    70    1
    62    41    42    1
    63    41    40    1
    64   117   116    1
    65    37    40    1
    66    37    38    1
    67   119   120    1
    68   119   116    1
    69    71    70    1
    70    25    26    1
    71    25    28    1
    72    57    55   ar
    73    57    58   ar
    74    26    27    2
    75   120   121   ar
    76   120   122   ar
    77   121   123   ar
    78    70    72    1
    79   116   115    1
    80    38    39    2
    81   123   125   ar
    82   122   124   ar
    83    55    54   ar
    84    58    56   ar
    85    28    29    1
    86   124   125   ar
    87     4     3    2
    88    54    56   ar
    89    54    53    1
    90    29    31   ar
    91    29    30   ar
    92     7     5    1
    93    48    45    1
    94     3     2    1
    95    31    33   ar
    96    53    50    1
    97    30    32   ar
    98     2     5    1
    99     2     1    1
   100    65    63    1
   101    45    44    1
   102    45    46    1
   103     5     6    1
   104     6     8    1
   105    47    46    2
   106    33    34   ar
   107    50    51    1
   108    50    49    1
   109    32    34   ar
   110    51    52    2
   111    51    59   am
   112    59    60    1
   113    63    60    1
   114    63    64    1
   115    60    61    1
   116    34    35    1
   117    61    62    2
