@<TRIPOS>MOLECULE
tmp/4i7oB00.pdb
 125 117 0 0 0
SMALL
GASTEIGER

@<TRIPOS>ATOM
      1  N         20.4410   25.7350   -4.7950 N.3    88  ILE88      -0.1245
      2  CA        21.0420   26.5480   -3.7430 C.3    88  ILE88       0.1561
      3  C         20.1160   27.6940   -3.3250 C.2    88  ILE88       0.2260
      4  O         19.8490   27.8870   -2.1390 O.2    88  ILE88      -0.2867
      5  CB        22.3940   27.1430   -4.1880 C.3    88  ILE88       0.0252
      6  CG1       23.4620   26.0500   -4.2220 C.3    88  ILE88       0.0019
      7  CG2       22.8270   28.2680   -3.2400 C.3    88  ILE88       0.0019
      8  CD1       24.7420   26.4810   -4.9410 C.3    88  ILE88       0.0001
      9  N         21.4000   26.8540    2.4880 N.3    94  LEU94      -0.1245
     10  CA        22.4350   27.1820    1.5140 C.3    94  LEU94       0.1561
     11  C         22.4180   28.6400    1.0710 C.2    94  LEU94       0.2260
     12  O         23.4770   29.2360    0.8810 O.2    94  LEU94      -0.2867
     13  CB        22.3410   26.2640    0.2900 C.3    94  LEU94       0.0270
     14  CG        22.5020   24.7700    0.5710 C.3    94  LEU94       0.0019
     15  CD1       22.4090   23.9870   -0.7330 C.3    94  LEU94       0.0001
     16  CD2       23.8270   24.4930    1.2750 C.3    94  LEU94       0.0001
     17  N         24.5120   31.2780    2.9990 N.3    97  VAL97      -0.1231
     18  CA        25.9410   31.0360    2.8680 C.3    97  VAL97       0.1692
     19  C         26.4070   31.4710    1.4860 C.2    97  VAL97       0.2592
     20  O         27.3710   32.2260    1.3580 O.2    97  VAL97      -0.2718
     21  CB        26.3020   29.5640    3.1470 C.3    97  VAL97       0.0266
     22  CG1       27.7930   29.3350    2.9670 C.3    97  VAL97       0.0020
     23  CG2       25.8830   29.1950    4.5610 C.3    97  VAL97       0.0020
     24  N         25.6930   31.0200    0.4560 N.am   98  TYR98      -0.1976
     25  CA        25.9830   31.4120   -0.9200 C.3    98  TYR98       0.1639
     26  C         26.0670   32.9270   -1.0890 C.2    98  TYR98       0.2290
     27  O         27.0170   33.4370   -1.6800 O.2    98  TYR98      -0.2864
     28  CB        24.9040   30.8550   -1.8580 C.3    98  TYR98       0.0560
     29  CG        25.1840   31.1060   -3.3230 C.ar   98  TYR98      -0.0198
     30  CD1       26.0220   30.2580   -4.0400 C.ar   98  TYR98      -0.0009
     31  CD2       24.5870   32.1650   -3.9940 C.ar   98  TYR98      -0.0009
     32  CE1       26.2730   30.4690   -5.3770 C.ar   98  TYR98       0.0417
     33  CE2       24.8330   32.3810   -5.3360 C.ar   98  TYR98       0.0417
     34  CZ        25.6750   31.5210   -6.0160 C.ar   98  TYR98       0.1957
     35  OH        25.9310   31.7330   -7.3440 O.3    98  TYR98      -0.2866
     36  N         29.2200   34.5590    0.0340 N.3   101  LEU101     -0.1245
     37  CA        30.4420   34.2170   -0.6910 C.3   101  LEU101      0.1561
     38  C         30.7690   35.1880   -1.8270 C.2   101  LEU101      0.2260
     39  O         29.8790   35.8030   -2.4190 O.2   101  LEU101     -0.2867
     40  CB        30.3540   32.7880   -1.2420 C.3   101  LEU101      0.0270
     41  CG        30.2940   31.6690   -0.1980 C.3   101  LEU101      0.0019
     42  CD1       30.0960   30.3210   -0.8910 C.3   101  LEU101      0.0001
     43  CD2       31.5500   31.6530    0.6740 C.3   101  LEU101      0.0001
     44  N         30.7030   26.6490   -4.8180 N.3   109  ALA109     -0.1245
     45  CA        29.4520   26.1850   -4.2170 C.3   109  ALA109      0.1562
     46  C         28.5460   25.5160   -5.2450 C.2   109  ALA109      0.2260
     47  O         27.9860   24.4370   -4.9940 O.2   109  ALA109     -0.2867
     48  CB        28.7120   27.3530   -3.5320 C.3   109  ALA109      0.0290
     49  N         30.1070   22.1530   -6.0820 N.3   112  HIS112     -0.1226
     50  CA        29.8380   21.1970   -5.0120 C.3   112  HIS112      0.1752
     51  C         28.4110   20.6400   -5.0930 C.2   112  HIS112      0.2595
     52  O         28.1990   19.4280   -5.0120 O.2   112  HIS112     -0.2718
     53  CB        30.0560   21.8910   -3.6670 C.3   112  HIS112      0.0759
     54  CG        30.1410   20.9550   -2.5040 C.ar  112  HIS112      0.0818
     55  ND1       30.1650   21.4010   -1.2000 N.ar  112  HIS112     -0.2268
     56  CD2       30.2190   19.6060   -2.4450 C.ar  112  HIS112      0.1154
     57  CE1       30.2530   20.3630   -0.3860 C.ar  112  HIS112      0.1986
     58  NE2       30.2850   19.2630   -1.1160 N.ar  112  HIS112     -0.2212
     59  N         27.4260   21.5240   -5.2550 N.am  113  VAL113     -0.1980
     60  CA        26.0300   21.0770   -5.3280 C.3   113  VAL113      0.1595
     61  C         25.7450   20.2830   -6.6110 C.2   113  VAL113      0.2287
     62  O         24.9730   19.3280   -6.6000 O.2   113  VAL113     -0.2864
     63  CB        25.0590   22.2640   -5.2150 C.3   113  VAL113      0.0276
     64  CG1       23.6420   21.8420   -5.5540 C.3   113  VAL113      0.0022
     65  CG2       25.1300   22.8760   -3.8110 C.3   113  VAL113      0.0022
     66  N         24.9660   18.5590    0.3820 N.3   121  VAL121     -0.1245
     67  CA        25.7400   19.7380    0.7470 C.3   121  VAL121      0.1561
     68  C         25.1400   20.4290    1.9700 C.2   121  VAL121      0.2260
     69  O         25.8660   20.8750    2.8570 O.2   121  VAL121     -0.2867
     70  CB        25.8410   20.7370   -0.4380 C.3   121  VAL121      0.0252
     71  CG1       26.4980   22.0290    0.0060 C.3   121  VAL121      0.0019
     72  CG2       26.6120   20.1070   -1.6060 C.3   121  VAL121      0.0019
     73  N         26.3420   19.4350    5.4370 N.3   124  PHE124     -0.1241
     74  CA        27.6390   19.8410    5.9810 C.3   124  PHE124      0.1605
     75  C         27.4920   21.0260    6.9280 C.2   124  PHE124      0.2264
     76  O         27.9700   22.1150    6.6280 O.2   124  PHE124     -0.2867
     77  CB        28.5990   20.2570    4.8610 C.3   124  PHE124      0.0534
     78  CG        29.1320   19.1150    4.0450 C.ar  124  PHE124     -0.0203
     79  CD1       28.4470   18.6620    2.9290 C.ar  124  PHE124     -0.0042
     80  CD2       30.3330   18.5140    4.3760 C.ar  124  PHE124     -0.0042
     81  CE1       28.9400   17.6140    2.1680 C.ar  124  PHE124     -0.0003
     82  CE2       30.8340   17.4660    3.6200 C.ar  124  PHE124     -0.0003
     83  CZ        30.1350   17.0140    2.5130 C.ar  124  PHE124     -0.0000
     84  N         30.8630   22.9140    7.8480 N.3   127  VAL127     -0.1231
     85  CA        31.4690   23.5830    6.6960 C.3   127  VAL127      0.1692
     86  C         30.6900   24.8450    6.3420 C.2   127  VAL127      0.2591
     87  O         31.2810   25.8820    6.0640 O.2   127  VAL127     -0.2718
     88  CB        31.5380   22.6780    5.4570 C.3   127  VAL127      0.0266
     89  CG1       31.9530   23.4960    4.2340 C.3   127  VAL127      0.0020
     90  CG2       32.5080   21.5280    5.6910 C.3   127  VAL127      0.0020
     91  N         29.3620   24.7550    6.3650 N.am  128  LEU128     -0.1980
     92  CA        28.5220   25.9130    6.0430 C.3   128  LEU128      0.1596
     93  C         28.7590   27.0770    6.9990 C.2   128  LEU128      0.2287
     94  O         28.8740   28.2290    6.5760 O.2   128  LEU128     -0.2864
     95  CB        27.0390   25.5260    6.0140 C.3   128  LEU128      0.0297
     96  CG        26.6740   24.5550    4.8830 C.3   128  LEU128      0.0022
     97  CD1       25.2030   24.1910    4.9170 C.3   128  LEU128      0.0001
     98  CD2       27.0190   25.1680    3.5420 C.3   128  LEU128      0.0001
     99  N         32.2560   28.5760    6.2990 N.3   131  LEU131     -0.1245
    100  CA        32.2800   29.4240    5.1110 C.3   131  LEU131      0.1561
    101  C         31.6390   30.7740    5.3760 C.2   131  LEU131      0.2260
    102  O         32.1610   31.7990    4.9550 O.2   131  LEU131     -0.2867
    103  CB        31.5800   28.7470    3.9400 C.3   131  LEU131      0.0270
    104  CG        32.3200   27.5370    3.3840 C.3   131  LEU131      0.0019
    105  CD1       31.4440   26.8670    2.3330 C.3   131  LEU131      0.0001
    106  CD2       33.6990   27.9320    2.8120 C.3   131  LEU131      0.0001
    107  N         35.9420   19.7740    4.6020 N.3   143  LEU143     -0.1245
    108  CA        35.4840   19.1960    3.3370 C.3   143  LEU143      0.1561
    109  C         36.3130   17.9550    3.0080 C.2   143  LEU143      0.2260
    110  O         35.8010   16.9720    2.4630 O.2   143  LEU143     -0.2867
    111  CB        35.5820   20.2170    2.1980 C.3   143  LEU143      0.0270
    112  CG        34.4850   21.2760    2.1380 C.3   143  LEU143      0.0019
    113  CD1       34.8210   22.3150    1.0770 C.3   143  LEU143      0.0001
    114  CD2       33.1330   20.6350    1.8510 C.3   143  LEU143      0.0001
    115  N         37.5950   26.7240   -2.4510 N.3   163  PHE163     -0.1241
    116  CA        37.0050   27.2280   -1.2070 C.3   163  PHE163      0.1605
    117  C         38.0800   27.8170   -0.2890 C.2   163  PHE163      0.2264
    118  O         37.8380   28.8010    0.4120 O.2   163  PHE163     -0.2867
    119  CB        36.2300   26.1350   -0.4580 C.3   163  PHE163      0.0534
    120  CG        34.8190   25.9330   -0.9560 C.ar  163  PHE163     -0.0203
    121  CD1       33.9030   26.9790   -0.9360 C.ar  163  PHE163     -0.0042
    122  CD2       34.3990   24.6920   -1.4030 C.ar  163  PHE163     -0.0042
    123  CE1       32.6020   26.7900   -1.3760 C.ar  163  PHE163     -0.0003
    124  CE2       33.0930   24.4920   -1.8360 C.ar  163  PHE163     -0.0003
    125  CZ        32.1960   25.5420   -1.8230 C.ar  163  PHE163     -0.0000
@<TRIPOS>BOND
     1    35    34    1
     2    61    62    2
     3    61    60    1
     4    49    50    1
     5    34    32   ar
     6    34    33   ar
     7    64    63    1
     8    32    30   ar
     9    33    31   ar
    10    60    59    1
    11    60    63    1
    12    59    51   am
    13    46    47    2
    14    46    45    1
    15    63    65    1
    16    51    50    1
    17    51    52    2
    18    50    53    1
    19     8     6    1
    20    44    45    1
    21     1     2    1
    22     6     5    1
    23    45    48    1
    24     5     2    1
    25     5     7    1
    26    30    29   ar
    27    31    29   ar
    28     2     3    1
    29    53    54    1
    30     3     4    2
    31    29    28    1
    32    54    56   ar
    33    54    55   ar
    34   115   116    1
    35    56    58   ar
    36    39    38    2
    37    28    25    1
    38   124   125   ar
    39   124   122   ar
    40    38    37    1
    41   125   123   ar
    42    27    26    2
    43    72    70    1
    44   122   120   ar
    45   123   121   ar
    46    40    37    1
    47    40    41    1
    48   116   119    1
    49   116   117    1
    50    55    57   ar
    51    58    57   ar
    52    26    25    1
    53   120   121   ar
    54   120   119    1
    55    25    24    1
    56    42    41    1
    57    15    14    1
    58    37    36    1
    59    70    71    1
    60    70    67    1
    61   117   118    2
    62    41    43    1
    63    13    14    1
    64    13    10    1
    65    66    67    1
    66    24    19   am
    67    14    16    1
    68    67    68    1
    69    12    11    2
    70    11    10    1
    71   113   112    1
    72    20    19    2
    73    19    18    1
    74    10     9    1
    75   114   112    1
    76    68    69    2
    77   112   111    1
    78    81    83   ar
    79    81    79   ar
    80   111   108    1
    81   105   104    1
    82   110   109    2
    83    83    82   ar
    84   106   104    1
    85    18    17    1
    86    18    21    1
    87    79    78   ar
    88    22    21    1
    89   109   108    1
    90    21    23    1
    91   108   107    1
    92   104   103    1
    93    98    96    1
    94    82    80   ar
    95   103   100    1
    96    78    80   ar
    97    78    77    1
    98    89    88    1
    99    77    74    1
   100    96    97    1
   101    96    95    1
   102   102   101    2
   103   100   101    1
   104   100    99    1
   105    73    74    1
   106    88    90    1
   107    88    85    1
   108    74    75    1
   109    95    92    1
   110    92    91    1
   111    92    93    1
   112    87    86    2
   113    86    91   am
   114    86    85    1
   115    94    93    2
   116    76    75    2
   117    85    84    1
