@<TRIPOS>MOLECULE
tmp/4i7qA00.pdb
 117 110 0 0 0
SMALL
GASTEIGER

@<TRIPOS>ATOM
      1  N         -3.6850    8.8350    5.5670 N.3    89  ILE89      -0.1245
      2  CA        -3.0980    8.0760    4.4610 C.3    89  ILE89       0.1561
      3  C         -4.0420    6.9370    4.0360 C.2    89  ILE89       0.2260
      4  O         -4.3700    6.8060    2.8610 O.2    89  ILE89      -0.2867
      5  CB        -1.7130    7.4760    4.8530 C.3    89  ILE89       0.0252
      6  CG1       -0.6730    8.5960    4.9220 C.3    89  ILE89       0.0019
      7  CG2       -1.2920    6.4020    3.8530 C.3    89  ILE89       0.0019
      8  CD1        0.6520    8.1780    5.5630 C.3    89  ILE89       0.0001
      9  N         -2.8990    8.0840   -1.7510 N.3    95  LEU95      -0.1245
     10  CA        -1.7920    7.7400   -0.8700 C.3    95  LEU95       0.1561
     11  C         -1.7720    6.2770   -0.4450 C.2    95  LEU95       0.2260
     12  O         -0.6930    5.7060   -0.2860 O.2    95  LEU95      -0.2867
     13  CB        -1.8070    8.6180    0.3850 C.3    95  LEU95       0.0270
     14  CG        -1.6700   10.1140    0.1210 C.3    95  LEU95       0.0019
     15  CD1       -1.6400   10.7990    1.4760 C.3    95  LEU95       0.0001
     16  CD2       -0.4170   10.4210   -0.6960 C.3    95  LEU95       0.0001
     17  N          0.3130    3.7680   -2.5310 N.3    98  VAL98      -0.1231
     18  CA         1.7430    4.0360   -2.4390 C.3    98  VAL98       0.1692
     19  C          2.2440    3.5350   -1.1030 C.2    98  VAL98       0.2592
     20  O          3.2610    2.8490   -1.0150 O.2    98  VAL98      -0.2718
     21  CB         2.0400    5.5400   -2.5830 C.3    98  VAL98       0.0266
     22  CG1        3.5370    5.7930   -2.3800 C.3    98  VAL98       0.0020
     23  CG2        1.5690    6.0240   -3.9700 C.3    98  VAL98       0.0020
     24  N          1.5050    3.8580   -0.0520 N.am   99  TYR99      -0.1976
     25  CA         1.9110    3.4650    1.2800 C.3    99  TYR99       0.1639
     26  C          1.9860    1.9380    1.3780 C.2    99  TYR99       0.2290
     27  O          2.9350    1.3920    1.9520 O.2    99  TYR99      -0.2864
     28  CB         0.9040    4.0280    2.2920 C.3    99  TYR99       0.0560
     29  CG         1.1650    3.6530    3.7160 C.ar   99  TYR99      -0.0198
     30  CD1        1.9920    4.4320    4.5120 C.ar   99  TYR99      -0.0009
     31  CD2        0.5690    2.5280    4.2790 C.ar   99  TYR99      -0.0009
     32  CE1        2.2450    4.0920    5.8220 C.ar   99  TYR99       0.0417
     33  CE2        0.8130    2.1800    5.6080 C.ar   99  TYR99       0.0417
     34  CZ         1.6540    2.9740    6.3670 C.ar   99  TYR99       0.1957
     35  OH         1.9220    2.6660    7.6780 O.3    99  TYR99      -0.2866
     36  N          5.1250    0.3090    0.1420 N.3   102  LEU102     -0.1245
     37  CA         6.3900    0.6130    0.8170 C.3   102  LEU102      0.1561
     38  C          6.7500   -0.4170    1.8860 C.2   102  LEU102      0.2260
     39  O          5.8830   -1.0990    2.4480 O.2   102  LEU102     -0.2867
     40  CB         6.3560    2.0120    1.4450 C.3   102  LEU102      0.0270
     41  CG         6.2460    3.1920    0.4690 C.3   102  LEU102      0.0019
     42  CD1        5.9720    4.4960    1.2320 C.3   102  LEU102      0.0001
     43  CD2        7.4820    3.3160   -0.4080 C.3   102  LEU102      0.0001
     44  N          6.6340    7.9780    5.2700 N.3   110  ALA110     -0.1245
     45  CA         5.3890    8.4340    4.6920 C.3   110  ALA110      0.1562
     46  C          4.4940    9.0560    5.7650 C.2   110  ALA110      0.2260
     47  O          3.9390   10.1480    5.5780 O.2   110  ALA110     -0.2867
     48  CB         4.6760    7.2450    4.0250 C.3   110  ALA110      0.0290
     49  N          5.9700   12.3870    6.7460 N.3   113  HIS113     -0.1226
     50  CA         5.7220   13.3880    5.7290 C.3   113  HIS113      0.1752
     51  C          4.2970   13.9620    5.8250 C.2   113  HIS113      0.2595
     52  O          4.1210   15.1800    5.8000 O.2   113  HIS113     -0.2718
     53  CB         5.9910   12.7300    4.3820 C.3   113  HIS113      0.0759
     54  CG         6.0360   13.6680    3.2250 C.ar  113  HIS113      0.0818
     55  ND1        5.8510   13.2210    1.9330 N.ar  113  HIS113     -0.2268
     56  CD2        6.2360   15.0040    3.1410 C.ar  113  HIS113      0.1154
     57  CE1        5.9460   14.2450    1.1010 C.ar  113  HIS113      0.1986
     58  NE2        6.1640   15.3410    1.8090 N.ar  113  HIS113     -0.2212
     59  N          3.3050   13.0860    5.9760 N.am  114  VAL114     -0.1980
     60  CA         1.9040   13.4940    6.1440 C.3   114  VAL114      0.1595
     61  C          1.6520   14.2550    7.4600 C.2   114  VAL114      0.2287
     62  O          0.9550   15.2710    7.4630 O.2   114  VAL114     -0.2864
     63  CB         0.9580   12.2720    5.9880 C.3   114  VAL114      0.0276
     64  CG1       -0.4420   12.6120    6.4170 C.3   114  VAL114      0.0022
     65  CG2        0.9580   11.7960    4.5290 C.3   114  VAL114      0.0022
     66  N          0.8010   16.3110    0.6040 N.3   122  VAL122     -0.1245
     67  CA         1.5410   15.1360    0.1880 C.3   122  VAL122      0.1561
     68  C          0.9320   14.5340   -1.0760 C.2   122  VAL122      0.2260
     69  O          1.6590   14.1380   -1.9840 O.2   122  VAL122     -0.2867
     70  CB         1.5960   14.0790    1.3240 C.3   122  VAL122      0.0252
     71  CG1        2.1640   12.7710    0.7940 C.3   122  VAL122      0.0019
     72  CG2        2.4610   14.6090    2.4950 C.3   122  VAL122      0.0019
     73  N          2.0560   15.6620   -4.4930 N.3   125  PHE125     -0.1241
     74  CA         3.3990   15.3240   -4.9790 C.3   125  PHE125      0.1605
     75  C          3.3430   14.1980   -6.0180 C.2   125  PHE125      0.2264
     76  O          3.8500   13.1000   -5.7730 O.2   125  PHE125     -0.2867
     77  CB         4.2970   14.8250   -3.8270 C.3   125  PHE125      0.0534
     78  CG         4.8770   15.9100   -2.9500 C.ar  125  PHE125     -0.0203
     79  CD1        4.1090   16.5320   -1.9850 C.ar  125  PHE125     -0.0042
     80  CD2        6.2170   16.2460   -3.0450 C.ar  125  PHE125     -0.0042
     81  CE1        4.6550   17.5140   -1.1630 C.ar  125  PHE125     -0.0003
     82  CE2        6.7730   17.2220   -2.2250 C.ar  125  PHE125     -0.0003
     83  CZ         5.9920   17.8560   -1.2860 C.ar  125  PHE125     -0.0000
     84  N          6.7140   12.2550   -7.1900 N.3   128  VAL128     -0.1231
     85  CA         7.3510   11.5290   -6.1010 C.3   128  VAL128      0.1692
     86  C          6.5520   10.2730   -5.7700 C.2   128  VAL128      0.2591
     87  O          7.1170    9.2100   -5.5480 O.2   128  VAL128     -0.2718
     88  CB         7.4490   12.3880   -4.8490 C.3   128  VAL128      0.0266
     89  CG1        7.9740   11.5660   -3.6720 C.3   128  VAL128      0.0020
     90  CG2        8.3390   13.5790   -5.1170 C.3   128  VAL128      0.0020
     91  N          5.2340   10.3990   -5.7130 N.am  129  LEU129     -0.1980
     92  CA         4.3960    9.2510   -5.3960 C.3   129  LEU129      0.1596
     93  C          4.5780    8.1310   -6.4090 C.2   129  LEU129      0.2287
     94  O          4.6780    6.9600   -6.0430 O.2   129  LEU129     -0.2864
     95  CB         2.9140    9.6630   -5.3210 C.3   129  LEU129      0.0297
     96  CG         2.4880   10.5880   -4.1660 C.3   129  LEU129      0.0022
     97  CD1        1.0270   11.0230   -4.2800 C.3   129  LEU129      0.0001
     98  CD2        2.7730    9.9500   -2.7860 C.3   129  LEU129      0.0001
     99  N          8.0830    6.5540   -5.9010 N.3   132  LEU132     -0.1245
    100  CA         8.1340    5.6560   -4.7460 C.3   132  LEU132      0.1561
    101  C          7.4780    4.3240   -5.0780 C.2   132  LEU132      0.2260
    102  O          7.9940    3.2720   -4.7420 O.2   132  LEU132     -0.2867
    103  CB         7.4710    6.2940   -3.5240 C.3   132  LEU132      0.0270
    104  CG         8.2690    7.4570   -2.9270 C.3   132  LEU132      0.0019
    105  CD1        7.4980    8.1210   -1.7910 C.3   132  LEU132      0.0001
    106  CD2        9.6450    6.9920   -2.4220 C.3   132  LEU132      0.0001
    107  N         13.5480    8.0380    2.8470 N.3   164  PHE164     -0.1241
    108  CA        12.9190    7.5910    1.6120 C.3   164  PHE164      0.1605
    109  C         13.9730    7.0570    0.6380 C.2   164  PHE164      0.2264
    110  O         13.7140    6.1460   -0.1460 O.2   164  PHE164     -0.2867
    111  CB        12.1490    8.7240    0.9310 C.3   164  PHE164      0.0534
    112  CG        10.7330    8.9300    1.4530 C.ar  164  PHE164     -0.0203
    113  CD1        9.7780    7.9030    1.4110 C.ar  164  PHE164     -0.0042
    114  CD2       10.3500   10.1760    1.9320 C.ar  164  PHE164     -0.0042
    115  CE1        8.4710    8.1230    1.8880 C.ar  164  PHE164     -0.0003
    116  CE2        9.0570   10.4120    2.3770 C.ar  164  PHE164     -0.0003
    117  CZ         8.1200    9.3790    2.3650 C.ar  164  PHE164     -0.0000
@<TRIPOS>BOND
     1    84    85    1
     2    93    94    2
     3    93    92    1
     4    85    86    1
     5    85    88    1
     6    75    76    2
     7    75    74    1
     8    99   100    1
     9    86    91   am
    10    86    87    2
    11    91    92    1
    12    92    95    1
    13    95    96    1
    14    90    88    1
    15   101   100    1
    16   101   102    2
    17    74    73    1
    18    74    77    1
    19    88    89    1
    20   100   103    1
    21    97    96    1
    22    96    98    1
    23    23    21    1
    24    77    78    1
    25   103   104    1
    26    80    78   ar
    27    80    82   ar
    28    78    79   ar
    29   104   106    1
    30   104   105    1
    31    21    18    1
    32    21    22    1
    33    17    18    1
    34    18    19    1
    35    82    83   ar
    36    79    81   ar
    37    69    68    2
    38     9    10    1
    39    83    81   ar
    40    19    20    2
    41    19    24   am
    42    68    67    1
    43    10    11    1
    44    10    13    1
    45    16    14    1
    46    11    12    2
    47    43    41    1
    48   110   109    2
    49    24    25    1
    50    14    13    1
    51    14    15    1
    52    36    37    1
    53    67    66    1
    54    67    70    1
    55    41    42    1
    56    41    40    1
    57   109   108    1
    58    71    70    1
    59    37    40    1
    60    37    38    1
    61   111   112    1
    62   111   108    1
    63    57    58   ar
    64    57    55   ar
    65    25    26    1
    66    25    28    1
    67    70    72    1
    68    26    27    2
    69   113   112   ar
    70   113   115   ar
    71   112   114   ar
    72   108   107    1
    73    58    56   ar
    74    38    39    2
    75   115   117   ar
    76   114   116   ar
    77    55    54   ar
    78    28    29    1
    79   117   116   ar
    80     4     3    2
    81    56    54   ar
    82    54    53    1
    83    29    31   ar
    84    29    30   ar
    85     7     5    1
    86    48    45    1
    87     3     2    1
    88    31    33   ar
    89    53    50    1
    90     2     5    1
    91     2     1    1
    92    30    32   ar
    93    65    63    1
    94    45    44    1
    95    45    46    1
    96     5     6    1
    97     6     8    1
    98    47    46    2
    99    33    34   ar
   100    50    51    1
   101    50    49    1
   102    52    51    2
   103    32    34   ar
   104    51    59   am
   105    59    60    1
   106    63    60    1
   107    63    64    1
   108    60    61    1
   109    34    35    1
   110    61    62    2
