@<TRIPOS>MOLECULE
tmp/4i7rA00.pdb
 117 110 0 0 0
SMALL
GASTEIGER

@<TRIPOS>ATOM
      1  N         -3.7270    8.9000    5.6210 N.3    89  ILE89      -0.1245
      2  CA        -3.1760    8.1570    4.4990 C.3    89  ILE89       0.1561
      3  C         -4.1080    7.0140    4.0650 C.2    89  ILE89       0.2260
      4  O         -4.4220    6.8730    2.8850 O.2    89  ILE89      -0.2867
      5  CB        -1.8090    7.5720    4.8960 C.3    89  ILE89       0.0252
      6  CG1       -0.7780    8.7010    5.0520 C.3    89  ILE89       0.0019
      7  CG2       -1.3600    6.4420    3.8960 C.3    89  ILE89       0.0019
      8  CD1        0.5230    8.2290    5.7430 C.3    89  ILE89       0.0001
      9  N         -2.9660    8.1890   -1.6810 N.3    95  LEU95      -0.1245
     10  CA        -1.8580    7.8370   -0.8060 C.3    95  LEU95       0.1561
     11  C         -1.8370    6.3650   -0.3830 C.2    95  LEU95       0.2260
     12  O         -0.7580    5.8020   -0.2340 O.2    95  LEU95      -0.2867
     13  CB        -1.8820    8.7190    0.4380 C.3    95  LEU95       0.0270
     14  CG        -1.7640   10.2260    0.1770 C.3    95  LEU95       0.0019
     15  CD1       -1.7330   10.9210    1.5360 C.3    95  LEU95       0.0001
     16  CD2       -0.5190   10.5180   -0.6450 C.3    95  LEU95       0.0001
     17  N          0.3020    3.8960   -2.4750 N.3    98  VAL98      -0.1231
     18  CA         1.7360    4.1700   -2.3720 C.3    98  VAL98       0.1692
     19  C          2.2680    3.6710   -1.0330 C.2    98  VAL98       0.2592
     20  O          3.2870    2.9590   -0.9550 O.2    98  VAL98      -0.2718
     21  CB         2.0390    5.6640   -2.5550 C.3    98  VAL98       0.0266
     22  CG1        3.5710    5.8920   -2.4400 C.3    98  VAL98       0.0020
     23  CG2        1.5330    6.1280   -3.9170 C.3    98  VAL98       0.0020
     24  N          1.5410    3.9900    0.0280 N.am   99  TYR99      -0.1976
     25  CA         1.9200    3.5770    1.3620 C.3    99  TYR99       0.1639
     26  C          1.9870    2.0690    1.4210 C.2    99  TYR99       0.2290
     27  O          2.9470    1.4930    1.9500 O.2    99  TYR99      -0.2864
     28  CB         0.8640    4.0780    2.3590 C.3    99  TYR99       0.0560
     29  CG         1.1150    3.6920    3.7850 C.ar   99  TYR99      -0.0198
     30  CD1        1.9380    4.4680    4.6040 C.ar   99  TYR99      -0.0009
     31  CD2        0.5300    2.5470    4.3180 C.ar   99  TYR99      -0.0009
     32  CE1        2.1620    4.1070    5.9200 C.ar   99  TYR99       0.0417
     33  CE2        0.7480    2.1790    5.6450 C.ar   99  TYR99       0.0417
     34  CZ         1.5830    2.9800    6.4260 C.ar   99  TYR99       0.1957
     35  OH         1.8100    2.6310    7.7280 O.3    99  TYR99      -0.2866
     36  N          5.1380    0.3980    0.1970 N.3   102  LEU102     -0.1245
     37  CA         6.4050    0.7090    0.8460 C.3   102  LEU102      0.1561
     38  C          6.7520   -0.3120    1.9150 C.2   102  LEU102      0.2260
     39  O          5.8930   -1.0010    2.4720 O.2   102  LEU102     -0.2867
     40  CB         6.3700    2.1190    1.4550 C.3   102  LEU102      0.0270
     41  CG         6.2680    3.2660    0.4450 C.3   102  LEU102      0.0019
     42  CD1        6.0350    4.5930    1.1760 C.3   102  LEU102      0.0001
     43  CD2        7.4930    3.3380   -0.4530 C.3   102  LEU102      0.0001
     44  N          6.6220    8.0700    5.2470 N.3   110  ALA110     -0.1245
     45  CA         5.3650    8.5360    4.6690 C.3   110  ALA110      0.1562
     46  C          4.4820    9.1520    5.7380 C.2   110  ALA110      0.2260
     47  O          3.9090   10.2290    5.5360 O.2   110  ALA110     -0.2867
     48  CB         4.6550    7.3680    3.9770 C.3   110  ALA110      0.0290
     49  N          5.9830   12.4950    6.7260 N.3   113  HIS113     -0.1226
     50  CA         5.7130   13.5190    5.7300 C.3   113  HIS113      0.1752
     51  C          4.2700   14.0550    5.8280 C.2   113  HIS113      0.2595
     52  O          4.0450   15.2610    5.7920 O.2   113  HIS113     -0.2718
     53  CB         5.9440   12.9150    4.3620 C.3   113  HIS113      0.0759
     54  CG         6.0890   13.9180    3.2580 C.ar  113  HIS113      0.0818
     55  ND1        6.0080   13.5480    1.9310 N.ar  113  HIS113     -0.2268
     56  CD2        6.2680   15.2640    3.2670 C.ar  113  HIS113      0.1154
     57  CE1        6.1660   14.6190    1.1710 C.ar  113  HIS113      0.1986
     58  NE2        6.3070   15.6760    1.9550 N.ar  113  HIS113     -0.2212
     59  N          3.3040   13.1480    5.9910 N.am  114  VAL114     -0.1980
     60  CA         1.9060   13.5750    6.1520 C.3   114  VAL114      0.1595
     61  C          1.6830   14.3390    7.4820 C.2   114  VAL114      0.2287
     62  O          0.9440   15.3290    7.5150 O.2   114  VAL114     -0.2864
     63  CB         0.9580   12.3690    5.9990 C.3   114  VAL114      0.0276
     64  CG1       -0.4400   12.7350    6.4110 C.3   114  VAL114      0.0022
     65  CG2        0.9960   11.9060    4.5540 C.3   114  VAL114      0.0022
     66  N          0.8550   16.3240    0.6850 N.3   122  VAL122     -0.1245
     67  CA         1.6050   15.1650    0.2460 C.3   122  VAL122      0.1561
     68  C          1.0220   14.5390   -1.0220 C.2   122  VAL122      0.2260
     69  O          1.7590   14.1150   -1.9240 O.2   122  VAL122     -0.2867
     70  CB         1.7030   14.1220    1.3950 C.3   122  VAL122      0.0252
     71  CG1        2.3840   12.8450    0.9060 C.3   122  VAL122      0.0019
     72  CG2        2.5190   14.6960    2.5650 C.3   122  VAL122      0.0019
     73  N          2.2800   15.7610   -4.4030 N.3   125  PHE125     -0.1241
     74  CA         3.6010   15.4090   -4.9400 C.3   125  PHE125      0.1605
     75  C          3.4440   14.2600   -5.9540 C.2   125  PHE125      0.2264
     76  O          3.9210   13.1550   -5.7210 O.2   125  PHE125     -0.2867
     77  CB         4.5610   14.9170   -3.8350 C.3   125  PHE125      0.0534
     78  CG         5.1280   15.9940   -2.9150 C.ar  125  PHE125     -0.0203
     79  CD1        4.3490   16.5970   -1.9480 C.ar  125  PHE125     -0.0042
     80  CD2        6.4760   16.3200   -2.9660 C.ar  125  PHE125     -0.0042
     81  CE1        4.8890   17.5500   -1.0890 C.ar  125  PHE125     -0.0003
     82  CE2        7.0240   17.2670   -2.1070 C.ar  125  PHE125     -0.0003
     83  CZ         6.2230   17.8840   -1.1650 C.ar  125  PHE125     -0.0000
     84  N          6.7220   12.4350   -7.1020 N.3   128  VAL128     -0.1231
     85  CA         7.3780   11.6960   -6.0280 C.3   128  VAL128      0.1692
     86  C          6.5970   10.4250   -5.6750 C.2   128  VAL128      0.2591
     87  O          7.1920    9.3690   -5.4660 O.2   128  VAL128     -0.2718
     88  CB         7.5490   12.5610   -4.7830 C.3   128  VAL128      0.0266
     89  CG1        7.9850   11.6950   -3.5780 C.3   128  VAL128      0.0020
     90  CG2        8.5710   13.6480   -5.0470 C.3   128  VAL128      0.0020
     91  N          5.2760   10.5300   -5.6150 N.am  129  LEU129     -0.1980
     92  CA         4.4630    9.3450   -5.3010 C.3   129  LEU129      0.1596
     93  C          4.6440    8.2380   -6.3270 C.2   129  LEU129      0.2287
     94  O          4.7410    7.0620   -5.9620 O.2   129  LEU129     -0.2864
     95  CB         2.9900    9.7390   -5.1680 C.3   129  LEU129      0.0297
     96  CG         2.6970   10.6730   -3.9910 C.3   129  LEU129      0.0022
     97  CD1        1.2740   11.1820   -4.1020 C.3   129  LEU129      0.0001
     98  CD2        2.9350    9.9950   -2.6290 C.3   129  LEU129      0.0001
     99  N          8.1340    6.7250   -5.8210 N.3   132  LEU132     -0.1245
    100  CA         8.1510    5.7950   -4.6920 C.3   132  LEU132      0.1561
    101  C          7.4750    4.4660   -5.0310 C.2   132  LEU132      0.2260
    102  O          7.9870    3.3920   -4.7000 O.2   132  LEU132     -0.2867
    103  CB         7.5010    6.4340   -3.4620 C.3   132  LEU132      0.0270
    104  CG         8.2970    7.5920   -2.8480 C.3   132  LEU132      0.0019
    105  CD1        7.4640    8.3010   -1.7740 C.3   132  LEU132      0.0001
    106  CD2        9.6520    7.0930   -2.2870 C.3   132  LEU132      0.0001
    107  N         13.5500    8.1120    2.8560 N.3   164  PHE164     -0.1241
    108  CA        12.9750    7.6890    1.5820 C.3   164  PHE164      0.1605
    109  C         14.0480    7.1620    0.6090 C.2   164  PHE164      0.2264
    110  O         13.8170    6.2290   -0.1640 O.2   164  PHE164     -0.2867
    111  CB        12.1980    8.8250    0.9090 C.3   164  PHE164      0.0534
    112  CG        10.8020    9.0210    1.4340 C.ar  164  PHE164     -0.0203
    113  CD1        9.8660    7.9650    1.4230 C.ar  164  PHE164     -0.0042
    114  CD2       10.4180   10.2600    1.9210 C.ar  164  PHE164     -0.0042
    115  CE1        8.5610    8.1740    1.9080 C.ar  164  PHE164     -0.0003
    116  CE2        9.1110   10.4820    2.3620 C.ar  164  PHE164     -0.0003
    117  CZ         8.1870    9.4420    2.3630 C.ar  164  PHE164     -0.0000
@<TRIPOS>BOND
     1    84    85    1
     2    93    94    2
     3    93    92    1
     4    85    86    1
     5    85    88    1
     6    75    76    2
     7    75    74    1
     8    99   100    1
     9    86    91   am
    10    86    87    2
    11    91    92    1
    12    92    95    1
    13    95    96    1
    14    90    88    1
    15   101   102    2
    16   101   100    1
    17    74    73    1
    18    74    77    1
    19    88    89    1
    20   100   103    1
    21    97    96    1
    22    96    98    1
    23    23    21    1
    24    77    78    1
    25   103   104    1
    26    80    78   ar
    27    80    82   ar
    28    78    79   ar
    29   104   106    1
    30   104   105    1
    31    21    22    1
    32    21    18    1
    33    17    18    1
    34    18    19    1
    35    82    83   ar
    36    79    81   ar
    37    69    68    2
    38     9    10    1
    39    83    81   ar
    40    19    20    2
    41    19    24   am
    42    68    67    1
    43    10    11    1
    44    10    13    1
    45    16    14    1
    46    43    41    1
    47    11    12    2
    48   110   109    2
    49    24    25    1
    50    14    13    1
    51    14    15    1
    52    36    37    1
    53    67    66    1
    54    67    70    1
    55    41    42    1
    56    41    40    1
    57   109   108    1
    58    37    40    1
    59    37    38    1
    60    71    70    1
    61   111   112    1
    62   111   108    1
    63    57    55   ar
    64    57    58   ar
    65    25    26    1
    66    25    28    1
    67    70    72    1
    68    26    27    2
    69   113   112   ar
    70   113   115   ar
    71   112   114   ar
    72   108   107    1
    73   115   117   ar
    74    38    39    2
    75   114   116   ar
    76    55    54   ar
    77    58    56   ar
    78    28    29    1
    79   116   117   ar
    80     4     3    2
    81    54    56   ar
    82    54    53    1
    83    29    31   ar
    84    29    30   ar
    85     7     5    1
    86    48    45    1
    87     3     2    1
    88    31    33   ar
    89    53    50    1
    90     2     5    1
    91     2     1    1
    92    65    63    1
    93    30    32   ar
    94    45    44    1
    95    45    46    1
    96     5     6    1
    97     6     8    1
    98    47    46    2
    99    33    34   ar
   100    50    51    1
   101    50    49    1
   102    52    51    2
   103    51    59   am
   104    32    34   ar
   105    59    60    1
   106    63    60    1
   107    63    64    1
   108    60    61    1
   109    34    35    1
   110    61    62    2
