@<TRIPOS>MOLECULE
tmp/4i7sA00.pdb
 125 117 0 0 0
SMALL
GASTEIGER

@<TRIPOS>ATOM
      1  N         -3.5580    8.7570    5.5930 N.3    89  ILE89      -0.1245
      2  CA        -2.9730    8.0120    4.4800 C.3    89  ILE89       0.1561
      3  C         -3.9220    6.9040    4.0290 C.2    89  ILE89       0.2260
      4  O         -4.2440    6.7760    2.8400 O.2    89  ILE89      -0.2867
      5  CB        -1.6340    7.3760    4.8800 C.3    89  ILE89       0.0252
      6  CG1       -0.5570    8.4640    4.9780 C.3    89  ILE89       0.0019
      7  CG2       -1.2340    6.2800    3.8550 C.3    89  ILE89       0.0019
      8  CD1        0.7430    7.9820    5.6890 C.3    89  ILE89       0.0001
      9  N         -2.7910    8.0900   -1.7540 N.3    95  LEU95      -0.1245
     10  CA        -1.6740    7.7350   -0.8920 C.3    95  LEU95       0.1561
     11  C         -1.6650    6.2640   -0.5040 C.2    95  LEU95       0.2260
     12  O         -0.5900    5.6600   -0.3950 O.2    95  LEU95      -0.2867
     13  CB        -1.6640    8.5890    0.3680 C.3    95  LEU95       0.0270
     14  CG        -1.4870   10.0950    0.1290 C.3    95  LEU95       0.0019
     15  CD1       -1.4620   10.7860    1.4780 C.3    95  LEU95       0.0001
     16  CD2       -0.2530   10.4310   -0.6910 C.3    95  LEU95       0.0001
     17  N          0.3670    3.7600   -2.5800 N.3    98  VAL98      -0.1231
     18  CA         1.8150    4.0130   -2.5380 C.3    98  VAL98       0.1692
     19  C          2.3550    3.5320   -1.1940 C.2    98  VAL98       0.2592
     20  O          3.3470    2.7940   -1.1180 O.2    98  VAL98      -0.2718
     21  CB         2.1090    5.4870   -2.7480 C.3    98  VAL98       0.0266
     22  CG1        3.6290    5.7660   -2.5380 C.3    98  VAL98       0.0020
     23  CG2        1.6650    5.8730   -4.1780 C.3    98  VAL98       0.0020
     24  N          1.6600    3.9100   -0.1350 N.am   99  TYR99      -0.1976
     25  CA         2.0550    3.5110    1.2200 C.3    99  TYR99       0.1639
     26  C          2.0920    1.9800    1.3410 C.2    99  TYR99       0.2290
     27  O          3.0460    1.4040    1.8750 O.2    99  TYR99      -0.2864
     28  CB         1.0490    4.0690    2.2340 C.3    99  TYR99       0.0560
     29  CG         1.2740    3.6530    3.6730 C.ar   99  TYR99      -0.0198
     30  CD1        2.1120    4.3980    4.4940 C.ar   99  TYR99      -0.0009
     31  CD2        0.6400    2.5260    4.2140 C.ar   99  TYR99      -0.0009
     32  CE1        2.3160    4.0500    5.8090 C.ar   99  TYR99       0.0417
     33  CE2        0.8610    2.1510    5.5550 C.ar   99  TYR99       0.0417
     34  CZ         1.6980    2.9400    6.3360 C.ar   99  TYR99       0.1957
     35  OH         1.9430    2.6300    7.6520 O.3    99  TYR99      -0.2866
     36  N          5.1780    0.2420    0.1240 N.3   102  LEU102     -0.1245
     37  CA         6.4430    0.5620    0.8100 C.3   102  LEU102      0.1561
     38  C          6.8090   -0.4520    1.8840 C.2   102  LEU102      0.2260
     39  O          5.9330   -1.1060    2.4800 O.2   102  LEU102     -0.2867
     40  CB         6.3740    1.9640    1.4680 C.3   102  LEU102      0.0270
     41  CG         6.2990    3.1330    0.4750 C.3   102  LEU102      0.0019
     42  CD1        6.1130    4.4650    1.2380 C.3   102  LEU102      0.0001
     43  CD2        7.5350    3.1840   -0.4500 C.3   102  LEU102      0.0001
     44  N          6.7100    7.9750    5.3090 N.3   110  ALA110     -0.1245
     45  CA         5.4160    8.4430    4.7920 C.3   110  ALA110      0.1562
     46  C          4.5410    9.0420    5.8790 C.2   110  ALA110      0.2260
     47  O          3.9700   10.1180    5.7110 O.2   110  ALA110     -0.2867
     48  CB         4.6500    7.2990    4.0720 C.3   110  ALA110      0.0290
     49  N          6.0160   12.2860    6.8240 N.3   113  HIS113     -0.1226
     50  CA         5.7910   13.3130    5.8060 C.3   113  HIS113      0.1752
     51  C          4.3640   13.9020    5.9140 C.2   113  HIS113      0.2595
     52  O          4.1660   15.1170    5.8830 O.2   113  HIS113     -0.2718
     53  CB         6.0460   12.6690    4.4510 C.3   113  HIS113      0.0759
     54  CG         6.1780   13.6270    3.3140 C.ar  113  HIS113      0.0818
     55  ND1        6.0890   13.2100    2.0010 N.ar  113  HIS113     -0.2268
     56  CD2        6.3880   14.9660    3.2760 C.ar  113  HIS113      0.1154
     57  CE1        6.2280   14.2570    1.2020 C.ar  113  HIS113      0.1986
     58  NE2        6.4010   15.3350    1.9480 N.ar  113  HIS113     -0.2212
     59  N          3.3860   13.0150    6.0510 N.am  114  VAL114     -0.1980
     60  CA         1.9800   13.4310    6.1860 C.3   114  VAL114      0.1595
     61  C          1.7340   14.1690    7.5210 C.2   114  VAL114      0.2287
     62  O          1.0120   15.1650    7.5500 O.2   114  VAL114     -0.2864
     63  CB         1.0580   12.2380    5.9890 C.3   114  VAL114      0.0276
     64  CG1       -0.3950   12.5380    6.4420 C.3   114  VAL114      0.0022
     65  CG2        1.0970   11.7770    4.5200 C.3   114  VAL114      0.0022
     66  N          1.0690   16.1870    0.6900 N.3   122  VAL122     -0.1245
     67  CA         1.8110   15.0140    0.2900 C.3   122  VAL122      0.1561
     68  C          1.3020   14.4530   -1.0370 C.2   122  VAL122      0.2260
     69  O          2.0850   14.1090   -1.9090 O.2   122  VAL122     -0.2867
     70  CB         1.7940   13.9570    1.3940 C.3   122  VAL122      0.0252
     71  CG1        2.5030   12.6620    0.8960 C.3   122  VAL122      0.0019
     72  CG2        2.5320   14.5270    2.6080 C.3   122  VAL122      0.0019
     73  N          2.7500   15.6490   -4.4290 N.3   125  PHE125     -0.1241
     74  CA         4.0020   15.2450   -5.0550 C.3   125  PHE125      0.1605
     75  C          3.7250   14.1420   -6.0550 C.2   125  PHE125      0.2264
     76  O          4.1500   13.0000   -5.8660 O.2   125  PHE125     -0.2867
     77  CB         5.0060   14.7520   -4.0210 C.3   125  PHE125      0.0534
     78  CG         5.4960   15.8290   -3.0870 C.ar  125  PHE125     -0.0203
     79  CD1        4.8790   16.0410   -1.8730 C.ar  125  PHE125     -0.0042
     80  CD2        6.5660   16.6400   -3.4390 C.ar  125  PHE125     -0.0042
     81  CE1        5.3280   17.0240   -0.9890 C.ar  125  PHE125     -0.0003
     82  CE2        7.0120   17.6390   -2.5660 C.ar  125  PHE125     -0.0003
     83  CZ         6.3830   17.8240   -1.3330 C.ar  125  PHE125     -0.0000
     84  N          6.8010   12.1550   -7.3200 N.3   128  VAL128     -0.1231
     85  CA         7.4140   11.3930   -6.2430 C.3   128  VAL128      0.1692
     86  C          6.5690   10.1790   -5.8690 C.2   128  VAL128      0.2591
     87  O          7.1130    9.0940   -5.6260 O.2   128  VAL128     -0.2718
     88  CB         7.6530   12.2310   -4.9830 C.3   128  VAL128      0.0266
     89  CG1        8.3470   11.3640   -3.9160 C.3   128  VAL128      0.0020
     90  CG2        8.5380   13.4090   -5.3210 C.3   128  VAL128      0.0020
     91  N          5.2520   10.3440   -5.8120 N.am  129  LEU129     -0.1980
     92  CA         4.3940    9.1730   -5.5490 C.3   129  LEU129      0.1596
     93  C          4.6470    8.0290   -6.5480 C.2   129  LEU129      0.2287
     94  O          4.7490    6.8510   -6.1760 O.2   129  LEU129     -0.2864
     95  CB         2.9080    9.5700   -5.5760 C.3   129  LEU129      0.0297
     96  CG         2.3680   10.5780   -4.5490 C.3   129  LEU129      0.0022
     97  CD1        0.8560   10.4850   -4.5140 C.3   129  LEU129      0.0001
     98  CD2        2.9490   10.3830   -3.1710 C.3   129  LEU129      0.0001
     99  N          8.1480    6.4970   -5.9400 N.3   132  LEU132     -0.1245
    100  CA         8.1530    5.5810   -4.7710 C.3   132  LEU132      0.1561
    101  C          7.5250    4.2220   -5.1160 C.2   132  LEU132      0.2260
    102  O          8.0760    3.1770   -4.7820 O.2   132  LEU132     -0.2867
    103  CB         7.4470    6.2030   -3.5580 C.3   132  LEU132      0.0270
    104  CG         8.2330    7.3730   -2.9710 C.3   132  LEU132      0.0019
    105  CD1        7.3600    8.0820   -1.9600 C.3   132  LEU132      0.0001
    106  CD2        9.5650    6.8880   -2.3660 C.3   132  LEU132      0.0001
    107  N         12.2150   15.1690   -3.8290 N.3   144  LEU144     -0.1245
    108  CA        11.7990   15.7070   -2.5300 C.3   144  LEU144      0.1561
    109  C         12.6530   16.9100   -2.1170 C.2   144  LEU144      0.2260
    110  O         12.1620   17.8440   -1.4780 O.2   144  LEU144     -0.2867
    111  CB        11.8290   14.6390   -1.4310 C.3   144  LEU144      0.0270
    112  CG        10.6710   13.6370   -1.5210 C.3   144  LEU144      0.0019
    113  CD1       10.8970   12.5380   -0.4920 C.3   144  LEU144      0.0001
    114  CD2        9.2810   14.2880   -1.3440 C.3   144  LEU144      0.0001
    115  N         13.5050    7.9700    2.9070 N.3   164  PHE164     -0.1241
    116  CA        12.8980    7.5600    1.6400 C.3   164  PHE164      0.1605
    117  C         13.9450    7.0120    0.6510 C.2   164  PHE164      0.2264
    118  O         13.6610    6.0880   -0.1190 O.2   164  PHE164     -0.2867
    119  CB        12.1230    8.6990    0.9560 C.3   164  PHE164      0.0534
    120  CG        10.7160    8.8760    1.4640 C.ar  164  PHE164     -0.0203
    121  CD1        9.8000    7.8260    1.4090 C.ar  164  PHE164     -0.0042
    122  CD2       10.3020   10.1080    1.9780 C.ar  164  PHE164     -0.0042
    123  CE1        8.5090    7.9870    1.8790 C.ar  164  PHE164     -0.0003
    124  CE2        8.9850   10.2890    2.4230 C.ar  164  PHE164     -0.0003
    125  CZ         8.1060    9.2070    2.3890 C.ar  164  PHE164     -0.0000
@<TRIPOS>BOND
     1    84    85    1
     2    93    94    2
     3    93    92    1
     4    85    86    1
     5    85    88    1
     6    75    76    2
     7    75    74    1
     8    99   100    1
     9    86    91   am
    10    86    87    2
    11    91    92    1
    12    95    92    1
    13    95    96    1
    14    90    88    1
    15   101   102    2
    16   101   100    1
    17    74    73    1
    18    74    77    1
    19    88    89    1
    20   100   103    1
    21    96    97    1
    22    96    98    1
    23    23    21    1
    24    77    78    1
    25   107   108    1
    26   103   104    1
    27    80    78   ar
    28    80    82   ar
    29    78    79   ar
    30   104   106    1
    31   104   105    1
    32    21    22    1
    33    21    18    1
    34    17    18    1
    35    82    83   ar
    36    18    19    1
    37   108   109    1
    38   108   111    1
    39   109   110    2
    40    69    68    2
    41    79    81   ar
    42     9    10    1
    43   112   111    1
    44   112   114    1
    45   112   113    1
    46    83    81   ar
    47    19    20    2
    48    19    24   am
    49    68    67    1
    50    10    11    1
    51    10    13    1
    52    16    14    1
    53    11    12    2
    54    43    41    1
    55    24    25    1
    56   118   117    2
    57    36    37    1
    58    14    13    1
    59    14    15    1
    60    67    66    1
    61    67    70    1
    62    41    42    1
    63    41    40    1
    64   117   116    1
    65    37    40    1
    66    37    38    1
    67    71    70    1
    68   119   120    1
    69   119   116    1
    70    57    58   ar
    71    57    55   ar
    72    25    26    1
    73    25    28    1
    74    26    27    2
    75    70    72    1
    76   121   120   ar
    77   121   123   ar
    78   120   122   ar
    79   116   115    1
    80   123   125   ar
    81    38    39    2
    82    58    56   ar
    83   122   124   ar
    84    55    54   ar
    85    28    29    1
    86   125   124   ar
    87     4     3    2
    88    56    54   ar
    89    54    53    1
    90    29    31   ar
    91    29    30   ar
    92     7     5    1
    93     3     2    1
    94    48    45    1
    95    31    33   ar
    96    53    50    1
    97     2     5    1
    98     2     1    1
    99    30    32   ar
   100    65    63    1
   101    45    44    1
   102    45    46    1
   103     5     6    1
   104     6     8    1
   105    33    34   ar
   106    47    46    2
   107    50    51    1
   108    50    49    1
   109    32    34   ar
   110    52    51    2
   111    51    59   am
   112    63    60    1
   113    63    64    1
   114    59    60    1
   115    60    61    1
   116    34    35    1
   117    61    62    2
