@<TRIPOS>MOLECULE
tmp/4i7tA00.pdb
 125 117 0 0 0
SMALL
GASTEIGER

@<TRIPOS>ATOM
      1  N         -3.7030    9.2650    5.6690 N.3    89  ILE89      -0.1245
      2  CA        -3.1540    8.5240    4.5390 C.3    89  ILE89       0.1561
      3  C         -4.0950    7.3760    4.1380 C.2    89  ILE89       0.2260
      4  O         -4.4210    7.2400    2.9510 O.2    89  ILE89      -0.2867
      5  CB        -1.7910    7.9300    5.0270 C.3    89  ILE89       0.0252
      6  CG1       -0.7850    9.0270    5.0120 C.3    89  ILE89       0.0019
      7  CG2       -1.2740    6.8720    3.9600 C.3    89  ILE89       0.0019
      8  CD1        0.5450    8.6120    5.7650 C.3    89  ILE89       0.0001
      9  N         -3.0570    8.4730   -1.7020 N.3    95  LEU95      -0.1245
     10  CA        -1.9390    8.1330   -0.8160 C.3    95  LEU95       0.1561
     11  C         -1.9480    6.6600   -0.4150 C.2    95  LEU95       0.2260
     12  O         -0.8540    6.0500   -0.3620 O.2    95  LEU95      -0.2867
     13  CB        -1.9560    8.9940    0.4350 C.3    95  LEU95       0.0270
     14  CG        -1.7640   10.4610    0.0850 C.3    95  LEU95       0.0019
     15  CD1       -1.7970   11.1520    1.3920 C.3    95  LEU95       0.0001
     16  CD2       -0.4230   10.7050   -0.5500 C.3    95  LEU95       0.0001
     17  N          0.0410    4.0630   -2.6160 N.3    98  VAL98      -0.1231
     18  CA         1.4850    4.2970   -2.5410 C.3    98  VAL98       0.1692
     19  C          2.0260    3.8700   -1.1750 C.2    98  VAL98       0.2592
     20  O          3.0600    3.1290   -1.0640 O.2    98  VAL98      -0.2718
     21  CB         1.8480    5.7630   -2.7590 C.3    98  VAL98       0.0266
     22  CG1        3.4260    5.9480   -2.7250 C.3    98  VAL98       0.0020
     23  CG2        1.3440    6.1250   -4.1590 C.3    98  VAL98       0.0020
     24  N          1.3080    4.1740   -0.1250 N.am   99  TYR99      -0.1976
     25  CA         1.7460    3.8120    1.2210 C.3    99  TYR99       0.1639
     26  C          1.8130    2.2820    1.3340 C.2    99  TYR99       0.2290
     27  O          2.8050    1.7290    1.8420 O.2    99  TYR99      -0.2864
     28  CB         0.6660    4.3090    2.2240 C.3    99  TYR99       0.0560
     29  CG         1.0320    3.9810    3.6800 C.ar   99  TYR99      -0.0198
     30  CD1        1.8280    4.8440    4.4080 C.ar   99  TYR99      -0.0009
     31  CD2        0.4880    2.8760    4.3200 C.ar   99  TYR99      -0.0009
     32  CE1        2.1050    4.5410    5.6890 C.ar   99  TYR99       0.0417
     33  CE2        0.8000    2.5300    5.6660 C.ar   99  TYR99       0.0417
     34  CZ         1.5830    3.4520    6.3250 C.ar   99  TYR99       0.1957
     35  OH         1.8770    3.1320    7.6500 O.3    99  TYR99      -0.2866
     36  N          4.9800    0.6260    0.0450 N.3   102  LEU102     -0.1245
     37  CA         6.2340    0.9320    0.7170 C.3   102  LEU102      0.1561
     38  C          6.5750   -0.1150    1.7900 C.2   102  LEU102      0.2260
     39  O          5.7070   -0.7170    2.4050 O.2   102  LEU102     -0.2867
     40  CB         6.1720    2.3220    1.3740 C.3   102  LEU102      0.0270
     41  CG         6.0770    3.4450    0.3280 C.3   102  LEU102      0.0019
     42  CD1        5.7960    4.7540    1.0970 C.3   102  LEU102      0.0001
     43  CD2        7.2950    3.5920   -0.5860 C.3   102  LEU102      0.0001
     44  N          6.5380    8.3780    5.2190 N.3   110  ALA110     -0.1245
     45  CA         5.2890    8.9250    4.6610 C.3   110  ALA110      0.1562
     46  C          4.4310    9.4870    5.7860 C.2   110  ALA110      0.2260
     47  O          3.8670   10.5780    5.6300 O.2   110  ALA110     -0.2867
     48  CB         4.5170    7.7470    4.0130 C.3   110  ALA110      0.0290
     49  N          5.9810   12.8000    6.8290 N.3   113  HIS113     -0.1226
     50  CA         5.6890   13.8880    5.8780 C.3   113  HIS113      0.1752
     51  C          4.2610   14.4190    5.9970 C.2   113  HIS113      0.2595
     52  O          4.0550   15.6380    6.0040 O.2   113  HIS113     -0.2718
     53  CB         5.9620   13.3610    4.4710 C.3   113  HIS113      0.0759
     54  CG         6.0330   14.4440    3.4290 C.ar  113  HIS113      0.0818
     55  ND1        5.9760   14.1420    2.0720 N.ar  113  HIS113     -0.2268
     56  CD2        6.0650   15.8060    3.5120 C.ar  113  HIS113      0.1154
     57  CE1        6.0180   15.2670    1.3810 C.ar  113  HIS113      0.1986
     58  NE2        6.0540   16.2860    2.2100 N.ar  113  HIS113     -0.2212
     59  N          3.2750   13.5020    6.0920 N.am  114  VAL114     -0.1980
     60  CA         1.8900   13.9790    6.2510 C.3   114  VAL114      0.1595
     61  C          1.6850   14.6950    7.5950 C.2   114  VAL114      0.2287
     62  O          0.9630   15.6970    7.6890 O.2   114  VAL114     -0.2864
     63  CB         0.9310   12.7740    6.1400 C.3   114  VAL114      0.0276
     64  CG1       -0.4680   13.1280    6.6030 C.3   114  VAL114      0.0022
     65  CG2        0.9610   12.3300    4.6350 C.3   114  VAL114      0.0022
     66  N          0.7850   16.7450    0.7100 N.3   122  VAL122     -0.1245
     67  CA         1.5410   15.5850    0.2820 C.3   122  VAL122      0.1561
     68  C          0.9640   14.9370   -0.9670 C.2   122  VAL122      0.2260
     69  O          1.6590   14.5450   -1.8770 O.2   122  VAL122     -0.2867
     70  CB         1.5990   14.5540    1.4410 C.3   122  VAL122      0.0252
     71  CG1        2.1940   13.2400    0.9390 C.3   122  VAL122      0.0019
     72  CG2        2.4410   15.1240    2.6880 C.3   122  VAL122      0.0019
     73  N          1.9840   16.0950   -4.4870 N.3   125  PHE125     -0.1241
     74  CA         3.3330   15.7830   -5.0050 C.3   125  PHE125      0.1605
     75  C          3.1980   14.6060   -6.0060 C.2   125  PHE125      0.2264
     76  O          3.6500   13.4930   -5.7620 O.2   125  PHE125     -0.2867
     77  CB         4.2960   15.2950   -3.8950 C.3   125  PHE125      0.0534
     78  CG         4.8510   16.3420   -2.9470 C.ar  125  PHE125     -0.0203
     79  CD1        4.0550   17.0710   -2.1000 C.ar  125  PHE125     -0.0042
     80  CD2        6.2100   16.4740   -2.8040 C.ar  125  PHE125     -0.0042
     81  CE1        4.6210   18.0010   -1.2170 C.ar  125  PHE125     -0.0003
     82  CE2        6.7790   17.3930   -1.9240 C.ar  125  PHE125     -0.0003
     83  CZ         5.9940   18.1560   -1.1440 C.ar  125  PHE125     -0.0000
     84  N          6.4850   12.7270   -7.0860 N.3   128  VAL128     -0.1231
     85  CA         7.1060   11.9700   -5.9820 C.3   128  VAL128      0.1692
     86  C          6.3220   10.6980   -5.6740 C.2   128  VAL128      0.2591
     87  O          6.9030    9.5870   -5.5210 O.2   128  VAL128     -0.2718
     88  CB         7.1330   12.7940   -4.7160 C.3   128  VAL128      0.0266
     89  CG1        7.5930   11.9400   -3.5190 C.3   128  VAL128      0.0020
     90  CG2        8.0700   13.9480   -4.9250 C.3   128  VAL128      0.0020
     91  N          5.0140   10.8050   -5.6630 N.am  129  LEU129     -0.1980
     92  CA         4.1850    9.6290   -5.3920 C.3   129  LEU129      0.1596
     93  C          4.3950    8.5330   -6.4510 C.2   129  LEU129      0.2287
     94  O          4.5170    7.3400   -6.1510 O.2   129  LEU129     -0.2864
     95  CB         2.7100   10.0130   -5.2740 C.3   129  LEU129      0.0297
     96  CG         2.4120   10.9350   -4.0940 C.3   129  LEU129      0.0022
     97  CD1        0.9720   11.3040   -4.2430 C.3   129  LEU129      0.0001
     98  CD2        2.6210   10.1740   -2.7940 C.3   129  LEU129      0.0001
     99  N          7.8990    7.0030   -5.9870 N.3   132  LEU132     -0.1245
    100  CA         7.9490    6.0640   -4.8690 C.3   132  LEU132      0.1561
    101  C          7.2550    4.7400   -5.2140 C.2   132  LEU132      0.2260
    102  O          7.7650    3.6950   -4.8770 O.2   132  LEU132     -0.2867
    103  CB         7.3190    6.6470   -3.6020 C.3   132  LEU132      0.0270
    104  CG         8.1720    7.7590   -2.9950 C.3   132  LEU132      0.0019
    105  CD1        7.3810    8.4610   -1.8650 C.3   132  LEU132      0.0001
    106  CD2        9.6010    7.2380   -2.4930 C.3   132  LEU132      0.0001
    107  N         11.8060   15.5890   -3.8010 N.3   144  LEU144     -0.1245
    108  CA        11.3690   16.1150   -2.4960 C.3   144  LEU144      0.1561
    109  C         12.2390   17.3170   -2.1220 C.2   144  LEU144      0.2260
    110  O         11.7640   18.2870   -1.4820 O.2   144  LEU144     -0.2867
    111  CB        11.4550   15.0480   -1.3650 C.3   144  LEU144      0.0270
    112  CG        10.3280   14.0060   -1.4000 C.3   144  LEU144      0.0019
    113  CD1       10.7200   12.8580   -0.4750 C.3   144  LEU144      0.0001
    114  CD2        9.0110   14.6620   -0.9370 C.3   144  LEU144      0.0001
    115  N         13.4430    8.3540    2.8250 N.3   164  PHE164     -0.1241
    116  CA        12.8260    7.8970    1.5980 C.3   164  PHE164      0.1605
    117  C         13.8730    7.3440    0.5890 C.2   164  PHE164      0.2264
    118  O         13.6330    6.4120   -0.2190 O.2   164  PHE164     -0.2867
    119  CB        12.0610    9.0340    0.8820 C.3   164  PHE164      0.0534
    120  CG        10.6460    9.2340    1.4110 C.ar  164  PHE164     -0.0203
    121  CD1        9.7160    8.1770    1.3510 C.ar  164  PHE164     -0.0042
    122  CD2       10.2720   10.4510    2.0010 C.ar  164  PHE164     -0.0042
    123  CE1        8.4010    8.3760    1.8740 C.ar  164  PHE164     -0.0003
    124  CE2        8.9420   10.6750    2.4220 C.ar  164  PHE164     -0.0003
    125  CZ         8.0330    9.5890    2.3490 C.ar  164  PHE164     -0.0000
@<TRIPOS>BOND
     1    84    85    1
     2    93    94    2
     3    93    92    1
     4    75    76    2
     5    75    74    1
     6    99   100    1
     7    85    86    1
     8    85    88    1
     9    86    91   am
    10    86    87    2
    11    91    92    1
    12    92    95    1
    13    95    96    1
    14   101   102    2
    15   101   100    1
    16    74    73    1
    17    74    77    1
    18    90    88    1
    19   100   103    1
    20    88    89    1
    21    97    96    1
    22    23    21    1
    23    96    98    1
    24    77    78    1
    25   107   108    1
    26   103   104    1
    27   104   106    1
    28   104   105    1
    29    78    80   ar
    30    78    79   ar
    31    80    82   ar
    32    21    22    1
    33    21    18    1
    34    17    18    1
    35    18    19    1
    36   108   109    1
    37   108   111    1
    38   109   110    2
    39    79    81   ar
    40    82    83   ar
    41    69    68    2
    42     9    10    1
    43   112   111    1
    44   112   114    1
    45   112   113    1
    46    81    83   ar
    47    19    20    2
    48    19    24   am
    49    68    67    1
    50    10    11    1
    51    10    13    1
    52    43    41    1
    53    16    14    1
    54    11    12    2
    55   118   117    2
    56    24    25    1
    57    36    37    1
    58    14    13    1
    59    14    15    1
    60    67    66    1
    61    67    70    1
    62    41    42    1
    63    41    40    1
    64   117   116    1
    65    37    40    1
    66    37    38    1
    67   119   120    1
    68   119   116    1
    69    71    70    1
    70    25    26    1
    71    25    28    1
    72    26    27    2
    73   121   120   ar
    74   121   123   ar
    75    57    55   ar
    76    57    58   ar
    77   120   122   ar
    78    70    72    1
    79   116   115    1
    80    38    39    2
    81   123   125   ar
    82   122   124   ar
    83    55    54   ar
    84    58    56   ar
    85    28    29    1
    86   125   124   ar
    87     4     3    2
    88    54    56   ar
    89    54    53    1
    90    29    31   ar
    91    29    30   ar
    92     7     5    1
    93    48    45    1
    94     3     2    1
    95    31    33   ar
    96    30    32   ar
    97    53    50    1
    98     2     5    1
    99     2     1    1
   100    65    63    1
   101    45    44    1
   102    45    46    1
   103     6     5    1
   104     6     8    1
   105    47    46    2
   106    33    34   ar
   107    32    34   ar
   108    50    51    1
   109    50    49    1
   110    51    52    2
   111    51    59   am
   112    59    60    1
   113    63    60    1
   114    63    64    1
   115    60    61    1
   116    34    35    1
   117    61    62    2
