@<TRIPOS>MOLECULE
tmp/4i7wB01.pdb
 94 91 0 0 0
SMALL
GASTEIGER

@<TRIPOS>ATOM
      1  N         25.1060  -22.7360   11.9830 N.3    48  SER48      -0.1203
      2  CA        23.9360  -23.5410   11.6400 C.3    48  SER48       0.2005
      3  C         23.8830  -23.9110   10.1500 C.2    48  SER48       0.2460
      4  O         23.5600  -25.0490    9.8120 O.2    48  SER48      -0.2732
      5  CB        22.6420  -22.8290   12.0540 C.3    48  SER48       0.2103
      6  OG        21.5020  -23.5810   11.6730 O.3    48  SER48      -0.2182
      7  N         24.2080  -22.9490    9.2420 N.am   49  PRO49      -0.2728
      8  CA        24.0880  -23.3180    7.8230 C.3    49  PRO49       0.1401
      9  C         24.9690  -24.4790    7.3510 C.2    49  PRO49       0.2269
     10  O         24.6010  -25.1700    6.4060 O.2    49  PRO49      -0.2865
     11  CB        24.4970  -22.0340    7.0890 C.3    49  PRO49       0.0296
     12  CG        24.2220  -20.9460    8.0550 C.3    49  PRO49       0.0237
     13  CD        24.6000  -21.5290    9.3780 C.3    49  PRO49       0.0939
     14  N         26.2130  -27.0930    9.2990 N.3    51  LEU51      -0.1231
     15  CA        26.0160  -28.3450   10.0210 C.3    51  LEU51       0.1693
     16  C         24.9640  -29.1800    9.3070 C.2    51  LEU51       0.2593
     17  O         24.0410  -28.6380    8.6970 O.2    51  LEU51      -0.2718
     18  CB        25.5780  -28.0810   11.4660 C.3    51  LEU51       0.0284
     19  CG        26.4880  -27.2590   12.3860 C.3    51  LEU51       0.0019
     20  CD1       25.8760  -27.1770   13.7760 C.3    51  LEU51       0.0001
     21  CD2       27.8990  -27.8400   12.4620 C.3    51  LEU51       0.0001
     22  N         25.1090  -30.5010    9.3720 N.am   52  SER52      -0.1938
     23  CA        24.0400  -31.3940    8.9440 C.3    52  SER52       0.2055
     24  C         22.9350  -31.3370    9.9940 C.2    52  SER52       0.2643
     25  O         23.1380  -30.7960   11.0830 O.2    52  SER52      -0.2714
     26  CB        24.5540  -32.8270    8.8180 C.3    52  SER52       0.2130
     27  OG        24.8380  -33.3670   10.0970 O.3    52  SER52      -0.2179
     28  N         21.7690  -31.8900    9.6750 N.am   53  HIS53      -0.1973
     29  CA        20.6950  -31.9990   10.6600 C.3    53  HIS53       0.1656
     30  C         21.1360  -32.7750   11.8980 C.2    53  HIS53       0.2291
     31  O         20.8720  -32.3500   13.0220 O.2    53  HIS53      -0.2864
     32  CB        19.4470  -32.6270   10.0450 C.3    53  HIS53       0.0771
     33  CG        18.4360  -31.6250    9.5890 C.ar   53  HIS53       0.0820
     34  ND1       18.6900  -30.7120    8.5900 N.ar   53  HIS53      -0.2267
     35  CD2       17.1690  -31.3870   10.0030 C.ar   53  HIS53       0.1154
     36  CE1       17.6230  -29.9570    8.4040 C.ar   53  HIS53       0.1986
     37  NE2       16.6850  -30.3470    9.2480 N.ar   53  HIS53      -0.2212
     38  N         23.5670  -30.5280   13.9040 N.3    56  HIS56      -0.1241
     39  CA        22.7550  -29.4760   14.5180 C.3    56  HIS56       0.1621
     40  C         22.0850  -30.0020   15.7900 C.2    56  HIS56       0.2264
     41  O         22.1980  -29.4030   16.8620 O.2    56  HIS56      -0.2867
     42  CB        21.6980  -29.0080   13.5080 C.3    56  HIS56       0.0745
     43  CG        20.8800  -27.8370   13.9600 C.ar   56  HIS56       0.0817
     44  ND1       20.6270  -26.7560   13.1430 N.ar   56  HIS56      -0.2268
     45  CD2       20.2420  -27.5830   15.1280 C.ar   56  HIS56       0.1154
     46  CE1       19.8770  -25.8830   13.7910 C.ar   56  HIS56       0.1986
     47  NE2       19.6320  -26.3580   14.9990 N.ar   56  HIS56      -0.2212
     48  N         16.1110  -22.6170   13.4450 N.3    78  GLY78      -0.1210
     49  CA        15.7360  -21.8630   12.2550 C.3    78  GLY78       0.1956
     50  C         16.0050  -22.5820   10.9510 C.2    78  GLY78       0.2613
     51  O         16.9720  -23.3360   10.8290 O.2    78  GLY78      -0.2717
     52  N         15.1270  -22.3390    9.9830 N.am   79  SER79      -0.1938
     53  CA        15.2910  -22.8110    8.6110 C.3    79  SER79       0.2055
     54  C         14.4360  -21.9710    7.6770 C.2    79  SER79       0.2643
     55  O         13.4400  -21.3770    8.0940 O.2    79  SER79      -0.2714
     56  CB        14.8810  -24.2800    8.4760 C.3    79  SER79       0.2130
     57  OG        14.9810  -24.7050    7.1230 O.3    79  SER79      -0.2179
     58  N         14.8150  -21.9450    6.4040 N.am   80  ASN80      -0.1971
     59  CA        13.9910  -21.3130    5.3800 C.3    80  ASN80       0.1688
     60  C         12.9140  -22.2610    4.8510 C.2    80  ASN80       0.2292
     61  O         12.1100  -21.8880    3.9990 O.2    80  ASN80      -0.2864
     62  CB        14.8570  -20.7670    4.2400 C.3    80  ASN80       0.1181
     63  CG        15.6740  -21.8420    3.5460 C.2    80  ASN80       0.2629
     64  OD1       15.7550  -22.9840    4.0040 O.2    80  ASN80      -0.2716
     65  ND2       16.2970  -21.4730    2.4320 N.am   80  ASN80      -0.0877
     66  N         11.7090  -28.2460    7.9360 N.3    84  GLU84      -0.1245
     67  CA        12.9790  -28.3880    8.6480 C.3    84  GLU84       0.1567
     68  C         12.9600  -27.6800    9.9980 C.2    84  GLU84       0.2260
     69  O         13.5010  -28.1980   10.9790 O.2    84  GLU84      -0.2867
     70  CB        14.1390  -27.8550    7.8120 C.3    84  GLU84       0.0388
     71  CG        14.5310  -28.7230    6.6360 C.3    84  GLU84       0.1160
     72  CD        15.6340  -28.0890    5.8140 C.2    84  GLU84       0.3649
     73  OE1       15.3470  -27.6270    4.6920 O.co2  84  GLU84      -0.2457
     74  OE2       16.7830  -28.0290    6.3010 O.co2  84  GLU84      -0.2457
     75  N         13.6160  -29.5630   13.5500 N.3    88  LEU88      -0.1245
     76  CA        14.6430  -29.1070   14.4890 C.3    88  LEU88       0.1561
     77  C         14.0460  -28.6690   15.8280 C.2    88  LEU88       0.2260
     78  O         14.6240  -28.9340   16.8890 O.2    88  LEU88      -0.2867
     79  CB        15.4830  -27.9840   13.8690 C.3    88  LEU88       0.0270
     80  CG        16.3510  -28.3700   12.6640 C.3    88  LEU88       0.0019
     81  CD1       16.8230  -27.1280   11.9160 C.3    88  LEU88       0.0001
     82  CD2       17.5360  -29.2340   13.0780 C.3    88  LEU88       0.0001
     83  N         15.1720  -17.3230    4.9520 N.3   106  TYR106     -0.1241
     84  CA        16.1710  -16.6580    4.1200 C.3   106  TYR106      0.1605
     85  C         16.1470  -17.2530    2.7130 C.2   106  TYR106      0.2264
     86  O         15.6960  -18.3850    2.5080 O.2   106  TYR106     -0.2867
     87  CB        17.5710  -16.8370    4.7430 C.3   106  TYR106      0.0534
     88  CG        17.7780  -18.2320    5.2970 C.ar  106  TYR106     -0.0201
     89  CD1       18.2850  -19.2600    4.4960 C.ar  106  TYR106     -0.0009
     90  CD2       17.4260  -18.5320    6.6150 C.ar  106  TYR106     -0.0009
     91  CE1       18.4460  -20.5450    5.0030 C.ar  106  TYR106      0.0417
     92  CE2       17.5770  -19.8090    7.1260 C.ar  106  TYR106      0.0417
     93  CZ        18.0850  -20.8110    6.3190 C.ar  106  TYR106      0.1957
     94  OH        18.2270  -22.0780    6.8370 O.3   106  TYR106     -0.2866
@<TRIPOS>BOND
     1    65    63   am
     2    86    85    2
     3    85    84    1
     4    63    64    2
     5    63    62    1
     6    61    60    2
     7    84    87    1
     8    84    83    1
     9    62    59    1
    10    89    91   ar
    11    89    88   ar
    12    73    72   ar
    13    87    88    1
    14    60    59    1
    15    91    93   ar
    16    88    90   ar
    17    59    58    1
    18    72    74   ar
    19    72    71    1
    20    93    94    1
    21    93    92   ar
    22    58    54   am
    23    10     9    2
    24    90    92   ar
    25    71    70    1
    26    11     8    1
    27    11    12    1
    28    57    56    1
    29     9     8    1
    30    54    55    2
    31    54    53    1
    32    70    67    1
    33     8     7    1
    34    66    67    1
    35    12    13    1
    36    36    34   ar
    37    36    37   ar
    38    56    53    1
    39    34    33   ar
    40    53    52    1
    41    67    68    1
    42    17    16    2
    43    26    23    1
    44    26    27    1
    45    23    22    1
    46    23    24    1
    47     7    13    1
    48     7     3   am
    49    37    35   ar
    50    14    15    1
    51    16    22   am
    52    16    15    1
    53    33    35   ar
    54    33    32    1
    55    28    24   am
    56    28    29    1
    57     4     3    2
    58    52    50   am
    59    24    25    2
    60    68    69    2
    61    15    18    1
    62    32    29    1
    63     3     2    1
    64    29    30    1
    65    51    50    2
    66    50    49    1
    67    18    19    1
    68     2     1    1
    69     2     5    1
    70     6     5    1
    71    30    31    2
    72    81    80    1
    73    49    48    1
    74    19    21    1
    75    19    20    1
    76    80    82    1
    77    80    79    1
    78    44    46   ar
    79    44    43   ar
    80    42    43    1
    81    42    39    1
    82    75    76    1
    83    46    47   ar
    84    79    76    1
    85    38    39    1
    86    43    45   ar
    87    76    77    1
    88    39    40    1
    89    47    45   ar
    90    40    41    2
    91    77    78    2
