@<TRIPOS>MOLECULE
tmp/4i7zA05.pdb
 86 83 0 0 0
SMALL
GASTEIGER

@<TRIPOS>ATOM
      1  N        -37.0000   74.6120   14.4720 N.3    39  LEU39      -0.1245
      2  CA       -37.2320   74.9350   15.8690 C.3    39  LEU39       0.1561
      3  C        -38.5650   75.6650   16.0270 C.2    39  LEU39       0.2260
      4  O        -39.3870   75.2950   16.8700 O.2    39  LEU39      -0.2867
      5  CB       -36.0830   75.7920   16.3970 C.3    39  LEU39       0.0270
      6  CG       -36.1970   76.2760   17.8400 C.3    39  LEU39       0.0019
      7  CD1      -36.2050   75.1030   18.8150 C.3    39  LEU39       0.0001
      8  CD2      -35.0670   77.2460   18.1490 C.3    39  LEU39       0.0001
      9  N        -41.3240   73.5450   16.1760 N.3    42  PHE42      -0.1227
     10  CA       -41.4300   72.7200   17.3710 C.3    42  PHE42       0.1736
     11  C        -42.1060   73.5000   18.5000 C.2    42  PHE42       0.2595
     12  O        -42.9420   72.9570   19.2240 O.2    42  PHE42      -0.2718
     13  CB       -40.0670   72.2000   17.8360 C.3    42  PHE42       0.0547
     14  CG       -40.1190   71.5550   19.1880 C.ar   42  PHE42      -0.0202
     15  CD1      -40.5610   70.2490   19.3300 C.ar   42  PHE42      -0.0042
     16  CD2      -39.7800   72.2700   20.3230 C.ar   42  PHE42      -0.0042
     17  CE1      -40.6380   69.6610   20.5800 C.ar   42  PHE42      -0.0003
     18  CE2      -39.8510   71.6870   21.5720 C.ar   42  PHE42      -0.0003
     19  CZ       -40.2800   70.3810   21.7020 C.ar   42  PHE42      -0.0000
     20  N        -41.7350   74.7690   18.6430 N.am   43  LEU43      -0.1980
     21  CA       -42.3120   75.6340   19.6650 C.3    43  LEU43       0.1596
     22  C        -43.8270   75.7270   19.4780 C.2    43  LEU43       0.2287
     23  O        -44.5850   75.7100   20.4540 O.2    43  LEU43      -0.2864
     24  CB       -41.6670   77.0200   19.6090 C.3    43  LEU43       0.0297
     25  CG       -40.1610   77.0280   19.8990 C.3    43  LEU43       0.0022
     26  CD1      -39.5500   78.3790   19.5940 C.3    43  LEU43       0.0001
     27  CD2      -39.8920   76.6550   21.3430 C.3    43  LEU43       0.0001
     28  N        -45.2130   72.6010   20.7390 N.3    46  PHE46      -0.1227
     29  CA       -45.1840   72.6070   22.1930 C.3    46  PHE46       0.1736
     30  C        -46.3930   73.3740   22.7220 C.2    46  PHE46       0.2595
     31  O        -47.0590   72.9260   23.6530 O.2    46  PHE46      -0.2718
     32  CB       -43.8670   73.2260   22.6800 C.3    46  PHE46       0.0547
     33  CG       -43.6430   73.1210   24.1630 C.ar   46  PHE46      -0.0202
     34  CD1      -42.8760   72.0990   24.6880 C.ar   46  PHE46      -0.0042
     35  CD2      -44.1770   74.0620   25.0260 C.ar   46  PHE46      -0.0042
     36  CE1      -42.6590   72.0080   26.0520 C.ar   46  PHE46      -0.0003
     37  CE2      -43.9630   73.9790   26.3830 C.ar   46  PHE46      -0.0003
     38  CZ       -43.2040   72.9500   26.8990 C.ar   46  PHE46      -0.0000
     39  N        -46.6850   74.5180   22.1110 N.am   47  ALA47      -0.1980
     40  CA       -47.8150   75.3410   22.5250 C.3    47  ALA47       0.1597
     41  C        -49.1420   74.6400   22.2590 C.2    47  ALA47       0.2287
     42  O        -49.9540   74.4470   23.1710 O.2    47  ALA47      -0.2864
     43  CB       -47.7860   76.6600   21.8050 C.3    47  ALA47       0.0319
     44  N        -49.3910   71.2270   24.2100 N.3    50  PHE50      -0.1241
     45  CA       -49.8060   71.5120   25.5760 C.3    50  PHE50       0.1605
     46  C        -51.3070   71.7990   25.6820 C.2    50  PHE50       0.2264
     47  O        -52.0090   71.1880   26.4910 O.2    50  PHE50      -0.2867
     48  CB       -49.0080   72.7030   26.1110 C.3    50  PHE50       0.0534
     49  CG       -49.6600   73.3930   27.2640 C.ar   50  PHE50      -0.0203
     50  CD1      -49.9940   72.6900   28.4100 C.ar   50  PHE50      -0.0042
     51  CD2      -49.9340   74.7470   27.2080 C.ar   50  PHE50      -0.0042
     52  CE1      -50.5970   73.3250   29.4740 C.ar   50  PHE50      -0.0003
     53  CE2      -50.5330   75.3890   28.2690 C.ar   50  PHE50      -0.0003
     54  CZ       -50.8670   74.6780   29.4040 C.ar   50  PHE50      -0.0000
     55  N        -35.7850   68.0880   24.1110 N.3   194  ALA194     -0.1245
     56  CA       -35.2640   69.2550   24.8070 C.3   194  ALA194      0.1562
     57  C        -33.7670   69.0840   25.0580 C.2   194  ALA194      0.2260
     58  O        -32.9660   69.8920   24.5980 O.2   194  ALA194     -0.2867
     59  CB       -36.0080   69.4930   26.1010 C.3   194  ALA194      0.0290
     60  N        -31.7010   69.0240   21.8310 N.3   197  MET197     -0.1230
     61  CA       -31.7000   70.3510   21.2160 C.3   197  MET197      0.1702
     62  C        -30.7640   71.2470   21.9980 C.2   197  MET197      0.2592
     63  O        -30.0630   72.0740   21.4250 O.2   197  MET197     -0.2718
     64  CB       -33.0940   70.9800   21.2350 C.3   197  MET197      0.0401
     65  CG       -33.9620   70.6610   20.0390 C.3   197  MET197      0.0596
     66  SD       -35.5590   71.4790   20.1720 S.3   197  MET197     -0.1393
     67  CE       -36.2300   71.1590   18.5470 C.3   197  MET197      0.0692
     68  N        -30.7780   71.0910   23.3190 N.am  198  LEU198     -0.1980
     69  CA       -29.9030   71.8670   24.1870 C.3   198  LEU198      0.1596
     70  C        -28.4530   71.5780   23.8220 C.2   198  LEU198      0.2287
     71  O        -27.6720   72.4990   23.6010 O.2   198  LEU198     -0.2864
     72  CB       -30.1470   71.5250   25.6560 C.3   198  LEU198      0.0297
     73  CG       -29.9810   72.6570   26.6760 C.3   198  LEU198      0.0022
     74  CD1      -29.8920   72.0800   28.0800 C.3   198  LEU198      0.0001
     75  CD2      -28.7610   73.5200   26.3990 C.3   198  LEU198      0.0001
     76  N        -27.6630   72.9650   20.2530 N.3   201  PHE201     -0.1241
     77  CA       -27.5100   74.4120   20.2790 C.3   201  PHE201      0.1605
     78  C        -26.2520   74.8450   21.0400 C.2   201  PHE201      0.2264
     79  O        -25.5700   75.7770   20.6220 O.2   201  PHE201     -0.2867
     80  CB       -28.7550   75.0760   20.8840 C.3   201  PHE201      0.0534
     81  CG       -30.0240   74.8300   20.1080 C.ar  201  PHE201     -0.0203
     82  CD1      -29.9900   74.5310   18.7520 C.ar  201  PHE201     -0.0042
     83  CD2      -31.2560   74.9020   20.7400 C.ar  201  PHE201     -0.0042
     84  CE1      -31.1640   74.3090   18.0440 C.ar  201  PHE201     -0.0003
     85  CE2      -32.4340   74.6790   20.0370 C.ar  201  PHE201     -0.0003
     86  CZ       -32.3880   74.3840   18.6910 C.ar  201  PHE201     -0.0000
@<TRIPOS>BOND
     1     1     2    1
     2     2     3    1
     3     2     5    1
     4     3     4    2
     5     9    10    1
     6     5     6    1
     7    10    13    1
     8    10    11    1
     9    13    14    1
    10     6     8    1
    11     6     7    1
    12    84    86   ar
    13    84    82   ar
    14    11    20   am
    15    11    12    2
    16    67    66    1
    17    20    21    1
    18    86    85   ar
    19    82    81   ar
    20    14    15   ar
    21    14    16   ar
    22    15    17   ar
    23    22    21    1
    24    22    23    2
    25    26    25    1
    26    24    21    1
    27    24    25    1
    28    25    27    1
    29    85    83   ar
    30    65    66    1
    31    65    64    1
    32    81    83   ar
    33    81    80    1
    34    76    77    1
    35    77    80    1
    36    77    78    1
    37    16    18   ar
    38    17    19   ar
    39    79    78    2
    40    28    29    1
    41    61    64    1
    42    61    60    1
    43    61    62    1
    44    63    62    2
    45    18    19   ar
    46    43    40    1
    47    62    68   am
    48    39    40    1
    49    39    30   am
    50    29    32    1
    51    29    30    1
    52    41    40    1
    53    41    42    2
    54    32    33    1
    55    30    31    2
    56    68    69    1
    57    71    70    2
    58    70    69    1
    59    55    56    1
    60    33    34   ar
    61    33    35   ar
    62    69    72    1
    63    44    45    1
    64    58    57    2
    65    34    36   ar
    66    56    57    1
    67    56    59    1
    68    35    37   ar
    69    45    46    1
    70    45    48    1
    71    72    73    1
    72    46    47    2
    73    36    38   ar
    74    48    49    1
    75    37    38   ar
    76    75    73    1
    77    73    74    1
    78    51    49   ar
    79    51    53   ar
    80    49    50   ar
    81    53    54   ar
    82    50    52   ar
    83    54    52   ar
