@<TRIPOS>MOLECULE
tmp/4i7zB02.pdb
 155 145 0 0 0
SMALL
GASTEIGER

@<TRIPOS>ATOM
      1  N        -39.7270   49.7070    1.9120 N.3    86  ILE86      -0.1245
      2  CA       -38.6940   48.7180    2.1880 C.3    86  ILE86       0.1561
      3  C        -39.2550   47.5480    2.9840 C.2    86  ILE86       0.2260
      4  O        -39.0610   46.3880    2.6190 O.2    86  ILE86      -0.2867
      5  CB       -37.5220   49.3470    2.9780 C.3    86  ILE86       0.0252
      6  CG1      -36.8030   50.3850    2.1140 C.3    86  ILE86       0.0019
      7  CG2      -36.5270   48.2780    3.4290 C.3    86  ILE86       0.0019
      8  CD1      -35.8180   51.2520    2.8710 C.3    86  ILE86       0.0001
      9  N        -32.1690   47.0030    7.3570 N.3    99  LEU99      -0.1245
     10  CA       -32.1690   48.0380    6.3320 C.3    99  LEU99       0.1561
     11  C        -32.7630   49.3320    6.8820 C.2    99  LEU99       0.2260
     12  O        -32.2840   50.4200    6.5770 O.2    99  LEU99      -0.2867
     13  CB       -32.9550   47.5730    5.1010 C.3    99  LEU99       0.0270
     14  CG       -32.2610   46.5410    4.2060 C.3    99  LEU99       0.0019
     15  CD1      -33.2500   45.9460    3.2120 C.3    99  LEU99       0.0001
     16  CD2      -31.0810   47.1650    3.4720 C.3    99  LEU99       0.0001
     17  N        -30.3760   50.7690    9.1840 N.3   102  SER102     -0.1202
     18  CA       -29.2290   51.2330    8.4100 C.3   102  SER102      0.2020
     19  C        -29.3150   52.7220    8.0910 C.2   102  SER102      0.2618
     20  O        -28.2930   53.3720    7.8670 O.2   102  SER102     -0.2717
     21  CB       -29.1040   50.4410    7.1090 C.3   102  SER102      0.2103
     22  OG       -29.0060   49.0570    7.3740 O.3   102  SER102     -0.2182
     23  N        -30.5290   53.2640    8.0670 N.am  103  VAL103     -0.1979
     24  CA       -30.7190   54.6560    7.6730 C.3   103  VAL103      0.1595
     25  C        -30.0930   55.6250    8.6840 C.2   103  VAL103      0.2287
     26  O        -29.1820   56.3740    8.3320 O.2   103  VAL103     -0.2864
     27  CB       -32.2110   54.9800    7.4280 C.3   103  VAL103      0.0276
     28  CG1      -32.4200   56.4750    7.1860 C.3   103  VAL103      0.0022
     29  CG2      -32.7260   54.1750    6.2480 C.3   103  VAL103      0.0022
     30  N        -26.2970   54.5020    9.4530 N.3   106  GLY106     -0.1210
     31  CA       -25.4410   54.8200    8.3280 C.3   106  GLY106      0.1956
     32  C        -25.1370   56.3030    8.2990 C.2   106  GLY106      0.2611
     33  O        -23.9980   56.7110    8.0530 O.2   106  GLY106     -0.2717
     34  N        -26.1630   57.1090    8.5700 N.am  107  LEU107     -0.1979
     35  CA       -26.0360   58.5630    8.5580 C.3   107  LEU107      0.1596
     36  C        -25.0460   59.0350    9.6140 C.2   107  LEU107      0.2287
     37  O        -24.3110   60.0010    9.4040 O.2   107  LEU107     -0.2864
     38  CB       -27.3940   59.2230    8.7920 C.3   107  LEU107      0.0297
     39  CG       -27.9150   60.0720    7.6340 C.3   107  LEU107      0.0022
     40  CD1      -27.9810   59.2840    6.3320 C.3   107  LEU107      0.0001
     41  CD2      -29.2800   60.6130    7.9830 C.3   107  LEU107      0.0001
     42  N        -21.5460   58.8790    8.2350 N.3   110  VAL110     -0.1245
     43  CA       -21.2070   59.8190    7.1670 C.3   110  VAL110      0.1561
     44  C        -20.0490   60.7540    7.5180 C.2   110  VAL110      0.2260
     45  O        -19.1030   60.8740    6.7420 O.2   110  VAL110     -0.2867
     46  CB       -22.4370   60.6510    6.7570 C.3   110  VAL110      0.0252
     47  CG1      -22.0610   61.7500    5.7560 C.3   110  VAL110      0.0019
     48  CG2      -23.4790   59.7380    6.1650 C.3   110  VAL110      0.0019
     49  N        -16.7170   58.9150    7.6230 N.3   113  ILE113     -0.1231
     50  CA       -16.3220   58.3890    6.3240 C.3   113  ILE113      0.1692
     51  C        -15.7480   59.5040    5.4520 C.2   113  ILE113      0.2591
     52  O        -14.7400   59.3080    4.7700 O.2   113  ILE113     -0.2718
     53  CB       -17.5100   57.7020    5.6090 C.3   113  ILE113      0.0266
     54  CG1      -17.9050   56.4260    6.3570 C.3   113  ILE113      0.0019
     55  CG2      -17.1560   57.3510    4.1680 C.3   113  ILE113      0.0020
     56  CD1      -19.2400   55.8320    5.9310 C.3   113  ILE113      0.0001
     57  N        -16.3810   60.6730    5.4890 N.am  114  GLU114     -0.1979
     58  CA       -15.9900   61.7820    4.6210 C.3   114  GLU114      0.1602
     59  C        -14.9900   62.7340    5.2750 C.2   114  GLU114      0.2287
     60  O        -14.7150   63.8080    4.7380 O.2   114  GLU114     -0.2864
     61  CB       -17.2210   62.5710    4.1760 C.3   114  GLU114      0.0415
     62  CG       -18.1990   61.7680    3.3380 C.3   114  GLU114      0.1163
     63  CD       -19.2100   62.6430    2.6220 C.2   114  GLU114      0.3649
     64  OE1      -18.8120   63.7020    2.0880 O.co2 114  GLU114     -0.2457
     65  OE2      -20.4040   62.2750    2.5950 O.co2 114  GLU114     -0.2457
     66  N        -12.0410   61.9260    5.4280 N.3   116  VAL116     -0.1231
     67  CA       -10.9310   61.7310    4.4990 C.3   116  VAL116      0.1692
     68  C        -10.6560   63.0310    3.7580 C.2   116  VAL116      0.2592
     69  O         -9.5150   63.4640    3.6260 O.2   116  VAL116     -0.2718
     70  CB       -11.2500   60.5990    3.4870 C.3   116  VAL116      0.0266
     71  CG1      -10.3560   60.6840    2.2510 C.3   116  VAL116      0.0020
     72  CG2      -11.1020   59.2420    4.1550 C.3   116  VAL116      0.0020
     73  N        -11.7290   63.6540    3.2990 N.am  117  ASN117     -0.1974
     74  CA       -11.6590   64.8910    2.5470 C.3   117  ASN117      0.1688
     75  C        -12.0050   66.0640    3.4620 C.2   117  ASN117      0.2292
     76  O        -12.7760   65.9110    4.4120 O.2   117  ASN117     -0.2864
     77  CB       -12.6420   64.8010    1.3800 C.3   117  ASN117      0.1181
     78  CG       -12.6540   66.0410    0.5250 C.2   117  ASN117      0.2629
     79  OD1      -11.7680   66.8890    0.6220 O.2   117  ASN117     -0.2716
     80  ND2      -13.6620   66.1500   -0.3320 N.am  117  ASN117     -0.0877
     81  N        -12.9930   69.1010    2.0780 N.3   119  PHE119     -0.1241
     82  CA       -13.8120   70.0130    1.2810 C.3   119  PHE119      0.1605
     83  C        -15.2490   70.0990    1.7920 C.2   119  PHE119      0.2264
     84  O        -15.7470   69.1760    2.4350 O.2   119  PHE119     -0.2867
     85  CB       -13.8080   69.5880   -0.1930 C.3   119  PHE119      0.0534
     86  CG       -12.4420   69.6240   -0.8420 C.ar  119  PHE119     -0.0203
     87  CD1      -12.0760   68.6610   -1.7690 C.ar  119  PHE119     -0.0042
     88  CD2      -11.5370   70.6290   -0.5430 C.ar  119  PHE119     -0.0042
     89  CE1      -10.8320   68.6890   -2.3700 C.ar  119  PHE119     -0.0003
     90  CE2      -10.2940   70.6660   -1.1420 C.ar  119  PHE119     -0.0003
     91  CZ        -9.9420   69.6950   -2.0580 C.ar  119  PHE119     -0.0000
     92  N        -16.5320   70.2500   -5.1970 N.3   124  ARG124     -0.1231
     93  CA       -15.1720   69.7930   -4.9220 C.3   124  ARG124      0.1694
     94  C        -15.1710   68.3820   -4.3390 C.2   124  ARG124      0.2592
     95  O        -14.1340   67.8850   -3.8940 O.2   124  ARG124     -0.2718
     96  CB       -14.4540   70.7570   -3.9730 C.3   124  ARG124      0.0321
     97  CG       -14.2390   72.1490   -4.5470 C.3   124  ARG124      0.0489
     98  CD       -13.3190   72.9760   -3.6660 C.3   124  ARG124      0.2205
     99  NE       -13.1520   74.3380   -4.1680 N.pl3 124  ARG124     -0.0865
    100  CZ       -13.9250   75.3700   -3.8350 C.cat 124  ARG124      0.5346
    101  NH1      -14.9380   75.2130   -2.9900 N.pl3 124  ARG124      0.1354
    102  NH2      -13.6860   76.5680   -4.3480 N.pl3 124  ARG124      0.1354
    103  N        -16.3380   67.7440   -4.3380 N.am  125  ARG125     -0.1966
    104  CA       -16.4490   66.3500   -3.9280 C.3   125  ARG125      0.1714
    105  C        -17.5910   65.6670   -4.6830 C.2   125  ARG125      0.2458
    106  O        -18.7090   65.5850   -4.1750 O.2   125  ARG125     -0.2730
    107  CB       -16.6270   66.2300   -2.4030 C.3   125  ARG125      0.0347
    108  CG       -17.6270   67.1850   -1.7600 C.3   125  ARG125      0.0492
    109  CD       -17.5330   67.1280   -0.2320 C.3   125  ARG125      0.2205
    110  NE       -18.5070   68.0100    0.4120 N.pl3 125  ARG125     -0.0865
    111  CZ       -19.6590   67.6200    0.9640 C.cat 125  ARG125      0.5346
    112  NH1      -20.0220   66.3420    0.9860 N.pl3 125  ARG125      0.1354
    113  NH2      -20.4600   68.5230    1.5120 N.pl3 125  ARG125      0.1354
    114  N        -17.3050   65.1660   -5.9030 N.am  126  PRO126     -0.2716
    115  CA       -18.3620   64.6520   -6.7820 C.3   126  PRO126      0.1536
    116  C        -18.7790   63.2040   -6.5090 C.2   126  PRO126      0.2598
    117  O        -19.8880   62.8110   -6.8850 O.2   126  PRO126     -0.2715
    118  CB       -17.7400   64.7700   -8.1760 C.3   126  PRO126      0.0310
    119  CG       -16.2490   64.7810   -7.9590 C.3   126  PRO126      0.0237
    120  CD       -15.9700   64.9480   -6.4880 C.3   126  PRO126      0.0939
    121  N        -17.9120   62.4250   -5.8700 N.am  127  VAL127     -0.1964
    122  CA       -18.2630   61.0620   -5.4920 C.3   127  VAL127      0.1727
    123  C        -19.3770   61.0940   -4.4550 C.2   127  VAL127      0.2616
    124  O        -20.4550   60.5150   -4.6500 O.2   127  VAL127     -0.2715
    125  CB       -17.0640   60.3190   -4.8940 C.3   127  VAL127      0.0290
    126  CG1      -17.4440   58.8830   -4.5550 C.3   127  VAL127      0.0023
    127  CG2      -15.8950   60.3510   -5.8540 C.3   127  VAL127      0.0023
    128  N        -19.1050   61.7770   -3.3490 N.am  128  ALA128     -0.1977
    129  CA       -20.0800   61.9270   -2.2860 C.3   128  ALA128      0.1597
    130  C        -21.3760   62.5180   -2.8340 C.2   128  ALA128      0.2287
    131  O        -22.4630   62.0280   -2.5290 O.2   128  ALA128     -0.2864
    132  CB       -19.5160   62.7990   -1.1840 C.3   128  ALA128      0.0319
    133  N        -23.2640   59.9540   -4.8740 N.3   131  ILE131     -0.1245
    134  CA       -23.8860   59.0110   -3.9480 C.3   131  ILE131      0.1561
    135  C        -25.0880   59.6440   -3.2330 C.2   131  ILE131      0.2260
    136  O        -26.1090   58.9850   -3.0150 O.2   131  ILE131     -0.2867
    137  CB       -22.8590   58.4930   -2.9200 C.3   131  ILE131      0.0252
    138  CG1      -21.7440   57.7300   -3.6370 C.3   131  ILE131      0.0019
    139  CG2      -23.5230   57.5770   -1.9000 C.3   131  ILE131      0.0019
    140  CD1      -20.5230   57.4890   -2.7840 C.3   131  ILE131      0.0001
    141  N        -33.2820   57.3730   -4.9850 N.3   138  VAL138     -0.1245
    142  CA       -33.8010   56.1030   -4.4910 C.3   138  VAL138      0.1561
    143  C        -34.8360   56.3340   -3.3920 C.2   138  VAL138      0.2260
    144  O        -35.8500   55.6380   -3.3230 O.2   138  VAL138     -0.2867
    145  CB       -32.6710   55.2040   -3.9530 C.3   138  VAL138      0.0252
    146  CG1      -33.2390   53.9570   -3.2770 C.3   138  VAL138      0.0019
    147  CG2      -31.7300   54.8120   -5.0790 C.3   138  VAL138      0.0019
    148  N        -38.6270   55.1300   -3.7350 N.3   142  LEU142     -0.1245
    149  CA       -39.2750   54.2410   -2.7750 C.3   142  LEU142      0.1561
    150  C        -40.5220   54.8970   -2.1910 C.2   142  LEU142      0.2260
    151  O        -41.5640   54.2520   -2.0070 O.2   142  LEU142     -0.2867
    152  CB       -38.3160   53.8880   -1.6380 C.3   142  LEU142      0.0270
    153  CG       -37.1640   52.9430   -1.9690 C.3   142  LEU142      0.0019
    154  CD1      -36.2090   52.8610   -0.7900 C.3   142  LEU142      0.0001
    155  CD2      -37.6840   51.5630   -2.3350 C.3   142  LEU142      0.0001
@<TRIPOS>BOND
     1   118   119    1
     2   118   115    1
     3   119   120    1
     4   117   116    2
     5   115   116    1
     6   115   114    1
     7   116   121   am
     8   120   114    1
     9   114   105   am
    10   121   122    1
    11   127   125    1
    12   122   125    1
    13   122   123    1
    14    92    93    1
    15   147   145    1
    16   141   142    1
    17    93    94    1
    18    93    96    1
    19   125   126    1
    20   133   134    1
    21   105   106    2
    22   105   104    1
    23   124   123    2
    24    97    96    1
    25    97    98    1
    26   142   145    1
    27   142   143    1
    28   123   128   am
    29   102   100    1
    30    94   103   am
    31    94    95    2
    32   103   104    1
    33    99   100    2
    34    99    98    1
    35   145   146    1
    36   134   135    1
    37   134   137    1
    38   104   107    1
    39   100   101    1
    40   148   149    1
    41   138   137    1
    42   138   140    1
    43   143   144    2
    44   128   129    1
    45   135   136    2
    46   137   139    1
    47   130   131    2
    48   130   129    1
    49   149   150    1
    50   149   152    1
    51   107   108    1
    52    89    91   ar
    53    89    87   ar
    54   155   153    1
    55   129   132    1
    56   150   151    2
    57    91    90   ar
    58   153   152    1
    59   153   154    1
    60    87    86   ar
    61   108   109    1
    62    90    88   ar
    63    86    88   ar
    64    86    85    1
    65    80    78   am
    66   109   110    1
    67    85    82    1
    68   110   111    2
    69    78    79    2
    70    78    77    1
    71   111   112    1
    72   111   113    1
    73    82    83    1
    74    82    81    1
    75    77    74    1
    76    83    84    2
    77     1     2    1
    78    64    63   ar
    79     6     8    1
    80     6     5    1
    81     2     5    1
    82     2     3    1
    83    71    70    1
    84    74    73    1
    85    74    75    1
    86    65    63   ar
    87     4     3    2
    88    63    62    1
    89     5     7    1
    90    15    14    1
    91    73    68   am
    92    62    61    1
    93    75    76    2
    94    16    14    1
    95    70    72    1
    96    70    67    1
    97    69    68    2
    98    68    67    1
    99    55    53    1
   100    61    58    1
   101    14    13    1
   102    67    66    1
   103    58    59    1
   104    58    57    1
   105    60    59    2
   106    52    51    2
   107    13    10    1
   108    51    57   am
   109    51    50    1
   110    53    50    1
   111    53    54    1
   112    47    46    1
   113    56    54    1
   114    48    46    1
   115    29    27    1
   116    50    49    1
   117    40    39    1
   118    10    11    1
   119    10     9    1
   120    12    11    2
   121    45    44    2
   122    46    43    1
   123    21    22    1
   124    21    18    1
   125    43    44    1
   126    43    42    1
   127    28    27    1
   128    27    24    1
   129    39    41    1
   130    39    38    1
   131    24    23    1
   132    24    25    1
   133    20    19    2
   134    33    32    2
   135    23    19   am
   136    19    18    1
   137    32    31    1
   138    32    34   am
   139    31    30    1
   140    26    25    2
   141    18    17    1
   142    35    34    1
   143    35    38    1
   144    35    36    1
   145    37    36    2
