@<TRIPOS>MOLECULE
tmp/4i81B00.pdb
 158 151 0 0 0
SMALL
GASTEIGER

@<TRIPOS>ATOM
      1  N         31.6220  -58.3700  -54.7680 N.3    15  TYR15      -0.1227
      2  CA        31.7470  -56.9470  -55.0580 C.3    15  TYR15       0.1736
      3  C         32.6690  -56.2530  -54.0570 C.2    15  TYR15       0.2595
      4  O         33.3370  -55.2740  -54.3890 O.2    15  TYR15      -0.2718
      5  CB        30.3680  -56.2830  -55.0680 C.3    15  TYR15       0.0548
      6  CG        29.4310  -56.8260  -56.1290 C.ar   15  TYR15      -0.0200
      7  CD1       28.8040  -58.0560  -55.9670 C.ar   15  TYR15      -0.0009
      8  CD2       29.1710  -56.1080  -57.2900 C.ar   15  TYR15      -0.0009
      9  CE1       27.9480  -58.5580  -56.9340 C.ar   15  TYR15       0.0417
     10  CE2       28.3150  -56.6030  -58.2610 C.ar   15  TYR15       0.0417
     11  CZ        27.7070  -57.8270  -58.0780 C.ar   15  TYR15       0.1957
     12  OH        26.8560  -58.3200  -59.0410 O.3    15  TYR15      -0.2866
     13  N         32.7050  -56.7680  -52.8330 N.am   16  VAL16      -0.1966
     14  CA        33.5750  -56.2150  -51.8020 C.3    16  VAL16       0.1727
     15  C         34.5650  -57.2640  -51.3050 C.2    16  VAL16       0.2616
     16  O         34.2140  -58.4310  -51.1360 O.2    16  VAL16      -0.2715
     17  CB        32.7640  -55.6700  -50.6100 C.3    16  VAL16       0.0290
     18  CG1       33.6940  -55.1290  -49.5380 C.3    16  VAL16       0.0023
     19  CG2       31.8010  -54.5910  -51.0770 C.3    16  VAL16       0.0023
     20  N         35.8040  -56.8420  -51.0810 N.am   17  ILE17      -0.1977
     21  CA        36.8450  -57.7400  -50.6000 C.3    17  ILE17       0.1596
     22  C         37.1280  -57.4920  -49.1250 C.2    17  ILE17       0.2287
     23  O         37.2740  -56.3490  -48.6970 O.2    17  ILE17      -0.2864
     24  CB        38.1460  -57.5680  -51.4000 C.3    17  ILE17       0.0276
     25  CG1       37.8850  -57.8040  -52.8890 C.3    17  ILE17       0.0022
     26  CG2       39.2200  -58.5140  -50.8850 C.3    17  ILE17       0.0022
     27  CD1       39.0790  -57.5210  -53.7690 C.3    17  ILE17       0.0001
     28  N         36.3360  -57.3130  -45.0840 N.3    19  GLN19      -0.1245
     29  CA        35.2240  -56.7530  -44.3190 C.3    19  GLN19       0.1566
     30  C         34.1640  -57.8040  -44.0020 C.2    19  GLN19       0.2260
     31  O         32.9820  -57.4860  -43.8700 O.2    19  GLN19      -0.2867
     32  CB        34.5830  -55.5920  -45.0830 C.3    19  GLN19       0.0367
     33  CG        35.5740  -54.6540  -45.7640 C.3    19  GLN19       0.0905
     34  CD        36.5040  -53.9590  -44.7860 C.2    19  GLN19       0.2608
     35  OE1       36.5530  -54.2980  -43.6060 O.2    19  GLN19      -0.2717
     36  NE2       37.2520  -52.9810  -45.2780 N.am   19  GLN19      -0.0878
     37  N         38.0880  -43.9850  -44.8290 N.3    59  THR59      -0.1203
     38  CA        37.6470  -43.5620  -46.1530 C.3    59  THR59       0.1994
     39  C         38.1680  -44.5080  -47.2290 C.2    59  THR59       0.2618
     40  O         39.3270  -44.9250  -47.1980 O.2    59  THR59      -0.2717
     41  CB        38.1010  -42.1240  -46.4740 C.3    59  THR59       0.1784
     42  OG1       37.6330  -41.2310  -45.4550 O.3    59  THR59      -0.2211
     43  CG2       37.5490  -41.6800  -47.8230 C.3    59  THR59       0.0376
     44  N         37.3030  -44.8440  -48.1790 N.am   60  GLY60      -0.1942
     45  CA        37.6640  -45.7480  -49.2530 C.3    60  GLY60       0.2014
     46  C         37.7340  -47.1890  -48.7880 C.2    60  GLY60       0.2640
     47  O         38.4310  -48.0100  -49.3850 O.2    60  GLY60      -0.2714
     48  N         37.0110  -47.4980  -47.7160 N.am   61  SER61      -0.1935
     49  CA        36.9920  -48.8480  -47.1650 C.3    61  SER61       0.2055
     50  C         35.9630  -49.7240  -47.8730 C.2    61  SER61       0.2644
     51  O         36.1400  -50.9380  -47.9810 O.2    61  SER61      -0.2714
     52  CB        36.7080  -48.8090  -45.6620 C.3    61  SER61       0.2130
     53  OG        35.4690  -48.1760  -45.3910 O.3    61  SER61      -0.2179
     54  N         34.8870  -49.1050  -48.3500 N.am   62  GLY62      -0.1939
     55  CA        33.8530  -49.8240  -49.0720 C.3    62  GLY62       0.2014
     56  C         32.4610  -49.6020  -48.5120 C.2    62  GLY62       0.2639
     57  O         31.5290  -50.3350  -48.8430 O.2    62  GLY62      -0.2714
     58  N         32.3190  -48.5880  -47.6630 N.am   63  LYS63      -0.1963
     59  CA        31.0320  -48.2820  -47.0500 C.3    63  LYS63       0.1728
     60  C         29.9620  -48.0130  -48.1040 C.2    63  LYS63       0.2617
     61  O         28.9320  -48.6840  -48.1380 O.2    63  LYS63      -0.2715
     62  CB        31.1560  -47.0940  -46.0920 C.3    63  LYS63       0.0311
     63  CG        32.0070  -47.3830  -44.8650 C.3    63  LYS63       0.0038
     64  CD        31.9100  -46.2750  -43.8240 C.3    63  LYS63       0.0206
     65  CE        32.5280  -44.9810  -44.3220 C.3    63  LYS63       0.1093
     66  NZ        33.9350  -45.1640  -44.7720 N.3    63  LYS63      -0.1314
     67  N         30.2160  -47.0340  -48.9660 N.am   64  THR64      -0.1937
     68  CA        29.2830  -46.6970  -50.0350 C.3    64  THR64       0.2028
     69  C         29.0330  -47.8900  -50.9570 C.2    64  THR64       0.2642
     70  O         27.9080  -48.1130  -51.4060 O.2    64  THR64      -0.2714
     71  CB        29.7850  -45.5030  -50.8670 C.3    64  THR64       0.1808
     72  OG1       29.8690  -44.3410  -50.0340 O.3    64  THR64      -0.2208
     73  CG2       28.8360  -45.2220  -52.0230 C.3    64  THR64       0.0379
     74  N         30.0840  -48.6570  -51.2310 N.am   65  LEU65      -0.1977
     75  CA        29.9740  -49.8190  -52.1060 C.3    65  LEU65       0.1596
     76  C         29.0580  -50.8810  -51.5090 C.2    65  LEU65       0.2287
     77  O         28.2590  -51.4940  -52.2160 O.2    65  LEU65      -0.2864
     78  CB        31.3550  -50.4140  -52.3850 C.3    65  LEU65       0.0297
     79  CG        31.3810  -51.6590  -53.2730 C.3    65  LEU65       0.0022
     80  CD1       30.6810  -51.3850  -54.5960 C.3    65  LEU65       0.0001
     81  CD2       32.8090  -52.1320  -53.5050 C.3    65  LEU65       0.0001
     82  N         21.4240  -44.3000  -47.8490 N.3   115  TYR115     -0.1241
     83  CA        22.7580  -44.1850  -47.2740 C.3   115  TYR115      0.1605
     84  C         23.1270  -42.7280  -47.0300 C.2   115  TYR115      0.2264
     85  O         23.0890  -41.9050  -47.9450 O.2   115  TYR115     -0.2867
     86  CB        23.7940  -44.8410  -48.1870 C.3   115  TYR115      0.0534
     87  CG        25.2060  -44.8130  -47.6430 C.ar  115  TYR115     -0.0201
     88  CD1       25.6820  -45.8410  -46.8440 C.ar  115  TYR115     -0.0009
     89  CD2       26.0650  -43.7600  -47.9330 C.ar  115  TYR115     -0.0009
     90  CE1       26.9720  -45.8230  -46.3460 C.ar  115  TYR115      0.0417
     91  CE2       27.3550  -43.7340  -47.4390 C.ar  115  TYR115      0.0417
     92  CZ        27.8030  -44.7680  -46.6460 C.ar  115  TYR115      0.1957
     93  OH        29.0860  -44.7480  -46.1520 O.3   115  TYR115     -0.2866
     94  N         26.1230  -40.2950  -45.9880 N.3   117  ASP117     -0.1225
     95  CA        27.5760  -40.2630  -45.8940 C.3   117  ASP117      0.1805
     96  C         28.0550  -39.1830  -44.9270 C.2   117  ASP117      0.2597
     97  O         27.3560  -38.2000  -44.6790 O.2   117  ASP117     -0.2718
     98  CB        28.1840  -40.0490  -47.2820 C.3   117  ASP117      0.1424
     99  CG        29.6650  -40.3650  -47.3280 C.2   117  ASP117      0.3668
    100  OD1       30.1820  -40.9630  -46.3600 O.co2 117  ASP117     -0.2456
    101  OD2       30.3120  -40.0190  -48.3380 O.co2 117  ASP117     -0.2456
    102  N         29.2470  -39.3840  -44.3750 N.am  118  GLN118     -0.1979
    103  CA        29.8700  -38.4120  -43.4810 C.3   118  GLN118      0.1601
    104  C         28.9860  -38.0030  -42.3030 C.2   118  GLN118      0.2287
    105  O         28.8240  -36.8150  -42.0230 O.2   118  GLN118     -0.2864
    106  CB        30.3200  -37.1760  -44.2640 C.3   118  GLN118      0.0394
    107  CG        31.4570  -37.4520  -45.2340 C.3   118  GLN118      0.0908
    108  CD        31.8500  -36.2300  -46.0350 C.2   118  GLN118      0.2608
    109  OE1       31.0280  -35.3500  -46.2840 O.2   118  GLN118     -0.2717
    110  NE2       33.1100  -36.1730  -46.4490 N.am  118  GLN118     -0.0878
    111  N         30.4800  -43.1170  -42.2810 N.3   152  GLY152     -0.1210
    112  CA        31.3340  -42.1470  -41.6230 C.3   152  GLY152      0.1956
    113  C         32.6590  -42.7600  -41.2220 C.2   152  GLY152      0.2611
    114  O         32.7280  -43.9360  -40.8690 O.2   152  GLY152     -0.2717
    115  N         33.7180  -41.9600  -41.2770 N.am  153  ALA153     -0.1979
    116  CA        35.0490  -42.4400  -40.9290 C.3   153  ALA153      0.1597
    117  C         35.2770  -42.3950  -39.4230 C.2   153  ALA153      0.2287
    118  O         35.9350  -43.2710  -38.8610 O.2   153  ALA153     -0.2864
    119  CB        36.1120  -41.6310  -41.6560 C.3   153  ALA153      0.0319
    120  N         42.0670  -51.2960  -45.5110 N.3   204  LEU204     -0.1245
    121  CA        42.4730  -52.1350  -46.6340 C.3   204  LEU204      0.1561
    122  C         43.9460  -52.5230  -46.5560 C.2   204  LEU204      0.2260
    123  O         44.7480  -51.8350  -45.9200 O.2   204  LEU204     -0.2867
    124  CB        42.1820  -51.4280  -47.9580 C.3   204  LEU204      0.0270
    125  CG        40.7120  -51.0950  -48.2200 C.3   204  LEU204      0.0019
    126  CD1       40.5770  -50.2180  -49.4510 C.3   204  LEU204      0.0001
    127  CD2       39.8870  -52.3630  -48.3680 C.3   204  LEU204      0.0001
    128  N         41.7020  -55.4870  -55.8140 N.3   212  ILE212     -0.1245
    129  CA        40.7750  -54.4270  -56.1960 C.3   212  ILE212      0.1561
    130  C         41.0910  -53.9230  -57.6020 C.2   212  ILE212      0.2260
    131  O         40.2000  -53.4950  -58.3360 O.2   212  ILE212     -0.2867
    132  CB        40.8250  -53.2450  -55.2090 C.3   212  ILE212      0.0252
    133  CG1       40.4260  -53.7020  -53.8050 C.3   212  ILE212      0.0019
    134  CG2       39.9180  -52.1180  -55.6730 C.3   212  ILE212      0.0019
    135  CD1       40.5050  -52.6080  -52.7600 C.3   212  ILE212      0.0001
    136  N         37.5310  -57.3910  -59.4620 N.3   216  PRO216     -0.2116
    137  CA        36.2120  -56.8450  -59.8040 C.3   216  PRO216      0.1372
    138  C         35.9890  -56.7350  -61.3080 C.2   216  PRO216      0.2244
    139  O         36.9400  -56.5450  -62.0660 O.2   216  PRO216     -0.2868
    140  CB        36.2360  -55.4530  -59.1700 C.3   216  PRO216      0.0268
    141  CG        37.1820  -55.5820  -58.0340 C.3   216  PRO216      0.0207
    142  CD        38.2450  -56.5360  -58.4980 C.3   216  PRO216      0.0892
    143  N         41.4080  -46.9580  -51.2260 N.3   256  ALA256     -0.1231
    144  CA        41.0850  -47.4280  -52.5680 C.3   256  ALA256      0.1694
    145  C         40.5800  -46.2830  -53.4350 C.2   256  ALA256      0.2591
    146  O         40.3960  -46.4380  -54.6420 O.2   256  ALA256     -0.2718
    147  CB        40.0540  -48.5390  -52.5040 C.3   256  ALA256      0.0304
    148  N         40.3530  -45.1340  -52.8080 N.am  257  ARG257     -0.1980
    149  CA        39.8700  -43.9530  -53.5130 C.3   257  ARG257      0.1597
    150  C         41.0010  -43.2800  -54.2810 C.2   257  ARG257      0.2287
    151  O         40.7620  -42.5110  -55.2130 O.2   257  ARG257     -0.2864
    152  CB        39.2500  -42.9620  -52.5250 C.3   257  ARG257      0.0334
    153  CG        37.9090  -43.4230  -51.9510 C.3   257  ARG257      0.0492
    154  CD        36.7600  -43.3620  -52.9620 C.3   257  ARG257      0.2205
    155  NE        35.4710  -43.7010  -52.3480 N.pl3 257  ARG257     -0.0865
    156  CZ        35.0190  -44.9450  -52.3320 C.cat 257  ARG257      0.5346
    157  NH1       35.7210  -45.9620  -52.8340 N.pl3 257  ARG257      0.1354
    158  NH2       33.8420  -45.1980  -51.7750 N.pl3 257  ARG257      0.1354
@<TRIPOS>BOND
     1   139   138    2
     2   138   137    1
     3   137   136    1
     4   137   140    1
     5   136   142    1
     6   140   141    1
     7    12    11    1
     8   142   141    1
     9   131   130    2
    10    10    11   ar
    11    10     8   ar
    12    11     9   ar
    13   130   129    1
    14     8     6   ar
    15     9     7   ar
    16   129   128    1
    17   129   132    1
    18     6     7   ar
    19     6     5    1
    20   134   132    1
    21   151   150    2
    22   132   133    1
    23     5     2    1
    24     2     1    1
    25     2     3    1
    26   146   145    2
    27    80    79    1
    28     4     3    2
    29   150   149    1
    30     3    13   am
    31   133   135    1
    32    27    25    1
    33   149   148    1
    34   149   152    1
    35    81    79    1
    36   145   148   am
    37   145   144    1
    38    79    78    1
    39   154   155    1
    40   154   153    1
    41    25    24    1
    42   157   156    1
    43    13    14    1
    44   144   147    1
    45   144   143    1
    46   152   153    1
    47    78    75    1
    48   155   156    2
    49   156   158    1
    50    77    76    2
    51    75    76    1
    52    75    74    1
    53    73    71    1
    54    14    15    1
    55    14    17    1
    56    70    69    2
    57    24    26    1
    58    24    21    1
    59    15    16    2
    60    15    20   am
    61    74    69   am
    62    20    21    1
    63    19    17    1
    64    69    68    1
    65    71    68    1
    66    71    72    1
    67    17    18    1
    68    21    22    1
    69    68    67    1
    70   126   125    1
    71    47    46    2
    72    45    46    1
    73    45    44    1
    74    22    23    2
    75    55    56    1
    76    55    54    1
    77    67    60   am
    78    57    56    2
    79    46    48   am
    80    56    58   am
    81   127   125    1
    82    54    50   am
    83   101    99   ar
    84   125   124    1
    85    86    87    1
    86    86    83    1
    87    44    39   am
    88    61    60    2
    89    60    59    1
    90    51    50    2
    91   124   121    1
    92    85    84    2
    93    89    87   ar
    94    89    91   ar
    95    50    49    1
    96    82    83    1
    97    43    41    1
    98    48    49    1
    99    58    59    1
   100    87    88   ar
   101    91    92   ar
   102    99    98    1
   103    99   100   ar
   104    98    95    1
   105    83    84    1
   106    39    40    2
   107    39    38    1
   108    49    52    1
   109    59    62    1
   110    88    90   ar
   111    92    90   ar
   112    92    93    1
   113   121   122    1
   114   121   120    1
   115   122   123    2
   116    41    38    1
   117    41    42    1
   118   110   108   am
   119   109   108    2
   120    38    37    1
   121    62    63    1
   122   108   107    1
   123    94    95    1
   124    95    96    1
   125    33    32    1
   126    33    34    1
   127    52    53    1
   128    36    34   am
   129   107   106    1
   130    28    29    1
   131    32    29    1
   132    96    97    2
   133    96   102   am
   134    63    64    1
   135    34    35    2
   136    66    65    1
   137   102   103    1
   138    65    64    1
   139    29    30    1
   140   106   103    1
   141    30    31    2
   142   103   104    1
   143   104   105    2
   144   111   112    1
   145   119   116    1
   146   112   113    1
   147   115   113   am
   148   115   116    1
   149   113   114    2
   150   116   117    1
   151   117   118    2
