@<TRIPOS>MOLECULE
tmp/4i87B00.pdb
 77 70 0 0 0
SMALL
GASTEIGER

@<TRIPOS>ATOM
      1  N         23.4600   31.1710   65.8120 N.3     4  MET4       -0.1245
      2  CA        22.2680   31.9850   65.9280 C.3     4  MET4        0.1570
      3  C         21.7730   32.2890   64.5220 C.2     4  MET4        0.2261
      4  O         22.5560   32.2960   63.5730 O.2     4  MET4       -0.2867
      5  CB        22.6160   33.2850   66.6720 C.3     4  MET4        0.0387
      6  CG        21.7120   34.4640   66.3480 C.3     4  MET4        0.0595
      7  SD        22.2500   36.0130   67.1250 S.3     4  MET4       -0.1393
      8  CE        21.5860   37.2390   65.9880 C.3     4  MET4        0.0692
      9  N         19.1890   35.1150   62.3790 N.3     6  LYS6       -0.1245
     10  CA        18.3960   36.3490   62.4680 C.3     6  LYS6        0.1561
     11  C         17.7700   36.6380   61.1090 C.2     6  LYS6        0.2260
     12  O         18.4690   36.5970   60.0960 O.2     6  LYS6       -0.2867
     13  CB        19.2670   37.5270   62.8840 C.3     6  LYS6        0.0271
     14  CG        18.4820   38.8380   62.8560 C.3     6  LYS6        0.0035
     15  CD        18.7920   39.7600   64.0370 C.3     6  LYS6        0.0206
     16  CE        17.6520   40.7630   64.2480 C.3     6  LYS6        0.1093
     17  NZ        17.8470   41.5730   65.4900 N.3     6  LYS6       -0.1314
     18  N         15.0990   39.0780   58.7560 N.3     8  LEU8       -0.1245
     19  CA        14.4240   40.3660   58.5880 C.3     8  LEU8        0.1561
     20  C         13.5250   40.3480   57.3670 C.2     8  LEU8        0.2260
     21  O         13.7360   39.5640   56.4270 O.2     8  LEU8       -0.2867
     22  CB        15.4340   41.4950   58.3990 C.3     8  LEU8        0.0270
     23  CG        16.4540   41.6530   59.5270 C.3     8  LEU8        0.0019
     24  CD1       17.4500   42.7470   59.2080 C.3     8  LEU8        0.0001
     25  CD2       15.7760   41.8910   60.8840 C.3     8  LEU8        0.0001
     26  N         26.6750   33.6860   63.2940 N.3    97  THR97      -0.1218
     27  CA        25.3300   34.1970   63.0750 C.3    97  THR97       0.1862
     28  C         25.0390   34.1190   61.5810 C.2    97  THR97       0.2287
     29  O         25.8380   34.5790   60.7640 O.2    97  THR97      -0.2866
     30  CB        25.1860   35.6410   63.5260 C.3    97  THR97       0.1770
     31  OG1       25.2950   35.6840   64.9520 O.3    97  THR97      -0.2211
     32  CG2       23.8090   36.1940   63.1110 C.3    97  THR97       0.0375
     33  N         22.4440   35.4770   58.9760 N.3    99  ALA99      -0.1231
     34  CA        21.4620   36.5440   58.8950 C.3    99  ALA99       0.1694
     35  C         20.8430   36.4950   57.5050 C.2    99  ALA99       0.2592
     36  O         21.5410   36.2150   56.5290 O.2    99  ALA99      -0.2718
     37  CB        22.1290   37.8790   59.1420 C.3    99  ALA99       0.0304
     38  N         19.5380   36.7210   57.4140 N.am  100  ALA100     -0.1966
     39  CA        18.8410   36.6660   56.1240 C.3   100  ALA100      0.1728
     40  C         17.8540   37.8170   56.0190 C.2   100  ALA100      0.2616
     41  O         17.2120   38.1690   57.0080 O.2   100  ALA100     -0.2715
     42  CB        18.1050   35.3530   55.9870 C.3   100  ALA100      0.0334
     43  N         17.7510   38.3940   54.8180 N.am  101  LEU101     -0.1977
     44  CA        16.8170   39.4760   54.5440 C.3   101  LEU101      0.1596
     45  C         15.8550   38.9660   53.4620 C.2   101  LEU101      0.2287
     46  O         16.2960   38.5740   52.3690 O.2   101  LEU101     -0.2864
     47  CB        17.5970   40.7090   54.0470 C.3   101  LEU101      0.0297
     48  CG        16.7220   41.8850   53.5930 C.3   101  LEU101      0.0022
     49  CD1       15.8700   42.4100   54.7380 C.3   101  LEU101      0.0001
     50  CD2       17.5940   43.0030   53.0300 C.3   101  LEU101      0.0001
     51  N         18.6070   37.6830   50.6270 N.3   108  SER108     -0.1202
     52  CA        20.0360   37.8990   50.8010 C.3   108  SER108      0.2020
     53  C         20.4410   37.2520   52.1140 C.2   108  SER108      0.2619
     54  O         19.6510   37.2210   53.0660 O.2   108  SER108     -0.2717
     55  CB        20.3370   39.3960   50.8640 C.3   108  SER108      0.2103
     56  OG        19.9420   40.0600   49.6710 O.3   108  SER108     -0.2182
     57  N         21.6650   36.7440   52.1830 N.am  109  THR109     -0.1938
     58  CA        22.1340   36.1470   53.4230 C.3   109  THR109      0.2028
     59  C         23.6100   36.4470   53.6090 C.2   109  THR109      0.2642
     60  O         24.3500   36.5500   52.6200 O.2   109  THR109     -0.2714
     61  CB        21.8340   34.6360   53.4740 C.3   109  THR109      0.1808
     62  OG1       22.1740   34.1450   54.7690 O.3   109  THR109     -0.2208
     63  CG2       22.6530   33.8940   52.4450 C.3   109  THR109      0.0379
     64  N         24.0260   36.6500   54.8620 N.am  110  THR110     -0.1950
     65  CA        25.4330   36.8880   55.1540 C.3   110  THR110      0.1897
     66  C         25.7980   36.1490   56.4280 C.2   110  THR110      0.2313
     67  O         24.9180   35.7200   57.1700 O.2   110  THR110     -0.2863
     68  CB        25.7860   38.4100   55.2380 C.3   110  THR110      0.1794
     69  OG1       27.2200   38.5750   55.2710 O.3   110  THR110     -0.2208
     70  CG2       25.1550   39.0700   56.4790 C.3   110  THR110      0.0378
     71  N         28.0670   36.2500   60.0380 N.3   112  VAL112     -0.1245
     72  CA        28.8080   37.1150   60.9630 C.3   112  VAL112      0.1561
     73  C         29.4700   36.1870   61.9560 C.2   112  VAL112      0.2260
     74  O         28.7880   35.5510   62.7650 O.2   112  VAL112     -0.2867
     75  CB        27.8830   38.0960   61.7000 C.3   112  VAL112      0.0252
     76  CG1       28.6920   39.0570   62.5820 C.3   112  VAL112      0.0019
     77  CG2       27.0300   38.8880   60.6840 C.3   112  VAL112      0.0019
@<TRIPOS>BOND
     1    56    55    1
     2    51    52    1
     3    52    55    1
     4    52    53    1
     5    53    57   am
     6    53    54    2
     7    57    58    1
     8    46    45    2
     9    63    61    1
    10    60    59    2
    11    50    48    1
    12    58    61    1
    13    58    59    1
    14    45    44    1
    15    61    62    1
    16    48    47    1
    17    48    49    1
    18    59    64   am
    19    47    44    1
    20    44    43    1
    21    43    40   am
    22    64    65    1
    23    65    68    1
    24    65    66    1
    25    68    69    1
    26    68    70    1
    27    42    39    1
    28    40    39    1
    29    40    41    2
    30    39    38    1
    31    21    20    2
    32    66    67    2
    33    36    35    2
    34    20    19    1
    35    38    35   am
    36    35    34    1
    37    22    19    1
    38    22    23    1
    39    19    18    1
    40    34    33    1
    41    34    37    1
    42    24    23    1
    43    23    25    1
    44    71    72    1
    45    12    11    2
    46    77    75    1
    47    29    28    2
    48    72    75    1
    49    72    73    1
    50    11    10    1
    51    28    27    1
    52    75    76    1
    53    73    74    2
    54     9    10    1
    55    10    13    1
    56    14    13    1
    57    14    15    1
    58    27    26    1
    59    27    30    1
    60    32    30    1
    61    30    31    1
    62     4     3    2
    63    15    16    1
    64    16    17    1
    65     3     2    1
    66     1     2    1
    67     2     5    1
    68     8     7    1
    69     6     5    1
    70     6     7    1
