@<TRIPOS>MOLECULE
tmp/4i8cC00.pdb
 106 105 0 0 0
SMALL
GASTEIGER

@<TRIPOS>ATOM
      1  N         60.7800   21.1420   24.9010 N.3    19  TYR19      -0.1241
      2  CA        61.5800   20.6360   23.7920 C.3    19  TYR19       0.1605
      3  C         62.1920   21.7770   22.9940 C.2    19  TYR19       0.2264
      4  O         62.9550   22.5580   23.5440 O.2    19  TYR19      -0.2867
      5  CB        60.7390   19.6960   22.9320 C.3    19  TYR19       0.0534
      6  CG        60.2060   18.5410   23.7540 C.ar   19  TYR19      -0.0201
      7  CD1       59.0440   18.6700   24.5110 C.ar   19  TYR19      -0.0009
      8  CD2       60.8820   17.3360   23.8070 C.ar   19  TYR19      -0.0009
      9  CE1       58.5710   17.6190   25.2810 C.ar   19  TYR19       0.0417
     10  CE2       60.4130   16.2800   24.5710 C.ar   19  TYR19       0.0417
     11  CZ        59.2600   16.4240   25.3030 C.ar   19  TYR19       0.1957
     12  OH        58.8150   15.3600   26.0580 O.3    19  TYR19      -0.2866
     13  N         69.1000   19.4070   23.6130 N.3    24  MET24      -0.1245
     14  CA        69.1690   18.3010   24.5850 C.3    24  MET24       0.1570
     15  C         70.5140   18.1630   25.3250 C.2    24  MET24       0.2261
     16  O         70.5400   17.8410   26.5170 O.2    24  MET24      -0.2867
     17  CB        68.7900   16.9660   23.9260 C.3    24  MET24       0.0387
     18  CG        67.4110   16.9460   23.2710 C.3    24  MET24       0.0595
     19  SD        66.9780   15.3580   22.5080 S.3    24  MET24      -0.1393
     20  CE        66.7470   14.3190   23.9400 C.3    24  MET24       0.0692
     21  N         54.4740   11.0370   23.3920 N.3    97  TRP97      -0.1241
     22  CA        55.3960   10.3280   22.4930 C.3    97  TRP97       0.1605
     23  C         56.1780    9.2930   23.2920 C.2    97  TRP97       0.2264
     24  O         56.4700    8.2090   22.7950 O.2    97  TRP97      -0.2867
     25  CB        56.3540   11.3000   21.8210 C.3    97  TRP97       0.0550
     26  CG        57.2470   11.9420   22.8020 C.ar   97  TRP97       0.0003
     27  CD1       56.9960   13.0790   23.5080 C.ar   97  TRP97       0.0946
     28  CD2       58.5460   11.4840   23.2180 C.ar   97  TRP97       0.0152
     29  NE1       58.0520   13.3620   24.3410 N.ar   97  TRP97      -0.2442
     30  CE2       59.0270   12.3910   24.1830 C.ar   97  TRP97       0.0810
     31  CE3       59.3560   10.3860   22.8710 C.ar   97  TRP97       0.0012
     32  CZ2       60.2730   12.2530   24.8040 C.ar   97  TRP97       0.0191
     33  CZ3       60.5880   10.2440   23.4930 C.ar   97  TRP97       0.0001
     34  CH2       61.0320   11.1730   24.4460 C.ar   97  TRP97       0.0015
     35  N         65.2730   14.3160   28.7490 N.3   134  ARG134     -0.1245
     36  CA        64.0440   15.0420   29.0420 C.3   134  ARG134      0.1563
     37  C         62.8690   14.1090   28.7500 C.2   134  ARG134      0.2260
     38  O         62.9870   13.2370   27.8900 O.2   134  ARG134     -0.2867
     39  CB        63.9790   16.3350   28.2180 C.3   134  ARG134      0.0307
     40  CG        63.9010   16.1420   26.7250 C.3   134  ARG134      0.0489
     41  CD        64.1820   17.4520   26.0220 C.3   134  ARG134      0.2205
     42  NE        63.9590   17.3570   24.5820 N.pl3 134  ARG134     -0.0865
     43  CZ        64.3310   18.2840   23.6990 C.cat 134  ARG134      0.5346
     44  NH1       64.9610   19.3750   24.1050 N.pl3 134  ARG134      0.1354
     45  NH2       64.0780   18.1090   22.4040 N.pl3 134  ARG134      0.1354
     46  N         60.5490   21.2250   12.6030 N.3   379  TYR379     -0.1241
     47  CA        59.8570   20.3940   13.5880 C.3   379  TYR379      0.1605
     48  C         58.3540   20.6500   13.5530 C.2   379  TYR379      0.2264
     49  O         57.5560   19.7340   13.7830 O.2   379  TYR379     -0.2867
     50  CB        60.4450   20.5840   14.9840 C.3   379  TYR379      0.0534
     51  CG        61.8100   19.9540   15.1000 C.ar  379  TYR379     -0.0201
     52  CD1       62.0730   18.7270   14.5090 C.ar  379  TYR379     -0.0009
     53  CD2       62.8450   20.5930   15.7640 C.ar  379  TYR379     -0.0009
     54  CE1       63.3240   18.1370   14.5940 C.ar  379  TYR379      0.0417
     55  CE2       64.1070   20.0120   15.8540 C.ar  379  TYR379      0.0417
     56  CZ        64.3420   18.7770   15.2660 C.ar  379  TYR379      0.1957
     57  OH        65.5880   18.1740   15.3440 O.3   379  TYR379     -0.2866
     58  N         67.1570    7.7590   16.6510 N.3   395  TRP395     -0.1241
     59  CA        67.5280    8.5010   17.8620 C.3   395  TRP395      0.1605
     60  C         68.6670    7.8590   18.6300 C.2   395  TRP395      0.2264
     61  O         69.2130    8.4420   19.5570 O.2   395  TRP395     -0.2867
     62  CB        66.3060    8.6700   18.7900 C.3   395  TRP395      0.0550
     63  CG        65.1360    9.4740   18.2000 C.ar  395  TRP395      0.0003
     64  CD1       65.1590   10.2790   17.0930 C.ar  395  TRP395      0.0946
     65  CD2       63.7910    9.5360   18.7060 C.ar  395  TRP395      0.0152
     66  NE1       63.9210   10.8340   16.8810 N.ar  395  TRP395     -0.2442
     67  CE2       63.0590   10.3960   17.8570 C.ar  395  TRP395      0.0810
     68  CE3       63.1340    8.9520   19.8010 C.ar  395  TRP395      0.0012
     69  CZ2       61.6960   10.6820   18.0610 C.ar  395  TRP395      0.0191
     70  CZ3       61.7770    9.2420   20.0000 C.ar  395  TRP395      0.0001
     71  CH2       61.0810   10.0980   19.1340 C.ar  395  TRP395      0.0015
     72  N         66.7190    4.9460   22.8360 N.3   399  TYR399     -0.1241
     73  CA        65.4660    5.1350   22.1060 C.3   399  TYR399      0.1605
     74  C         65.1470    4.0830   21.0410 C.2   399  TYR399      0.2264
     75  O         63.9770    3.7450   20.8430 O.2   399  TYR399     -0.2867
     76  CB        65.4780    6.4730   21.3880 C.3   399  TYR399      0.0534
     77  CG        65.6640    7.6860   22.2440 C.ar  399  TYR399     -0.0201
     78  CD1       66.9180    8.2510   22.4220 C.ar  399  TYR399     -0.0009
     79  CD2       64.5810    8.3140   22.8220 C.ar  399  TYR399     -0.0009
     80  CE1       67.0860    9.4060   23.1850 C.ar  399  TYR399      0.0417
     81  CE2       64.7380    9.4630   23.5890 C.ar  399  TYR399      0.0417
     82  CZ        65.9890   10.0030   23.7690 C.ar  399  TYR399      0.1957
     83  OH        66.1270   11.1430   24.5350 O.3   399  TYR399     -0.2866
     84  N         54.8530   13.5510   16.8320 N.3   412  SER412     -0.1202
     85  CA        56.1050   13.7960   17.5510 C.3   412  SER412      0.2020
     86  C         57.1090   14.3720   16.5640 C.2   412  SER412      0.2618
     87  O         57.2530   15.5890   16.4420 O.2   412  SER412     -0.2717
     88  CB        56.6290   12.4860   18.1470 C.3   412  SER412      0.2103
     89  OG        57.7340   12.7190   19.0010 O.3   412  SER412     -0.2182
     90  N         57.8010   13.4790   15.8660 N.am  413  HIS413     -0.1975
     91  CA        58.5870   13.8520   14.6950 C.3   413  HIS413      0.1656
     92  C         57.7310   13.5320   13.4560 C.2   413  HIS413      0.2291
     93  O         56.5140   13.4440   13.5780 O.2   413  HIS413     -0.2864
     94  CB        59.9440   13.1230   14.6980 C.3   413  HIS413      0.0771
     95  CG        60.9160   13.6710   15.7020 C.ar  413  HIS413      0.0820
     96  ND1       62.0320   14.4010   15.3370 N.ar  413  HIS413     -0.2267
     97  CD2       60.9280   13.6170   17.0560 C.ar  413  HIS413      0.1154
     98  CE1       62.6930   14.7680   16.4250 C.ar  413  HIS413      0.1986
     99  NE2       62.0490   14.2990   17.4780 N.ar  413  HIS413     -0.2212
    100  N         72.4750   12.0440   22.1940 N.3   487  THR487     -0.1218
    101  CA        72.2650   13.4910   22.2750 C.3   487  THR487      0.1862
    102  C         73.1300   14.1900   23.3210 C.2   487  THR487      0.2287
    103  O         73.2250   15.4180   23.3240 O.2   487  THR487     -0.2866
    104  CB        70.8000   13.8340   22.5200 C.3   487  THR487      0.1770
    105  OG1       70.1190   12.6880   23.0590 O.3   487  THR487     -0.2211
    106  CG2       70.1430   14.2410   21.2130 C.3   487  THR487      0.0375
@<TRIPOS>BOND
     1    46    47    1
     2    92    93    2
     3    92    91    1
     4    48    47    1
     5    48    49    2
     6    47    50    1
     7    52    54   ar
     8    52    51   ar
     9    54    56   ar
    10    91    94    1
    11    91    90    1
    12    94    95    1
    13    50    51    1
    14    51    53   ar
    15    56    57    1
    16    56    55   ar
    17    96    95   ar
    18    96    98   ar
    19    95    97   ar
    20    53    55   ar
    21    90    86   am
    22    98    99   ar
    23    87    86    2
    24    86    85    1
    25    58    59    1
    26    84    85    1
    27    66    64   ar
    28    66    67   ar
    29    97    99   ar
    30    64    63   ar
    31    85    88    1
    32    67    69   ar
    33    67    65   ar
    34    59    60    1
    35    59    62    1
    36    69    71   ar
    37    88    89    1
    38    63    65   ar
    39    63    62    1
    40    60    61    2
    41    65    68   ar
    42    71    70   ar
    43    68    70   ar
    44    75    74    2
    45    74    73    1
    46   106   104    1
    47    76    73    1
    48    76    77    1
    49    25    22    1
    50    25    26    1
    51    73    72    1
    52   100   101    1
    53    77    78   ar
    54    77    79   ar
    55   101   104    1
    56   101   102    1
    57    45    43    1
    58    78    80   ar
    59    22    23    1
    60    22    21    1
    61    19    18    1
    62    19    20    1
    63   104   105    1
    64    24    23    2
    65    26    28   ar
    66    26    27   ar
    67    79    81   ar
    68    31    28   ar
    69    31    33   ar
    70     5     6    1
    71     5     2    1
    72     3     4    2
    73     3     2    1
    74    80    82   ar
    75    28    30   ar
    76    18    17    1
    77   102   103    2
    78    33    34   ar
    79    27    29   ar
    80    81    82   ar
    81    13    14    1
    82    43    44    1
    83    43    42    2
    84     6     8   ar
    85     6     7   ar
    86    82    83    1
    87     2     1    1
    88     8    10   ar
    89    17    14    1
    90    30    29   ar
    91    30    32   ar
    92    34    32   ar
    93     7     9   ar
    94    10    11   ar
    95    42    41    1
    96    14    15    1
    97     9    11   ar
    98    11    12    1
    99    15    16    2
   100    41    40    1
   101    40    39    1
   102    38    37    2
   103    39    36    1
   104    35    36    1
   105    37    36    1
