@<TRIPOS>MOLECULE
tmp/4i8dB00.pdb
 165 162 0 0 0
SMALL
GASTEIGER

@<TRIPOS>ATOM
      1  N         71.3370   10.1590   39.3820 N.3   163  LEU163     -0.1245
      2  CA        70.1820    9.7750   38.5550 C.3   163  LEU163      0.1561
      3  C         68.8130    9.9510   39.2310 C.2   163  LEU163      0.2260
      4  O         67.8660    9.2530   38.9010 O.2   163  LEU163     -0.2867
      5  CB        70.3460    8.3520   37.9810 C.3   163  LEU163      0.0270
      6  CG        71.7100    8.0070   37.3730 C.3   163  LEU163      0.0019
      7  CD1       71.9390    6.5130   37.3260 C.3   163  LEU163      0.0001
      8  CD2       71.9540    8.6450   36.0180 C.3   163  LEU163      0.0001
      9  N         68.3290    3.0450   35.3450 N.3   176  ASN176     -0.1226
     10  CA        69.2480    2.0340   34.7980 C.3   176  ASN176      0.1770
     11  C         69.9120    2.3590   33.4440 C.2   176  ASN176      0.2439
     12  O         69.7590    1.5880   32.4870 O.2   176  ASN176     -0.2733
     13  CB        68.5520    0.6750   34.7160 C.3   176  ASN176      0.1168
     14  CG        67.6960    0.3760   35.9320 C.2   176  ASN176      0.2627
     15  OD1       68.0420    0.7350   37.0600 O.2   176  ASN176     -0.2716
     16  ND2       66.5670   -0.2890   35.7080 N.am  176  ASN176     -0.0877
     17  N         70.6700    3.4810   33.3630 N.am  177  PRO177     -0.2718
     18  CA        71.3540    3.8410   32.1100 C.3   177  PRO177      0.1535
     19  C         72.5640    2.9630   31.8150 C.2   177  PRO177      0.2599
     20  O         73.0770    2.3050   32.7200 O.2   177  PRO177     -0.2715
     21  CB        71.8190    5.2810   32.3640 C.3   177  PRO177      0.0310
     22  CG        71.9380    5.3900   33.8430 C.3   177  PRO177      0.0237
     23  CD        70.8800    4.4970   34.4160 C.3   177  PRO177      0.0939
     24  N         73.0110    2.9560   30.5600 N.am  178  ASP178     -0.1958
     25  CA        74.2450    2.2590   30.1900 C.3   178  ASP178      0.1840
     26  C         75.4830    3.0450   30.6480 C.2   178  ASP178      0.2622
     27  O         75.3910    4.2410   30.9450 O.2   178  ASP178     -0.2715
     28  CB        74.2950    1.9290   28.6830 C.3   178  ASP178      0.1450
     29  CG        74.2940    3.1710   27.7780 C.2   178  ASP178      0.3671
     30  OD1       74.7010    4.2790   28.2100 O.co2 178  ASP178     -0.2456
     31  OD2       73.8960    3.0200   26.6020 O.co2 178  ASP178     -0.2456
     32  N         76.6280    2.3680   30.7010 N.am  179  ASP179     -0.1957
     33  CA        77.8500    2.9600   31.2370 C.3   179  ASP179      0.1840
     34  C         78.1510    4.3290   30.6420 C.2   179  ASP179      0.2621
     35  O         78.5070    5.2470   31.3690 O.2   179  ASP179     -0.2715
     36  CB        79.0460    2.0280   31.0370 C.3   179  ASP179      0.1450
     37  CG        80.0120    2.0550   32.2100 C.2   179  ASP179      0.3671
     38  OD1       79.5460    2.1280   33.3730 O.co2 179  ASP179     -0.2456
     39  OD2       81.2390    1.9850   31.9710 O.co2 179  ASP179     -0.2456
     40  N         77.9950    4.4690   29.3300 N.am  180  ARG180     -0.1977
     41  CA        78.3250    5.7220   28.6620 C.3   180  ARG180      0.1597
     42  C         77.3960    6.8740   29.0500 C.2   180  ARG180      0.2287
     43  O         77.8270    8.0110   29.1590 O.2   180  ARG180     -0.2864
     44  CB        78.3480    5.5470   27.1420 C.3   180  ARG180      0.0334
     45  CG        78.6900    6.8250   26.3970 C.3   180  ARG180      0.0492
     46  CD        78.9550    6.5780   24.9310 C.3   180  ARG180      0.2205
     47  NE        79.4830    7.7860   24.3110 N.pl3 180  ARG180     -0.0865
     48  CZ        79.3610    8.0930   23.0230 C.cat 180  ARG180      0.5346
     49  NH1       78.7140    7.2860   22.1930 N.pl3 180  ARG180      0.1354
     50  NH2       79.8780    9.2280   22.5690 N.pl3 180  ARG180      0.1354
     51  N         75.8270    7.0670   31.9110 N.3   182  LEU182     -0.1245
     52  CA        76.2250    7.3140   33.2880 C.3   182  LEU182      0.1561
     53  C         77.4040    8.2970   33.3810 C.2   182  LEU182      0.2260
     54  O         77.2920    9.3290   34.0480 O.2   182  LEU182     -0.2867
     55  CB        76.5610    5.9910   33.9910 C.3   182  LEU182      0.0270
     56  CG        77.0490    6.0300   35.4420 C.3   182  LEU182      0.0019
     57  CD1       76.0550    6.7210   36.3730 C.3   182  LEU182      0.0001
     58  CD2       77.3790    4.6210   35.9320 C.3   182  LEU182      0.0001
     59  N         69.8650    2.4940   41.6500 N.3   208  VAL208     -0.1231
     60  CA        70.6510    2.5710   40.4240 C.3   208  VAL208      0.1692
     61  C         71.0010    1.1360   40.0540 C.2   208  VAL208      0.2592
     62  O         71.6130    0.4190   40.8540 O.2   208  VAL208     -0.2718
     63  CB        71.9160    3.4760   40.5570 C.3   208  VAL208      0.0266
     64  CG1       71.5220    4.9360   40.7710 C.3   208  VAL208      0.0020
     65  CG2       72.8420    3.0100   41.6730 C.3   208  VAL208      0.0020
     66  N         70.5800    0.7110   38.8630 N.am  209  ASN209     -0.1974
     67  CA        70.5680   -0.7090   38.5190 C.3   209  ASN209      0.1688
     68  C         70.1460   -1.5670   39.7070 C.2   209  ASN209      0.2292
     69  O         70.8530   -2.5080   40.0740 O.2   209  ASN209     -0.2864
     70  CB        71.9290   -1.1770   37.9840 C.3   209  ASN209      0.1181
     71  CG        72.1960   -0.7060   36.5700 C.2   209  ASN209      0.2629
     72  OD1       71.3500   -0.0790   35.9500 O.2   209  ASN209     -0.2716
     73  ND2       73.3840   -1.0040   36.0590 N.am  209  ASN209     -0.0877
     74  N         75.4680    1.5920   46.7460 N.3   216  ASP216     -0.1239
     75  CA        75.9810    1.1230   45.4730 C.3   216  ASP216      0.1674
     76  C         77.4790    1.3510   45.3470 C.2   216  ASP216      0.2266
     77  O         77.9180    2.4500   45.0010 O.2   216  ASP216     -0.2867
     78  CB        75.2330    1.7760   44.3060 C.3   216  ASP216      0.1410
     79  CG        75.5280    1.0960   42.9880 C.2   216  ASP216      0.3668
     80  OD1       75.2100   -0.1040   42.8750 O.co2 216  ASP216     -0.2456
     81  OD2       76.0850    1.7430   42.0730 O.co2 216  ASP216     -0.2456
     82  N         79.4800    0.3990   43.1030 N.3   218  TYR218     -0.1227
     83  CA        79.9490    0.7080   41.7600 C.3   218  TYR218      0.1736
     84  C         79.9780    2.2090   41.4880 C.2   218  TYR218      0.2596
     85  O         80.9500    2.7150   40.9380 O.2   218  TYR218     -0.2718
     86  CB        79.1350   -0.0250   40.6920 C.3   218  TYR218      0.0548
     87  CG        79.5510    0.3370   39.2810 C.ar  218  TYR218     -0.0200
     88  CD1       80.7510   -0.1410   38.7380 C.ar  218  TYR218     -0.0009
     89  CD2       78.7520    1.1660   38.4910 C.ar  218  TYR218     -0.0009
     90  CE1       81.1360    0.1920   37.4500 C.ar  218  TYR218      0.0417
     91  CE2       79.1260    1.5050   37.2020 C.ar  218  TYR218      0.0417
     92  CZ        80.3130    1.0160   36.6880 C.ar  218  TYR218      0.1957
     93  OH        80.6760    1.3510   35.4060 O.3   218  TYR218     -0.2866
     94  N         78.9120    2.9080   41.8650 N.am  219  THR219     -0.1953
     95  CA        78.8370    4.3370   41.6140 C.3   219  THR219      0.1897
     96  C         79.5560    5.1180   42.7160 C.2   219  THR219      0.2313
     97  O         80.2340    6.1120   42.4340 O.2   219  THR219     -0.2863
     98  CB        77.3860    4.8480   41.4230 C.3   219  THR219      0.1794
     99  OG1       76.5470    4.3510   42.4720 O.3   219  THR219     -0.2208
    100  CG2       76.8320    4.3990   40.0820 C.3   219  THR219      0.0378
    101  N         81.8610    6.9560   18.0270 N.3   645  PRO645     -0.2116
    102  CA        80.5840    6.2410   18.1380 C.3   645  PRO645      0.1372
    103  C         79.4150    7.2260   18.0010 C.2   645  PRO645      0.2244
    104  O         79.6460    8.4430   17.9330 O.2   645  PRO645     -0.2868
    105  CB        80.6170    5.6520   19.5550 C.3   645  PRO645      0.0268
    106  CG        82.0350    5.7410   20.0070 C.3   645  PRO645      0.0207
    107  CD        82.6430    6.8990   19.2750 C.3   645  PRO645      0.0892
    108  N         83.2770    8.7000   26.6880 N.3   680  TRP680     -0.1227
    109  CA        83.5600    7.5020   27.4600 C.3   680  TRP680      0.1737
    110  C         83.5260    6.2930   26.5280 C.2   680  TRP680      0.2595
    111  O         82.5540    6.0840   25.7960 O.2   680  TRP680     -0.2718
    112  CB        82.5730    7.3320   28.6140 C.3   680  TRP680      0.0564
    113  CG        82.8100    6.0780   29.4120 C.ar  680  TRP680      0.0003
    114  CD1       82.0660    4.9320   29.3810 C.ar  680  TRP680      0.0946
    115  CD2       83.8750    5.8380   30.3440 C.ar  680  TRP680      0.0152
    116  NE1       82.5920    3.9970   30.2400 N.ar  680  TRP680     -0.2442
    117  CE2       83.7030    4.5260   30.8460 C.ar  680  TRP680      0.0810
    118  CE3       84.9550    6.6040   30.8090 C.ar  680  TRP680      0.0012
    119  CZ2       84.5720    3.9620   31.7900 C.ar  680  TRP680      0.0191
    120  CZ3       85.8210    6.0420   31.7440 C.ar  680  TRP680      0.0001
    121  CH2       85.6210    4.7340   32.2240 C.ar  680  TRP680      0.0015
    122  N         84.6120    5.5220   26.5410 N.am  681  ASP681     -0.1960
    123  CA        84.6960    4.2970   25.7690 C.3   681  ASP681      0.1840
    124  C         84.4290    3.1210   26.6850 C.2   681  ASP681      0.2623
    125  O         85.2890    2.7320   27.4730 O.2   681  ASP681     -0.2715
    126  CB        86.0670    4.1570   25.1170 C.3   681  ASP681      0.1450
    127  CG        86.1150    3.0210   24.1170 C.2   681  ASP681      0.3671
    128  OD1       86.3420    1.8590   24.5250 O.co2 681  ASP681     -0.2456
    129  OD2       85.9180    3.2950   22.9170 O.co2 681  ASP681     -0.2456
    130  N         83.2330    2.5570   26.5720 N.am  682  THR682     -0.1937
    131  CA        82.8010    1.4830   27.4640 C.3   682  THR682      0.2028
    132  C         83.6890    0.2400   27.3440 C.2   682  THR682      0.2642
    133  O         83.9890   -0.4220   28.3460 O.2   682  THR682     -0.2714
    134  CB        81.3220    1.1330   27.2270 C.3   682  THR682      0.1808
    135  OG1       80.5590    2.3380   27.2200 O.3   682  THR682     -0.2208
    136  CG2       80.7910    0.2420   28.3340 C.3   682  THR682      0.0379
    137  N         84.1150   -0.0580   26.1200 N.am  683  ALA683     -0.1963
    138  CA        84.9680   -1.2120   25.8670 C.3   683  ALA683      0.1728
    139  C         86.2980   -1.0970   26.6200 C.2   683  ALA683      0.2617
    140  O         86.6620   -1.9940   27.3780 O.2   683  ALA683     -0.2715
    141  CB        85.1940   -1.3930   24.3690 C.3   683  ALA683      0.0334
    142  N         87.0000    0.0190   26.4370 N.am  684  SER684     -0.1936
    143  CA        88.3220    0.1980   27.0410 C.3   684  SER684      0.2055
    144  C         88.2810    0.7730   28.4590 C.2   684  SER684      0.2643
    145  O         89.3070    0.8220   29.1340 O.2   684  SER684     -0.2714
    146  CB        89.2230    1.0500   26.1370 C.3   684  SER684      0.2130
    147  OG        88.8660    2.4160   26.1880 O.3   684  SER684     -0.2179
    148  N         87.0940    1.1890   28.9030 N.am  685  GLN685     -0.1963
    149  CA        86.8980    1.8540   30.2030 C.3   685  GLN685      0.1733
    150  C         87.8160    3.0600   30.3850 C.2   685  GLN685      0.2616
    151  O         88.4710    3.2070   31.4180 O.2   685  GLN685     -0.2715
    152  CB        87.0320    0.8650   31.3730 C.3   685  GLN685      0.0408
    153  CG        85.9220   -0.1760   31.4440 C.3   685  GLN685      0.0908
    154  CD        84.5820    0.4000   31.8840 C.2   685  GLN685      0.2608
    155  OE1       84.3550    0.6370   33.0720 O.2   685  GLN685     -0.2717
    156  NE2       83.6820    0.6080   30.9250 N.am  685  GLN685     -0.0878
    157  N         87.8580    3.9130   29.3610 N.am  686  LYS686     -0.1977
    158  CA        88.6980    5.1160   29.3590 C.3   686  LYS686      0.1596
    159  C         87.9770    6.2830   28.7030 C.2   686  LYS686      0.2287
    160  O         87.1320    6.0920   27.8210 O.2   686  LYS686     -0.2864
    161  CB        90.0060    4.8820   28.5920 C.3   686  LYS686      0.0298
    162  CG        90.8900    3.7510   29.0970 C.3   686  LYS686      0.0038
    163  CD        91.6760    4.1450   30.3310 C.3   686  LYS686      0.0206
    164  CE        92.7200    3.0960   30.6730 C.3   686  LYS686      0.1093
    165  NZ        93.6430    3.5980   31.7310 N.3   686  LYS686     -0.1314
@<TRIPOS>BOND
     1   104   103    2
     2   103   102    1
     3   101   102    1
     4   101   107    1
     5   102   105    1
     6   107   106    1
     7   105   106    1
     8    49    48    1
     9    50    48    1
    10   129   127   ar
    11    48    47    2
    12   127   128   ar
    13   127   126    1
    14    47    46    1
    15   141   138    1
    16    46    45    1
    17   126   123    1
    18   123   122    1
    19   123   124    1
    20   111   110    2
    21   138   137    1
    22   138   139    1
    23   137   132   am
    24   146   147    1
    25   146   143    1
    26    45    44    1
    27   142   139   am
    28   142   143    1
    29   110   122   am
    30   110   109    1
    31   130   124   am
    32   130   131    1
    33    31    29   ar
    34   139   140    2
    35   124   125    2
    36   108   109    1
    37   143   144    1
    38    44    41    1
    39   135   134    1
    40   134   131    1
    41   134   136    1
    42   132   131    1
    43   132   133    2
    44   109   112    1
    45    29    30   ar
    46    29    28    1
    47   160   159    2
    48   144   148   am
    49   144   145    2
    50   161   162    1
    51   161   158    1
    52   112   113    1
    53    41    42    1
    54    41    40    1
    55    28    25    1
    56   159   158    1
    57   148   149    1
    58    42    43    2
    59   162   163    1
    60    40    34   am
    61   158   157    1
    62   157   150   am
    63   114   113   ar
    64   114   116   ar
    65   113   115   ar
    66    25    24    1
    67    25    26    1
    68   149   150    1
    69   149   152    1
    70   116   117   ar
    71   163   164    1
    72   115   118   ar
    73   115   117   ar
    74   150   151    2
    75    24    19   am
    76    34    33    1
    77    34    35    2
    78    26    32   am
    79    26    27    2
    80   164   165    1
    81    32    33    1
    82   118   120   ar
    83   117   119   ar
    84   156   154   am
    85    36    33    1
    86    36    37    1
    87   152   153    1
    88   153   154    1
    89   120   121   ar
    90   119   121   ar
    91    19    18    1
    92    19    20    2
    93   154   155    2
    94    51    52    1
    95    39    37   ar
    96    18    21    1
    97    18    17    1
    98    37    38   ar
    99    21    22    1
   100    12    11    2
   101    52    53    1
   102    52    55    1
   103    17    11   am
   104    17    23    1
   105    53    54    2
   106    11    10    1
   107    22    23    1
   108    55    56    1
   109    13    10    1
   110    13    14    1
   111    10     9    1
   112    93    92    1
   113    56    58    1
   114    56    57    1
   115    16    14   am
   116    14    15    2
   117    72    71    2
   118     8     6    1
   119    73    71   am
   120    71    70    1
   121    92    91   ar
   122    92    90   ar
   123    91    89   ar
   124     7     6    1
   125     6     5    1
   126    90    88   ar
   127     5     2    1
   128    70    67    1
   129    89    87   ar
   130    67    66    1
   131    67    68    1
   132     2     3    1
   133     2     1    1
   134    88    87   ar
   135    66    61   am
   136     4     3    2
   137    87    86    1
   138    68    69    2
   139    61    60    1
   140    61    62    2
   141   100    98    1
   142    60    63    1
   143    60    59    1
   144    63    64    1
   145    63    65    1
   146    86    83    1
   147    85    84    2
   148    98    95    1
   149    98    99    1
   150    84    83    1
   151    84    94   am
   152    95    94    1
   153    95    96    1
   154    83    82    1
   155    81    79   ar
   156    97    96    2
   157    80    79   ar
   158    79    78    1
   159    78    75    1
   160    77    76    2
   161    76    75    1
   162    75    74    1
