@<TRIPOS>MOLECULE
tmp/4i8dB02.pdb
 158 151 0 0 0
SMALL
GASTEIGER

@<TRIPOS>ATOM
      1  N         67.0590   12.4650   63.4580 N.3    38  TRP38      -0.1241
      2  CA        66.1310   13.4230   62.8740 C.3    38  TRP38       0.1605
      3  C         65.7330   14.3950   63.9730 C.2    38  TRP38       0.2264
      4  O         65.2760   13.9800   65.0390 O.2    38  TRP38      -0.2867
      5  CB        64.9050   12.6910   62.3210 C.3    38  TRP38       0.0550
      6  CG        64.0590   13.5050   61.3650 C.ar   38  TRP38       0.0003
      7  CD1       63.2550   14.5640   61.6790 C.ar   38  TRP38       0.0946
      8  CD2       63.9190   13.3000   59.9450 C.ar   38  TRP38       0.0152
      9  NE1       62.6370   15.0390   60.5460 N.ar   38  TRP38      -0.2442
     10  CE2       63.0240   14.2840   59.4690 C.ar   38  TRP38       0.0810
     11  CE3       64.4630   12.3780   59.0300 C.ar   38  TRP38       0.0012
     12  CZ2       62.6640   14.3840   58.1150 C.ar   38  TRP38       0.0191
     13  CZ3       64.1070   12.4770   57.6800 C.ar   38  TRP38       0.0001
     14  CH2       63.2090   13.4750   57.2390 C.ar   38  TRP38       0.0015
     15  N         69.7840   21.1140   60.6380 N.3    44  VAL44      -0.1245
     16  CA        69.0960   20.1090   59.8300 C.3    44  VAL44       0.1561
     17  C         69.8250   18.7720   59.9600 C.2    44  VAL44       0.2260
     18  O         69.1910   17.7240   60.0220 O.2    44  VAL44      -0.2867
     19  CB        68.9580   20.5550   58.3520 C.3    44  VAL44       0.0252
     20  CG1       68.2920   19.4770   57.5020 C.3    44  VAL44       0.0019
     21  CG2       68.1670   21.8560   58.2660 C.3    44  VAL44       0.0019
     22  N         70.1940   23.0340   55.0100 N.3    62  ASP62      -0.1239
     23  CA        69.6750   23.3830   53.6910 C.3    62  ASP62       0.1674
     24  C         69.8960   24.8830   53.5160 C.2    62  ASP62       0.2266
     25  O         69.8330   25.6240   54.4930 O.2    62  ASP62      -0.2867
     26  CB        68.1690   23.0870   53.5840 C.3    62  ASP62       0.1410
     27  CG        67.8260   21.6260   53.8520 C.2    62  ASP62       0.3668
     28  OD1       68.3610   20.7510   53.1300 O.co2  62  ASP62      -0.2456
     29  OD2       67.0090   21.3620   54.7720 O.co2  62  ASP62      -0.2456
     30  N         68.2480   27.9900   55.1240 N.3    68  ARG68      -0.1245
     31  CA        66.8830   27.6380   55.4560 C.3    68  ARG68       0.1563
     32  C         66.6320   27.8470   56.9420 C.2    68  ARG68       0.2260
     33  O         67.5530   27.7470   57.7560 O.2    68  ARG68      -0.2867
     34  CB        66.6300   26.1860   55.0780 C.3    68  ARG68       0.0307
     35  CG        65.1680   25.8090   54.9330 C.3    68  ARG68       0.0489
     36  CD        65.0400   24.3110   54.7870 C.3    68  ARG68       0.2205
     37  NE        63.6510   23.8990   54.6850 N.pl3  68  ARG68      -0.0865
     38  CZ        63.2560   22.6370   54.5660 C.cat  68  ARG68       0.5346
     39  NH1       64.1470   21.6540   54.5420 N.pl3  68  ARG68       0.1354
     40  NH2       61.9650   22.3570   54.4750 N.pl3  68  ARG68       0.1354
     41  N         74.0100   22.3950   52.0590 N.3   111  LEU111     -0.1245
     42  CA        73.5620   21.2270   51.2590 C.3   111  LEU111      0.1561
     43  C         73.2230   21.6050   49.8220 C.2   111  LEU111      0.2260
     44  O         72.0480   21.6580   49.4330 O.2   111  LEU111     -0.2867
     45  CB        72.3970   20.4870   51.9390 C.3   111  LEU111      0.0270
     46  CG        72.6580   20.0020   53.3830 C.3   111  LEU111      0.0019
     47  CD1       71.3970   19.4790   54.0540 C.3   111  LEU111      0.0001
     48  CD2       73.7860   18.9760   53.4540 C.3   111  LEU111      0.0001
     49  N         62.2050   19.1420   40.4390 N.3   126  ARG126     -0.1245
     50  CA        63.3620   19.6590   41.1310 C.3   126  ARG126      0.1563
     51  C         64.4260   20.2320   40.2050 C.2   126  ARG126      0.2260
     52  O         65.4020   20.8250   40.6780 O.2   126  ARG126     -0.2867
     53  CB        63.9530   18.5550   42.0010 C.3   126  ARG126      0.0307
     54  CG        63.0790   18.2170   43.1940 C.3   126  ARG126      0.0489
     55  CD        63.7290   18.6230   44.4960 C.3   126  ARG126      0.2205
     56  NE        64.3040   17.4680   45.1660 N.pl3 126  ARG126     -0.0865
     57  CZ        65.1800   17.5100   46.1750 C.cat 126  ARG126      0.5346
     58  NH1       65.6370   18.6640   46.6620 N.pl3 126  ARG126      0.1354
     59  NH2       65.6030   16.3620   46.7010 N.pl3 126  ARG126      0.1354
     60  N         74.9050   17.5120   45.2570 N.3   159  LYS159     -0.1231
     61  CA        73.7850   16.5770   45.3250 C.3   159  LYS159      0.1693
     62  C         72.9680   16.6840   44.0330 C.2   159  LYS159      0.2592
     63  O         73.1260   17.6610   43.3000 O.2   159  LYS159     -0.2718
     64  CB        72.9270   16.8860   46.5590 C.3   159  LYS159      0.0285
     65  CG        72.0690   18.1360   46.4650 C.3   159  LYS159      0.0035
     66  CD        71.6330   18.5850   47.8510 C.3   159  LYS159      0.0206
     67  CE        70.4790   19.5620   47.7540 C.3   159  LYS159      0.1093
     68  NZ        69.8480   19.7960   49.0770 N.3   159  LYS159     -0.1314
     69  N         72.1310   15.6940   43.7180 N.am  160  HIS160     -0.1976
     70  CA        72.0340   14.4180   44.4290 C.3   160  HIS160      0.1656
     71  C         72.6340   13.3540   43.5270 C.2   160  HIS160      0.2291
     72  O         72.2930   13.2700   42.3380 O.2   160  HIS160     -0.2864
     73  CB        70.5800   14.0510   44.7440 C.3   160  HIS160      0.0771
     74  CG        69.7820   15.1700   45.3390 C.ar  160  HIS160      0.0820
     75  ND1       69.1570   16.1260   44.5690 N.ar  160  HIS160     -0.2267
     76  CD2       69.5010   15.4800   46.6280 C.ar  160  HIS160      0.1154
     77  CE1       68.5350   16.9830   45.3590 C.ar  160  HIS160      0.1986
     78  NE2       68.7310   16.6180   46.6130 N.ar  160  HIS160     -0.2212
     79  N         60.5590    8.5520   43.9860 N.3   170  ARG170     -0.1245
     80  CA        62.0100    8.7610   44.0670 C.3   170  ARG170      0.1563
     81  C         62.7220    7.7860   45.0170 C.2   170  ARG170      0.2260
     82  O         63.8380    7.3650   44.7450 O.2   170  ARG170     -0.2867
     83  CB        62.3150   10.2020   44.4500 C.3   170  ARG170      0.0307
     84  CG        61.7530   10.6380   45.7920 C.3   170  ARG170      0.0489
     85  CD        62.3870   11.9610   46.1600 C.3   170  ARG170      0.2205
     86  NE        61.9630   12.4810   47.4540 N.pl3 170  ARG170     -0.0865
     87  CZ        62.5630   13.5070   48.0540 C.cat 170  ARG170      0.5346
     88  NH1       63.5920   14.0870   47.4570 N.pl3 170  ARG170      0.1354
     89  NH2       62.1370   13.9520   49.2360 N.pl3 170  ARG170      0.1354
     90  N         76.1690   14.1500   48.3380 N.3   202  MET202     -0.1245
     91  CA        74.9940   13.4950   48.8970 C.3   202  MET202      0.1570
     92  C         74.4980   12.4320   47.9280 C.2   202  MET202      0.2261
     93  O         74.2450   12.7250   46.7540 O.2   202  MET202     -0.2867
     94  CB        73.8870   14.5110   49.1410 C.3   202  MET202      0.0387
     95  CG        72.6520   13.9370   49.8020 C.3   202  MET202      0.0595
     96  SD        71.3470   15.1680   49.9760 S.3   202  MET202     -0.1393
     97  CE        72.2180   16.4440   50.8870 C.3   202  MET202      0.0692
     98  N         68.0310    9.1960   46.8590 N.3   205  TYR205     -0.1241
     99  CA        67.0200    8.2950   47.4160 C.3   205  TYR205      0.1605
    100  C         66.7130    7.0840   46.5250 C.2   205  TYR205      0.2264
    101  O         66.1560    6.0870   46.9950 O.2   205  TYR205     -0.2867
    102  CB        65.7050    9.0440   47.5830 C.3   205  TYR205      0.0534
    103  CG        65.5370    9.8600   48.8290 C.ar  205  TYR205     -0.0201
    104  CD1       65.5040    9.2640   50.0870 C.ar  205  TYR205     -0.0009
    105  CD2       65.3370   11.2380   48.7460 C.ar  205  TYR205     -0.0009
    106  CE1       65.3160   10.0280   51.2270 C.ar  205  TYR205      0.0417
    107  CE2       65.1390   12.0020   49.8760 C.ar  205  TYR205      0.0417
    108  CZ        65.1280   11.3980   51.1060 C.ar  205  TYR205      0.1957
    109  OH        64.9330   12.1820   52.2120 O.3   205  TYR205     -0.2866
    110  N         71.1310   11.2410   51.5970 N.3   237  ASP237     -0.1225
    111  CA        70.0040   12.1460   51.6530 C.3   237  ASP237      0.1805
    112  C         69.2230   11.7180   52.8980 C.2   237  ASP237      0.2597
    113  O         69.5280   10.6770   53.4970 O.2   237  ASP237     -0.2718
    114  CB        69.1750   12.0620   50.3720 C.3   237  ASP237      0.1424
    115  CG        68.3150   13.3030   50.1390 C.2   237  ASP237      0.3668
    116  OD1       67.9640   13.9830   51.1220 O.co2 237  ASP237     -0.2456
    117  OD2       67.9740   13.5950   48.9690 O.co2 237  ASP237     -0.2456
    118  N         68.2400   12.5090   53.3130 N.am  238  TRP238     -0.1976
    119  CA        67.6650   12.3220   54.6420 C.3   238  TRP238      0.1640
    120  C         66.8790   11.0380   54.7820 C.2   238  TRP238      0.2290
    121  O         65.7600   10.9110   54.2760 O.2   238  TRP238     -0.2864
    122  CB        66.8610   13.5510   55.0740 C.3   238  TRP238      0.0576
    123  CG        67.6240   14.4720   55.9810 C.ar  238  TRP238      0.0006
    124  CD1       67.1800   15.0000   57.1530 C.ar  238  TRP238      0.0946
    125  CD2       68.9670   14.9520   55.8070 C.ar  238  TRP238      0.0152
    126  NE1       68.1520   15.7960   57.7200 N.ar  238  TRP238     -0.2442
    127  CE2       69.2600   15.7840   56.9160 C.ar  238  TRP238      0.0810
    128  CE3       69.9460   14.7720   54.8210 C.ar  238  TRP238      0.0012
    129  CZ2       70.4950   16.4400   57.0670 C.ar  238  TRP238      0.0191
    130  CZ3       71.1850   15.4260   54.9750 C.ar  238  TRP238      0.0001
    131  CH2       71.4400   16.2500   56.0920 C.ar  238  TRP238      0.0015
    132  N         62.6630   21.3500   50.0730 N.3   385  SER385     -0.1217
    133  CA        63.8230   21.5920   50.9200 C.3   385  SER385      0.1889
    134  C         64.8020   22.6170   50.3370 C.2   385  SER385      0.2288
    135  O         65.6560   23.1070   51.0540 O.2   385  SER385     -0.2866
    136  CB        64.5640   20.2810   51.1920 C.3   385  SER385      0.2089
    137  OG        65.3180   19.8870   50.0550 O.3   385  SER385     -0.2183
    138  N         59.7340   19.5400   45.4030 N.3   442  GLU442     -0.1245
    139  CA        60.0930   18.2470   45.9810 C.3   442  GLU442      0.1567
    140  C         58.8440   17.3940   46.2550 C.2   442  GLU442      0.2260
    141  O         57.8120   17.9080   46.6990 O.2   442  GLU442     -0.2867
    142  CB        60.9220   18.4480   47.2500 C.3   442  GLU442      0.0388
    143  CG        61.7410   17.2310   47.6460 C.3   442  GLU442      0.1160
    144  CD        62.5660   17.4460   48.9010 C.2   442  GLU442      0.3649
    145  OE1       63.1870   18.5190   49.0430 O.co2 442  GLU442     -0.2457
    146  OE2       62.6090   16.5300   49.7460 O.co2 442  GLU442     -0.2457
    147  N         57.6300   15.3440   48.4340 N.3   444  TYR444     -0.1241
    148  CA        56.9220   15.2190   49.7190 C.3   444  TYR444      0.1605
    149  C         55.8070   16.2580   49.9180 C.2   444  TYR444      0.2264
    150  O         55.0550   16.1820   50.8890 O.2   444  TYR444     -0.2867
    151  CB        57.9060   15.1980   50.9110 C.3   444  TYR444      0.0534
    152  CG        58.4580   16.5510   51.3250 C.ar  444  TYR444     -0.0201
    153  CD1       59.5730   17.1030   50.6820 C.ar  444  TYR444     -0.0009
    154  CD2       57.8730   17.2730   52.3670 C.ar  444  TYR444     -0.0009
    155  CE1       60.0830   18.3410   51.0570 C.ar  444  TYR444      0.0417
    156  CE2       58.3750   18.5100   52.7530 C.ar  444  TYR444      0.0417
    157  CZ        59.4780   19.0410   52.0970 C.ar  444  TYR444      0.1957
    158  OH        59.9750   20.2650   52.4850 O.3   444  TYR444     -0.2866
@<TRIPOS>BOND
     1    51    52    2
     2    51    50    1
     3    49    50    1
     4    50    53    1
     5    53    54    1
     6    72    71    2
     7    54    55    1
     8    63    62    2
     9    71    70    1
    10    69    62   am
    11    69    70    1
    12    79    80    1
    13    62    61    1
    14    80    83    1
    15    80    81    1
    16    70    73    1
    17    83    84    1
    18    55    56    1
    19    75    74   ar
    20    75    77   ar
    21    73    74    1
    22    82    81    2
    23    56    57    2
    24    60    61    1
    25    61    64    1
    26    74    76   ar
    27    77    78   ar
    28   138   139    1
    29    84    85    1
    30   139   140    1
    31   139   142    1
    32    85    86    1
    33    57    58    1
    34    57    59    1
    35   140   141    2
    36    65    64    1
    37    65    66    1
    38   100   101    2
    39   100    99    1
    40    78    76   ar
    41    93    92    2
    42    98    99    1
    43   142   143    1
    44    99   102    1
    45    86    87    2
    46    88    87    1
    47   102   103    1
    48   143   144    1
    49    67    66    1
    50    67    68    1
    51    92    91    1
    52    87    89    1
    53    90    91    1
    54   147   148    1
    55   105   103   ar
    56   105   107   ar
    57   103   104   ar
    58    91    94    1
    59   144   145   ar
    60   144   146   ar
    61   117   115   ar
    62    94    95    1
    63    44    43    2
    64   148   149    1
    65   148   151    1
    66    95    96    1
    67    43    42    1
    68   107   108   ar
    69   149   150    2
    70    96    97    1
    71   137   136    1
    72   132   133    1
    73   104   106   ar
    74   115   114    1
    75   115   116   ar
    76   134   133    1
    77   134   135    2
    78   114   111    1
    79   153   155   ar
    80   153   152   ar
    81   151   152    1
    82   133   136    1
    83   155   157   ar
    84   108   106   ar
    85   108   109    1
    86    42    45    1
    87    42    41    1
    88   152   154   ar
    89   110   111    1
    90   111   112    1
    91    45    46    1
    92   157   158    1
    93   157   156   ar
    94   154   156   ar
    95   112   118   am
    96   112   113    2
    97    28    27   ar
    98   118   119    1
    99    46    48    1
   100    46    47    1
   101    24    23    1
   102    24    25    2
   103    26    23    1
   104    26    27    1
   105    23    22    1
   106    27    29   ar
   107   121   120    2
   108    40    38    1
   109    39    38    1
   110    38    37    2
   111   119   120    1
   112   119   122    1
   113    37    36    1
   114    36    35    1
   115   128   130   ar
   116   128   125   ar
   117    35    34    1
   118   130   131   ar
   119   122   123    1
   120    34    31    1
   121    30    31    1
   122    31    32    1
   123   125   123   ar
   124   125   127   ar
   125   123   124   ar
   126   131   129   ar
   127   127   129   ar
   128   127   126   ar
   129    32    33    2
   130   124   126   ar
   131    14    13   ar
   132    14    12   ar
   133    20    19    1
   134    13    11   ar
   135    12    10   ar
   136    21    19    1
   137    19    16    1
   138    11     8   ar
   139    10     8   ar
   140    10     9   ar
   141    16    17    1
   142    16    15    1
   143     8     6   ar
   144    17    18    2
   145     9     7   ar
   146     6     7   ar
   147     6     5    1
   148     5     2    1
   149     2     1    1
   150     2     3    1
   151     3     4    2
