@<TRIPOS>MOLECULE
tmp/4i8nA00.pdb
 147 138 0 0 0
SMALL
GASTEIGER

@<TRIPOS>ATOM
      1  N         -9.6320   28.5850   41.6130 N.3    23  ARG23      -0.1245
      2  CA       -10.7060   29.1660   40.8170 C.3    23  ARG23       0.1563
      3  C        -11.9490   28.2730   40.7030 C.2    23  ARG23       0.2260
      4  O        -13.0700   28.7700   40.9410 O.2    23  ARG23      -0.2867
      5  CB       -10.1960   29.5450   39.4420 C.3    23  ARG23       0.0307
      6  CG        -9.2560   30.7640   39.4660 C.3    23  ARG23       0.0489
      7  CD        -8.8670   31.3430   38.0700 C.3    23  ARG23       0.2205
      8  NE        -9.9090   32.2900   37.7590 N.pl3  23  ARG23      -0.0865
      9  CZ       -10.8790   32.0990   36.8820 C.cat  23  ARG23       0.5346
     10  NH1      -10.8560   31.0150   36.0860 N.pl3  23  ARG23       0.1354
     11  NH2      -11.8470   33.0310   36.7890 N.pl3  23  ARG23       0.1354
     12  N        -16.8460   47.2890   36.3600 N.3    45  TYR45      -0.1241
     13  CA       -16.7350   46.1240   35.4950 C.3    45  TYR45       0.1605
     14  C        -18.0450   45.3280   35.5630 C.2    45  TYR45       0.2264
     15  O        -18.6230   45.0460   36.6250 O.2    45  TYR45      -0.2867
     16  CB       -15.5390   45.2210   35.8730 C.3    45  TYR45       0.0534
     17  CG       -14.2430   45.9610   35.8470 C.ar   45  TYR45      -0.0201
     18  CD1      -13.6560   46.3400   34.6220 C.ar   45  TYR45      -0.0009
     19  CD2      -13.6190   46.3930   37.0460 C.ar   45  TYR45      -0.0009
     20  CE1      -12.4270   47.1120   34.5630 C.ar   45  TYR45       0.0417
     21  CE2      -12.4060   47.1480   37.0070 C.ar   45  TYR45       0.0417
     22  CZ       -11.8170   47.5180   35.7830 C.ar   45  TYR45       0.1957
     23  OH       -10.6130   48.2540   35.7480 O.3    45  TYR45      -0.2866
     24  N        -18.4260   42.2190   35.0320 N.3    47  ASP47      -0.1225
     25  CA       -18.2200   40.9580   35.5980 C.3    47  ASP47       0.1805
     26  C        -17.5420   41.0000   36.9510 C.2    47  ASP47       0.2594
     27  O        -17.0370   39.9890   37.3750 O.2    47  ASP47      -0.2718
     28  CB       -17.2780   40.1510   34.7050 C.3    47  ASP47       0.1424
     29  CG       -17.7930   39.9690   33.2260 C.2    47  ASP47       0.3668
     30  OD1      -18.9830   40.2150   32.7990 O.co2  47  ASP47      -0.2456
     31  OD2      -16.9130   39.5260   32.4750 O.co2  47  ASP47      -0.2456
     32  N        -17.4620   42.1540   37.6140 N.am   48  VAL48      -0.2033
     33  CA       -17.0060   42.2140   38.9960 C.3    48  VAL48       0.1282
     34  C        -18.0700   42.8860   39.8130 C.3    48  VAL48       0.2035
     35  O        -18.2800   44.1620   39.8140 O.3    48  VAL48      -0.2185
     36  CB       -15.6590   42.9150   39.1650 C.3    48  VAL48       0.0226
     37  CG1      -15.1530   42.6900   40.5510 C.3    48  VAL48       0.0018
     38  CG2      -14.6740   42.3940   38.1590 C.3    48  VAL48       0.0018
     39  N         -8.7150   54.1690   35.3890 N.3   119  LYS119     -0.1245
     40  CA        -9.0090   53.0410   36.2300 C.3   119  LYS119      0.1561
     41  C         -9.6010   53.3610   37.5810 C.2   119  LYS119      0.2260
     42  O         -9.9270   52.4550   38.3520 O.2   119  LYS119     -0.2867
     43  CB        -7.7190   52.2960   36.4890 C.3   119  LYS119      0.0271
     44  CG        -7.0700   51.6730   35.2880 C.3   119  LYS119      0.0035
     45  CD        -7.8880   50.5530   34.6960 C.3   119  LYS119      0.0206
     46  CE        -7.0110   49.3740   34.2810 C.3   119  LYS119      0.1093
     47  NZ        -6.7870   49.5350   32.8390 N.3   119  LYS119     -0.1314
     48  N         -1.3450   46.8650   37.1360 N.3   180  ASP180     -0.1225
     49  CA        -2.5870   46.1710   37.0790 C.3   180  ASP180      0.1805
     50  C         -2.2040   44.7690   36.5690 C.2   180  ASP180      0.2597
     51  O         -1.2600   44.6310   35.7870 O.2   180  ASP180     -0.2718
     52  CB        -3.5330   46.9170   36.1370 C.3   180  ASP180      0.1424
     53  CG        -5.0040   46.4470   36.2530 C.2   180  ASP180      0.3668
     54  OD1       -5.3110   45.2950   36.6920 O.co2 180  ASP180     -0.2456
     55  OD2       -5.8710   47.2950   35.8940 O.co2 180  ASP180     -0.2456
     56  N         -2.8950   43.7600   37.0990 N.am  181  PHE181     -0.1976
     57  CA        -2.6440   42.3270   36.8220 C.3   181  PHE181      0.1639
     58  C         -1.2380   41.8780   37.1020 C.2   181  PHE181      0.2290
     59  O         -0.8560   40.7780   36.6480 O.2   181  PHE181     -0.2864
     60  CB        -3.1220   41.9090   35.3890 C.3   181  PHE181      0.0560
     61  CG        -4.6460   41.7330   35.3100 C.ar  181  PHE181     -0.0200
     62  CD1       -5.2370   40.5270   35.6560 C.ar  181  PHE181     -0.0042
     63  CD2       -5.4630   42.7970   34.9730 C.ar  181  PHE181     -0.0042
     64  CE1       -6.6040   40.3660   35.6450 C.ar  181  PHE181     -0.0003
     65  CE2       -6.8230   42.6520   34.9710 C.ar  181  PHE181     -0.0003
     66  CZ        -7.4030   41.4240   35.3170 C.ar  181  PHE181     -0.0000
     67  N         -8.4690   48.3800   44.4420 N.3   214  CYS214     -0.1221
     68  CA        -7.6120   48.6420   43.3490 C.3   214  CYS214      0.1808
     69  C         -8.5850   49.1670   42.2810 C.2   214  CYS214      0.2602
     70  O         -9.4320   49.9610   42.5830 O.2   214  CYS214     -0.2717
     71  CB        -6.8540   47.4010   42.9740 C.3   214  CYS214      0.0970
     72  SG        -7.7710   45.8830   43.1770 S.3   214  CYS214     -0.0800
     73  N         -8.4630   48.7420   41.0450 N.am  215  SER215     -0.1938
     74  CA        -9.3790   49.1420   40.0210 C.3   215  SER215      0.2055
     75  C        -10.7020   48.3940   40.1820 C.2   215  SER215      0.2642
     76  O        -11.7150   49.0180   40.2990 O.2   215  SER215     -0.2714
     77  CB        -8.7660   48.8400   38.6430 C.3   215  SER215      0.2130
     78  OG        -9.4430   49.6390   37.6870 O.3   215  SER215     -0.2179
     79  N        -10.6630   47.0440   40.1480 N.am  216  ALA216     -0.1977
     80  CA       -11.8280   46.1900   40.4040 C.3   216  ALA216      0.1597
     81  C        -12.0280   45.8090   41.8730 C.2   216  ALA216      0.2287
     82  O        -13.0440   45.3630   42.2150 O.2   216  ALA216     -0.2864
     83  CB       -11.6510   44.8950   39.6280 C.3   216  ALA216      0.0319
     84  N        -10.2330   43.3790   43.4790 N.3   218  ILE218     -0.1231
     85  CA       -10.0530   41.9620   43.6010 C.3   218  ILE218      0.1692
     86  C         -8.6800   41.4210   43.3740 C.2   218  ILE218      0.2593
     87  O         -8.2700   40.5570   44.1160 O.2   218  ILE218     -0.2718
     88  CB       -10.9880   41.1790   42.7550 C.3   218  ILE218      0.0266
     89  CG1      -10.8190   41.4670   41.2710 C.3   218  ILE218      0.0019
     90  CG2      -12.3760   41.4230   43.1770 C.3   218  ILE218      0.0020
     91  CD1      -11.5990   40.3110   40.4050 C.3   218  ILE218      0.0001
     92  N         -7.9170   41.9650   42.4360 N.am  219  GLY219     -0.1942
     93  CA        -6.6280   41.3590   42.1250 C.3   219  GLY219      0.2014
     94  C         -5.6330   41.7530   43.1190 C.2   219  GLY219      0.2638
     95  O         -5.2250   40.9810   43.9760 O.2   219  GLY219     -0.2714
     96  N         -5.2320   42.9940   43.0150 N.am  220  ARG220     -0.1977
     97  CA        -4.2400   43.5540   43.9510 C.3   220  ARG220      0.1597
     98  C         -4.7640   43.6320   45.3980 C.2   220  ARG220      0.2287
     99  O         -4.0380   43.3690   46.3360 O.2   220  ARG220     -0.2864
    100  CB        -3.8300   44.9720   43.4000 C.3   220  ARG220      0.0334
    101  CG        -2.9400   44.8260   42.1340 C.3   220  ARG220      0.0492
    102  CD        -2.5950   46.1230   41.4770 C.3   220  ARG220      0.2205
    103  NE        -3.7680   46.6280   40.7220 N.pl3 220  ARG220     -0.0865
    104  CZ        -3.7480   47.7260   39.9740 C.cat 220  ARG220      0.5346
    105  NH1       -2.5650   48.4210   39.8780 N.pl3 220  ARG220      0.1354
    106  NH2       -4.8730   48.1220   39.3000 N.pl3 220  ARG220      0.1354
    107  N        -12.7440   34.2380   49.3990 N.3   253  ARG253     -0.1245
    108  CA       -13.5520   34.2830   48.1650 C.3   253  ARG253      0.1563
    109  C        -14.9950   33.9490   48.4310 C.2   253  ARG253      0.2260
    110  O        -15.8830   34.1340   47.5620 O.2   253  ARG253     -0.2867
    111  CB       -12.9850   33.3870   47.0840 C.3   253  ARG253      0.0307
    112  CG       -11.9950   34.0680   46.1890 C.3   253  ARG253      0.0489
    113  CD       -11.2010   33.0920   45.4360 C.3   253  ARG253      0.2205
    114  NE       -10.2220   33.6820   44.5290 N.pl3 253  ARG253     -0.0865
    115  CZ       -10.3240   33.7180   43.1910 C.cat 253  ARG253      0.5346
    116  NH1       -9.3420   34.2700   42.4200 N.pl3 253  ARG253      0.1354
    117  NH2      -11.4330   33.2480   42.6060 N.pl3 253  ARG253      0.1354
    118  N        -15.7650   37.8020   44.9960 N.3   257  MET257     -0.1230
    119  CA       -15.3040   37.0060   43.8920 C.3   257  MET257      0.1702
    120  C        -13.9290   37.4170   43.4300 C.2   257  MET257      0.2592
    121  O        -13.5660   38.5360   43.4700 O.2   257  MET257     -0.2718
    122  CB       -16.2990   37.1050   42.7020 C.3   257  MET257      0.0401
    123  CG       -16.4370   38.5420   42.1190 C.3   257  MET257      0.0596
    124  SD       -17.3470   38.4610   40.5820 S.3   257  MET257     -0.1393
    125  CE       -19.0000   38.1820   41.2490 C.3   257  MET257      0.0692
    126  N        -13.1600   36.4740   42.9810 N.am  258  GLY258     -0.1957
    127  CA       -12.0170   36.7980   42.1120 C.3   258  GLY258      0.1869
    128  C        -10.7740   37.3000   42.7910 C.2   258  GLY258      0.2309
    129  O         -9.8670   37.8000   42.1180 O.2   258  GLY258     -0.2863
    130  N         -5.8900   37.6950   41.0150 N.3   261  GLN261     -0.1245
    131  CA        -6.2660   37.5820   39.5910 C.3   261  GLN261      0.1566
    132  C         -5.3050   36.7710   38.7700 C.2   261  GLN261      0.2260
    133  O         -5.6650   36.3840   37.6920 O.2   261  GLN261     -0.2867
    134  CB        -6.4830   38.9590   38.9930 C.3   261  GLN261      0.0367
    135  CG        -7.8990   39.4580   39.2750 C.3   261  GLN261      0.0905
    136  CD        -8.8900   38.5180   38.5960 C.2   261  GLN261      0.2608
    137  OE1       -9.6030   37.7110   39.2530 O.2   261  GLN261     -0.2717
    138  NE2       -8.8630   38.5400   37.2630 N.am  261  GLN261     -0.0878
    139  N          0.3200   36.4870   41.1280 N.3   265  GLN265     -0.1245
    140  CA        -0.1230   37.1920   42.3350 C.3   265  GLN265      0.1566
    141  C         -0.2150   36.1960   43.5010 C.2   265  GLN265      0.2260
    142  O          0.1920   36.4640   44.6100 O.2   265  GLN265     -0.2867
    143  CB        -1.4610   37.9310   42.1240 C.3   265  GLN265      0.0367
    144  CG        -1.3090   39.2360   41.3450 C.3   265  GLN265      0.0905
    145  CD        -2.6240   39.9330   41.0390 C.2   265  GLN265      0.2608
    146  OE1       -3.7180   39.3380   41.2570 O.2   265  GLN265     -0.2717
    147  NE2       -2.5450   41.2070   40.5480 N.am  265  GLN265     -0.0878
@<TRIPOS>BOND
     1    31    29   ar
     2    30    29   ar
     3    47    46    1
     4    29    28    1
     5    46    45    1
     6    20    18   ar
     7    20    22   ar
     8    18    17   ar
     9    45    44    1
    10    28    25    1
    11    65    63   ar
    12    65    66   ar
    13    63    61   ar
    14    24    25    1
    15    44    43    1
    16    61    60    1
    17    61    62   ar
    18    66    64   ar
    19    39    40    1
    20    60    57    1
    21    13    14    1
    22    13    16    1
    23    13    12    1
    24    14    15    2
    25    25    26    1
    26    64    62   ar
    27    23    22    1
    28    22    21   ar
    29    51    50    2
    30    17    16    1
    31    17    19   ar
    32    55    53   ar
    33    10     9    1
    34    52    53    1
    35    52    49    1
    36    40    43    1
    37    40    41    1
    38    53    54   ar
    39    50    49    1
    40    50    56   am
    41    59    58    2
    42    11     9    1
    43    57    56    1
    44    57    58    1
    45     9     8    2
    46    26    27    2
    47    26    32   am
    48    21    19   ar
    49    49    48    1
    50   138   136   am
    51    41    42    2
    52    32    33    1
    53    78    77    1
    54   133   132    2
    55     8     7    1
    56     7     6    1
    57    38    36    1
    58   136   137    2
    59   136   135    1
    60    77    74    1
    61   132   131    1
    62   134   135    1
    63   134   131    1
    64    33    36    1
    65    33    34    1
    66    36    37    1
    67   106   104    1
    68     5     6    1
    69     5     2    1
    70   131   130    1
    71    83    80    1
    72    34    35    1
    73   105   104    1
    74   104   103    2
    75    74    75    1
    76    74    73    1
    77    79    75   am
    78    79    80    1
    79    75    76    2
    80    80    81    1
    81    91    89    1
    82   147   145   am
    83   124   125    1
    84   124   123    1
    85     3     2    1
    86     3     4    2
    87   103   102    1
    88     2     1    1
    89   145   146    2
    90   145   144    1
    91    73    69   am
    92   139   140    1
    93    89    88    1
    94   144   143    1
    95   102   101    1
    96    81    82    2
    97   127   128    1
    98   127   126    1
    99   129   128    2
   100   123   122    1
   101   143   140    1
   102    93    92    1
   103    93    94    1
   104   101   100    1
   105    69    70    2
   106    69    68    1
   107   140   141    1
   108   116   115    1
   109    92    86   am
   110   117   115    1
   111   122   119    1
   112    88    90    1
   113    88    85    1
   114    71    72    1
   115    71    68    1
   116   126   120   am
   117    96    94   am
   118    96    97    1
   119    94    95    2
   120   115   114    2
   121    68    67    1
   122    86    85    1
   123    86    87    2
   124   100    97    1
   125   120   121    2
   126   120   119    1
   127    84    85    1
   128   141   142    2
   129   119   118    1
   130    97    98    1
   131   114   113    1
   132    98    99    2
   133   113   112    1
   134   112   111    1
   135   111   108    1
   136   110   109    2
   137   108   109    1
   138   108   107    1
