@<TRIPOS>MOLECULE
tmp/4i8pB01.pdb
 73 68 0 0 0
SMALL
GASTEIGER

@<TRIPOS>ATOM
      1  N         39.9860    5.8890    1.1380 N.3   316  LYS316     -0.1245
      2  CA        41.3840    5.5160    0.8600 C.3   316  LYS316      0.1561
      3  C         42.3910    6.3840    1.6340 C.2   316  LYS316      0.2260
      4  O         43.4970    5.9180    1.9120 O.2   316  LYS316     -0.2867
      5  CB        41.6810    5.4910   -0.6600 C.3   316  LYS316      0.0271
      6  CG        41.0720    4.2800   -1.3730 C.3   316  LYS316      0.0035
      7  CD        41.6040    4.1180   -2.8080 C.3   316  LYS316      0.0206
      8  CE        40.8400    3.1070   -3.6410 C.3   316  LYS316      0.1093
      9  NZ        41.0400    1.6980   -3.1960 N.3   316  LYS316     -0.1314
     10  N         31.3130  -10.1290    3.4690 N.3   346  ILE346     -0.1245
     11  CA        31.9250   -9.5730    2.2630 C.3   346  ILE346      0.1561
     12  C         31.9610  -10.5880    1.1190 C.2   346  ILE346      0.2260
     13  O         31.5430  -10.2430    0.0080 O.2   346  ILE346     -0.2867
     14  CB        33.2810   -8.8530    2.5220 C.3   346  ILE346      0.0252
     15  CG1       33.0920   -7.6430    3.4640 C.3   346  ILE346      0.0019
     16  CG2       33.9290   -8.4010    1.1900 C.3   346  ILE346      0.0019
     17  CD1       34.3620   -7.1610    4.1690 C.3   346  ILE346      0.0001
     18  N         29.7540  -10.6670   -2.6160 N.3   350  LYS350     -0.1245
     19  CA        30.3560  -10.9120   -3.9410 C.3   350  LYS350      0.1561
     20  C         29.6520  -12.0640   -4.6470 C.2   350  LYS350      0.2260
     21  O         29.2850  -11.9170   -5.8140 O.2   350  LYS350     -0.2867
     22  CB        31.8590  -11.1850   -3.8530 C.3   350  LYS350      0.0271
     23  CG        32.7100   -9.9360   -3.7490 C.3   350  LYS350      0.0035
     24  CD        34.1860  -10.2350   -4.0160 C.3   350  LYS350      0.0206
     25  CE        34.9320  -10.7030   -2.7790 C.3   350  LYS350      0.1093
     26  NZ        34.8790  -12.1760   -2.5810 N.3   350  LYS350     -0.1314
     27  N         32.4110   -4.7070   -5.1470 N.3   356  ILE356     -0.1231
     28  CA        33.2750   -4.1430   -4.1140 C.3   356  ILE356      0.1692
     29  C         33.8620   -2.9010   -4.7700 C.2   356  ILE356      0.2592
     30  O         34.7370   -3.0260   -5.6260 O.2   356  ILE356     -0.2718
     31  CB        34.4100   -5.0800   -3.5890 C.3   356  ILE356      0.0266
     32  CG1       33.9160   -6.4650   -3.1180 C.3   356  ILE356      0.0019
     33  CG2       35.2470   -4.3600   -2.5110 C.3   356  ILE356      0.0020
     34  CD1       32.8440   -6.4890   -1.9410 C.3   356  ILE356      0.0001
     35  N         33.3550   -1.7190   -4.4080 N.am  357  LEU357     -0.1966
     36  CA        33.8250   -0.4520   -4.9760 C.3   357  LEU357      0.1728
     37  C         35.2250   -0.1250   -4.4650 C.2   357  LEU357      0.2617
     38  O         36.0700    0.3180   -5.2420 O.2   357  LEU357     -0.2715
     39  CB        32.8290    0.6780   -4.6530 C.3   357  LEU357      0.0311
     40  CG        32.9930    1.9870   -5.4040 C.3   357  LEU357      0.0022
     41  CD1       32.7160    1.8140   -6.9200 C.3   357  LEU357      0.0001
     42  CD2       32.1200    3.0600   -4.7960 C.3   357  LEU357      0.0001
     43  N         35.4750   -0.3720   -3.1600 N.am  358  THR358     -0.1937
     44  CA        36.7730   -0.1570   -2.5120 C.3   358  THR358      0.2028
     45  C         36.8470   -1.0440   -1.2900 C.2   358  THR358      0.2643
     46  O         35.8070   -1.3810   -0.7070 O.2   358  THR358     -0.2714
     47  CB        36.9980    1.3420   -2.1480 C.3   358  THR358      0.1808
     48  OG1       38.3590    1.5110   -1.7400 O.3   358  THR358     -0.2208
     49  CG2       36.0860    1.8410   -1.0000 C.3   358  THR358      0.0379
     50  N         38.0650   -1.4130   -0.9050 N.am  359  GLY359     -0.1939
     51  CA        38.2830   -2.1770    0.3160 C.3   359  GLY359      0.2014
     52  C         37.9440   -3.6310    0.2010 C.2   359  GLY359      0.2639
     53  O         38.2230   -4.2400   -0.8250 O.2   359  GLY359     -0.2714
     54  N         37.4120   -4.2130    1.2700 N.am  360  GLY360     -0.1939
     55  CA        37.1080   -5.6450    1.2740 C.3   360  GLY360      0.2014
     56  C         38.3480   -6.5250    1.2620 C.2   360  GLY360      0.2638
     57  O         38.2830   -7.7010    0.9080 O.2   360  GLY360     -0.2714
     58  N         39.4920   -5.9470    1.6540 N.am  361  VAL361     -0.1977
     59  CA        40.8210   -6.5780    1.7140 C.3   361  VAL361      0.1596
     60  C         41.5520   -6.0380    2.9440 C.2   361  VAL361      0.2287
     61  O         41.1490   -5.0090    3.5310 O.2   361  VAL361     -0.2864
     62  CB        41.6900   -6.3310    0.4270 C.3   361  VAL361      0.0276
     63  CG1       41.1670   -7.0900   -0.7890 C.3   361  VAL361      0.0022
     64  CG2       41.8610   -4.8380    0.1160 C.3   361  VAL361      0.0022
     65  N         40.3280   -2.8980    5.4810 N.3   373  GLU373     -0.1245
     66  CA        40.2350   -1.5910    4.8340 C.3   373  GLU373      0.1567
     67  C         38.7790   -1.0780    4.8680 C.2   373  GLU373      0.2260
     68  O         37.8650   -1.9050    4.7940 O.2   373  GLU373     -0.2867
     69  CB        40.6430   -1.7110    3.3490 C.3   373  GLU373      0.0388
     70  CG        42.1420   -1.7320    3.1050 C.3   373  GLU373      0.1160
     71  CD        42.5680   -1.5310    1.6630 C.2   373  GLU373      0.3649
     72  OE1       41.6940   -1.3090    0.7920 O.co2 373  GLU373     -0.2457
     73  OE2       43.7930   -1.5710    1.4110 O.co2 373  GLU373     -0.2457
@<TRIPOS>BOND
     1    41    40    1
     2    21    20    2
     3    30    29    2
     4    40    42    1
     5    40    39    1
     6    38    37    2
     7    27    28    1
     8    36    39    1
     9    36    37    1
    10    36    35    1
    11    29    35   am
    12    29    28    1
    13    20    19    1
    14    37    43   am
    15    28    31    1
    16    24    23    1
    17    24    25    1
    18    19    22    1
    19    19    18    1
    20    22    23    1
    21     8     9    1
    22     8     7    1
    23    31    32    1
    24    31    33    1
    25    43    44    1
    26    32    34    1
    27     7     6    1
    28    25    26    1
    29    44    47    1
    30    44    45    1
    31    47    48    1
    32    47    49    1
    33     6     5    1
    34    45    50   am
    35    45    46    2
    36    50    51    1
    37    53    52    2
    38    63    62    1
    39     5     2    1
    40    13    12    2
    41    64    62    1
    42    52    51    1
    43    52    54   am
    44    62    59    1
    45    72    71   ar
    46     2     1    1
    47     2     3    1
    48    57    56    2
    49    12    11    1
    50    16    14    1
    51    56    55    1
    52    56    58   am
    53    54    55    1
    54    73    71   ar
    55     3     4    2
    56    58    59    1
    57    71    70    1
    58    59    60    1
    59    11    14    1
    60    11    10    1
    61    14    15    1
    62    60    61    2
    63    70    69    1
    64    69    66    1
    65    15    17    1
    66    68    67    2
    67    66    67    1
    68    66    65    1
