@<TRIPOS>MOLECULE
tmp/4i8vA01.pdb
 170 160 0 0 0
SMALL
GASTEIGER

@<TRIPOS>ATOM
      1  N        -16.7410   35.5750  -19.3540 N.3    80  ILE80      -0.1231
      2  CA       -15.9690   35.9840  -20.5140 C.3    80  ILE80       0.1692
      3  C        -14.8650   36.8960  -20.0810 C.2    80  ILE80       0.2592
      4  O        -15.0620   37.6470  -19.1650 O.2    80  ILE80      -0.2718
      5  CB       -16.8640   36.7290  -21.4910 C.3    80  ILE80       0.0266
      6  CG1      -18.1280   35.8620  -21.7820 C.3    80  ILE80       0.0019
      7  CG2      -16.1120   37.0620  -22.7550 C.3    80  ILE80       0.0020
      8  CD1      -19.2580   36.5830  -22.5340 C.3    80  ILE80       0.0001
      9  N        -13.6950   36.7770  -20.7380 N.am   81  SER81      -0.1952
     10  CA       -12.4590   37.5120  -20.5090 C.3    81  SER81       0.1924
     11  C        -12.2590   37.6880  -19.0260 C.2    81  SER81       0.2314
     12  O        -12.1440   38.7700  -18.4580 O.2    81  SER81      -0.2863
     13  CB       -12.4920   38.8160  -21.2690 C.3    81  SER81       0.2116
     14  OG       -12.5870   38.6210  -22.7140 O.3    81  SER81      -0.2180
     15  N        -14.3700   41.6400  -19.5770 N.3    85  SER85      -0.1217
     16  CA       -14.5640   41.8540  -21.0160 C.3    85  SER85       0.1889
     17  C        -14.9350   43.2630  -21.3500 C.2    85  SER85       0.2288
     18  O        -15.8580   43.8080  -20.7720 O.2    85  SER85      -0.2866
     19  CB       -15.7230   40.9880  -21.5670 C.3    85  SER85       0.2089
     20  OG       -15.9430   41.2070  -22.9720 O.3    85  SER85      -0.2183
     21  N        -16.5810   44.1640  -23.9810 N.3    87  SER87      -0.1202
     22  CA       -17.7750   44.0900  -24.7040 C.3    87  SER87       0.2020
     23  C        -18.9410   43.6090  -23.8500 C.2    87  SER87       0.2618
     24  O        -20.0580   44.0670  -24.0190 O.2    87  SER87      -0.2717
     25  CB       -17.5850   43.1100  -25.8460 C.3    87  SER87       0.2103
     26  OG       -16.4750   43.5060  -26.6590 O.3    87  SER87      -0.2182
     27  N        -18.6650   42.7220  -22.9100 N.am   88  PHE88      -0.1975
     28  CA       -19.7060   42.0760  -22.1310 C.3    88  PHE88       0.1639
     29  C        -19.7930   42.4860  -20.6200 C.2    88  PHE88       0.2290
     30  O        -20.7730   42.2110  -19.9640 O.2    88  PHE88      -0.2864
     31  CB       -19.5070   40.5540  -22.2710 C.3    88  PHE88       0.0560
     32  CG       -19.8360   40.0090  -23.6370 C.ar   88  PHE88      -0.0200
     33  CD1      -18.8460   39.7570  -24.5430 C.ar   88  PHE88      -0.0042
     34  CD2      -21.1490   39.7040  -23.9960 C.ar   88  PHE88      -0.0042
     35  CE1      -19.1280   39.2330  -25.8070 C.ar   88  PHE88      -0.0003
     36  CE2      -21.4690   39.1780  -25.2630 C.ar   88  PHE88      -0.0003
     37  CZ       -20.4540   38.9310  -26.1760 C.ar   88  PHE88      -0.0000
     38  N        -17.5490   25.0620  -29.9230 N.3   187  ASN187     -0.1240
     39  CA       -17.7900   26.5130  -29.9150 C.3   187  ASN187      0.1653
     40  C        -19.3020   26.8300  -29.7670 C.2   187  ASN187      0.2266
     41  O        -19.9780   27.2980  -30.7020 O.2   187  ASN187     -0.2867
     42  CB       -17.1600   27.2430  -31.1480 C.3   187  ASN187      0.1155
     43  CG       -17.5180   28.7580  -31.1920 C.2   187  ASN187      0.2627
     44  OD1      -17.5860   29.4010  -30.1470 O.2   187  ASN187     -0.2716
     45  ND2      -17.7800   29.3180  -32.3990 N.am  187  ASN187     -0.0877
     46  N        -20.1210   29.3050  -28.0360 N.3   189  PHE189     -0.1241
     47  CA       -20.0890   30.6670  -27.4340 C.3   189  PHE189      0.1605
     48  C        -21.3940   31.4290  -27.6940 C.2   189  PHE189      0.2264
     49  O        -22.0280   31.9540  -26.8100 O.2   189  PHE189     -0.2867
     50  CB       -18.9070   31.5060  -27.9420 C.3   189  PHE189      0.0534
     51  CG       -18.8040   32.8770  -27.3070 C.ar  189  PHE189     -0.0203
     52  CD1      -17.9940   33.0960  -26.2110 C.ar  189  PHE189     -0.0042
     53  CD2      -19.5060   33.9510  -27.7980 C.ar  189  PHE189     -0.0042
     54  CE1      -17.9150   34.3620  -25.5940 C.ar  189  PHE189     -0.0003
     55  CE2      -19.4090   35.2220  -27.2030 C.ar  189  PHE189     -0.0003
     56  CZ       -18.6310   35.4190  -26.0780 C.ar  189  PHE189     -0.0000
     57  N        -14.4680   26.7200  -22.7860 N.3   219  LEU219     -0.1231
     58  CA       -14.1740   27.4840  -23.9670 C.3   219  LEU219      0.1693
     59  C        -13.5350   28.8370  -23.5620 C.2   219  LEU219      0.2592
     60  O        -12.4850   29.2310  -24.0690 O.2   219  LEU219     -0.2718
     61  CB       -15.4810   27.7430  -24.6940 C.3   219  LEU219      0.0284
     62  CG       -15.5560   27.8350  -26.1740 C.3   219  LEU219      0.0019
     63  CD1      -16.4690   28.9640  -26.5880 C.3   219  LEU219      0.0001
     64  CD2      -14.1830   28.0310  -26.7430 C.3   219  LEU219      0.0001
     65  N        -14.1580   29.5210  -22.6070 N.am  220  ASN220     -0.1974
     66  CA       -13.6240   30.7780  -22.1930 C.3   220  ASN220      0.1688
     67  C        -12.2450   30.6170  -21.5380 C.2   220  ASN220      0.2292
     68  O        -11.3950   31.4230  -21.7320 O.2   220  ASN220     -0.2864
     69  CB       -14.6160   31.5680  -21.3230 C.3   220  ASN220      0.1181
     70  CG       -15.6860   32.2250  -22.1590 C.2   220  ASN220      0.2629
     71  OD1      -15.3900   33.1960  -22.8730 O.2   220  ASN220     -0.2716
     72  ND2      -16.9480   31.6500  -22.1540 N.am  220  ASN220     -0.0877
     73  N         -9.6970   30.2160  -24.4160 N.3   223  PHE223     -0.1241
     74  CA        -9.4720   31.4670  -25.1390 C.3   223  PHE223      0.1605
     75  C         -8.6210   32.3830  -24.2990 C.2   223  PHE223      0.2264
     76  O         -7.7160   33.0260  -24.8460 O.2   223  PHE223     -0.2867
     77  CB       -10.7680   32.1570  -25.5590 C.3   223  PHE223      0.0534
     78  CG       -11.2420   31.7700  -26.9540 C.ar  223  PHE223     -0.0203
     79  CD1      -10.9620   32.5680  -28.0540 C.ar  223  PHE223     -0.0042
     80  CD2      -11.9640   30.6080  -27.1730 C.ar  223  PHE223     -0.0042
     81  CE1      -11.3900   32.2190  -29.3380 C.ar  223  PHE223     -0.0003
     82  CE2      -12.3840   30.2470  -28.4650 C.ar  223  PHE223     -0.0003
     83  CZ       -12.0750   31.0410  -29.5610 C.ar  223  PHE223     -0.0000
     84  N         -8.6220   39.9480  -27.1420 N.3   277  LEU277     -0.1231
     85  CA        -9.4080   38.7410  -27.1540 C.3   277  LEU277      0.1693
     86  C        -10.8380   39.0360  -27.6710 C.2   277  LEU277      0.2592
     87  O        -11.3750   38.3070  -28.5010 O.2   277  LEU277     -0.2718
     88  CB        -9.4370   38.1350  -25.7610 C.3   277  LEU277      0.0284
     89  CG       -10.2000   36.8580  -25.5670 C.3   277  LEU277      0.0019
     90  CD1       -9.8000   35.8280  -26.6220 C.3   277  LEU277      0.0001
     91  CD2       -9.9130   36.3670  -24.1740 C.3   277  LEU277      0.0001
     92  N        -11.4030   40.1480  -27.2440 N.am  278  ASP278     -0.1974
     93  CA       -12.7370   40.5470  -27.6570 C.3   278  ASP278      0.1709
     94  C        -12.6910   40.7490  -29.1630 C.2   278  ASP278      0.2293
     95  O        -13.5710   40.3000  -29.9060 O.2   278  ASP278     -0.2864
     96  CB       -13.1630   41.8300  -26.9250 C.3   278  ASP278      0.1436
     97  CG       -13.7720   41.5800  -25.4820 C.2   278  ASP278      0.3671
     98  OD1      -14.7570   42.3060  -25.1690 O.co2 278  ASP278     -0.2456
     99  OD2      -13.2920   40.7290  -24.6450 O.co2 278  ASP278     -0.2456
    100  N        -12.1120   37.0020  -30.7800 N.3   281  GLY281     -0.1210
    101  CA       -13.4100   36.3310  -30.6150 C.3   281  GLY281      0.1956
    102  C        -14.5100   36.8250  -31.5490 C.2   281  GLY281      0.2611
    103  O        -15.0970   36.0690  -32.3020 O.2   281  GLY281     -0.2717
    104  N        -14.7760   38.1090  -31.5380 N.am  282  ALA282     -0.1979
    105  CA       -15.7880   38.6600  -32.4250 C.3   282  ALA282      0.1597
    106  C        -15.4170   38.4690  -33.9050 C.2   282  ALA282      0.2287
    107  O        -16.2890   38.1990  -34.7460 O.2   282  ALA282     -0.2864
    108  CB       -15.9570   40.1350  -32.1210 C.3   282  ALA282      0.0319
    109  N        -13.2090   36.2860  -35.6210 N.3   284  PHE284     -0.1227
    110  CA       -13.3000   34.9750  -36.2270 C.3   284  PHE284      0.1736
    111  C        -14.7410   34.4600  -36.3300 C.2   284  PHE284      0.2595
    112  O        -15.1260   33.9340  -37.3560 O.2   284  PHE284     -0.2718
    113  CB       -12.4080   33.9830  -35.4960 C.3   284  PHE284      0.0547
    114  CG       -13.0950   33.0860  -34.5660 C.ar  284  PHE284     -0.0202
    115  CD1      -13.7260   31.9520  -35.0250 C.ar  284  PHE284     -0.0042
    116  CD2      -13.0720   33.3160  -33.2200 C.ar  284  PHE284     -0.0042
    117  CE1      -14.3490   31.0620  -34.1520 C.ar  284  PHE284     -0.0003
    118  CE2      -13.6840   32.4320  -32.3260 C.ar  284  PHE284     -0.0003
    119  CZ       -14.3270   31.2990  -32.8070 C.ar  284  PHE284     -0.0000
    120  N        -15.5470   34.6120  -35.2860 N.am  285  ASP285     -0.1960
    121  CA       -16.8500   33.9340  -35.2590 C.3   285  ASP285      0.1840
    122  C        -17.9060   34.5550  -36.1840 C.2   285  ASP285      0.2622
    123  O        -18.5040   33.8810  -36.9880 O.2   285  ASP285     -0.2715
    124  CB       -17.3540   33.8310  -33.8440 C.3   285  ASP285      0.1450
    125  CG       -18.5400   32.9090  -33.7160 C.2   285  ASP285      0.3671
    126  OD1      -19.6390   33.4690  -33.5500 O.co2 285  ASP285     -0.2456
    127  OD2      -18.3740   31.6480  -33.7680 O.co2 285  ASP285     -0.2456
    128  N        -18.0430   35.8570  -36.1820 N.am  286  THR286     -0.1951
    129  CA       -19.1200   36.4530  -36.9080 C.3   286  THR286      0.1897
    130  C        -18.8510   36.4410  -38.3860 C.2   286  THR286      0.2313
    131  O        -19.7860   36.4280  -39.1960 O.2   286  THR286     -0.2863
    132  CB       -19.3420   37.9280  -36.4990 C.3   286  THR286      0.1794
    133  OG1      -18.1870   38.6910  -36.8990 O.3   286  THR286     -0.2208
    134  CG2      -19.5280   38.0250  -35.0490 C.3   286  THR286      0.0378
    135  N        -27.1040   37.6090  -36.7010 N.3   347  VAL347     -0.1245
    136  CA       -27.0520   38.2010  -35.3820 C.3   347  VAL347      0.1561
    137  C        -28.4350   38.7840  -35.0820 C.2   347  VAL347      0.2260
    138  O        -28.6180   39.9570  -35.2190 O.2   347  VAL347     -0.2867
    139  CB       -26.0020   39.3250  -35.3280 C.3   347  VAL347      0.0252
    140  CG1      -25.6880   39.7840  -33.9010 C.3   347  VAL347      0.0019
    141  CG2      -24.7250   38.8240  -35.9530 C.3   347  VAL347      0.0019
    142  N        -26.0680   42.3540  -28.5840 N.3   351  ILE351     -0.1245
    143  CA       -25.7460   41.9530  -27.2560 C.3   351  ILE351      0.1561
    144  C        -26.7010   42.8210  -26.4480 C.2   351  ILE351      0.2260
    145  O        -26.9350   43.9840  -26.7800 O.2   351  ILE351     -0.2867
    146  CB       -24.3050   42.2940  -26.9220 C.3   351  ILE351      0.0252
    147  CG1      -23.3880   41.4540  -27.7440 C.3   351  ILE351      0.0019
    148  CG2      -23.9860   42.0610  -25.4640 C.3   351  ILE351      0.0019
    149  CD1      -21.9760   41.9920  -27.7340 C.3   351  ILE351      0.0001
    150  N        -21.0040   47.7440  -33.6540 N.3   422  CYS422     -0.1235
    151  CA       -19.8570   46.9390  -34.0180 C.3   422  CYS422      0.1677
    152  C        -18.7100   47.8640  -34.3560 C.2   422  CYS422      0.2270
    153  O        -18.8860   48.8180  -35.1040 O.2   422  CYS422     -0.2867
    154  CB       -20.1480   46.1300  -35.2280 C.3   422  CYS422      0.0956
    155  SG       -18.9440   44.8630  -35.4880 S.3   422  CYS422     -0.0801
    156  N        -26.1910   34.1700  -30.3300 N.3   461  LEU461     -0.1231
    157  CA       -25.7680   35.5300  -30.5660 C.3   461  LEU461      0.1693
    158  C        -25.4400   35.6500  -32.0380 C.2   461  LEU461      0.2592
    159  O        -25.8720   36.5780  -32.7040 O.2   461  LEU461     -0.2718
    160  CB       -24.5870   35.9050  -29.6960 C.3   461  LEU461      0.0284
    161  CG       -23.9180   37.2630  -29.9680 C.3   461  LEU461      0.0019
    162  CD1      -24.8590   38.4320  -29.7170 C.3   461  LEU461      0.0001
    163  CD2      -22.7060   37.3790  -29.0790 C.3   461  LEU461      0.0001
    164  N        -24.6920   34.6900  -32.5320 N.am  462  THR462     -0.1953
    165  CA       -24.6250   34.4150  -33.9540 C.3   462  THR462      0.1897
    166  C        -25.3220   33.1100  -34.1840 C.2   462  THR462      0.2313
    167  O        -25.1660   32.1630  -33.4220 O.2   462  THR462     -0.2863
    168  CB       -23.2020   34.3270  -34.4460 C.3   462  THR462      0.1794
    169  OG1      -22.5230   33.3040  -33.7110 O.3   462  THR462     -0.2208
    170  CG2      -22.5490   35.6420  -34.2040 C.3   462  THR462      0.0378
@<TRIPOS>BOND
     1   131   130    2
     2   130   129    1
     3   112   111    2
     4   123   122    2
     5   129   132    1
     6   129   128    1
     7   133   132    1
     8   135   136    1
     9   132   134    1
    10   111   110    1
    11   111   120   am
    12   110   109    1
    13   110   113    1
    14   122   128   am
    15   122   121    1
    16   141   139    1
    17   113   114    1
    18   155   154    1
    19   136   139    1
    20   136   137    1
    21   139   140    1
    22   120   121    1
    23   121   124    1
    24   154   151    1
    25   138   137    2
    26   153   152    2
    27   115   114   ar
    28   115   117   ar
    29   107   106    2
    30   114   116   ar
    31   168   170    1
    32   168   165    1
    33   168   169    1
    34   152   151    1
    35   166   165    1
    36   166   167    2
    37   117   119   ar
    38   151   150    1
    39   165   164    1
    40   106   105    1
    41   124   125    1
    42   127   125   ar
    43   125   126   ar
    44   116   118   ar
    45   119   118   ar
    46   159   158    2
    47   164   158   am
    48   105   108    1
    49   105   104    1
    50    45    43   am
    51   103   102    2
    52   158   157    1
    53   102   104   am
    54   102   101    1
    55    43    42    1
    56    43    44    2
    57    42    39    1
    58   100   101    1
    59    41    40    2
    60   157   156    1
    61   157   160    1
    62   161   162    1
    63   161   160    1
    64   161   163    1
    65    38    39    1
    66    39    40    1
    67    95    94    2
    68    83    81   ar
    69    83    82   ar
    70    81    79   ar
    71    94    93    1
    72   142   143    1
    73    87    86    2
    74    82    80   ar
    75    79    78   ar
    76    46    47    1
    77    50    47    1
    78    50    51    1
    79    53    51   ar
    80    53    55   ar
    81   147   149    1
    82   147   146    1
    83    48    47    1
    84    48    49    2
    85    86    92   am
    86    86    85    1
    87    93    92    1
    88    93    96    1
    89    51    52   ar
    90   143   146    1
    91   143   144    1
    92    55    56   ar
    93    80    78   ar
    94    85    84    1
    95    85    88    1
    96    78    77    1
    97    96    97    1
    98   146   148    1
    99   145   144    2
   100    64    62    1
   101    26    25    1
   102    90    89    1
   103    63    62    1
   104    52    54   ar
   105    37    35   ar
   106    37    36   ar
   107    62    61    1
   108    56    54   ar
   109    25    22    1
   110    35    33   ar
   111    88    89    1
   112    89    91    1
   113    77    74    1
   114    97    98   ar
   115    97    99   ar
   116    36    34   ar
   117    74    73    1
   118    74    75    1
   119    76    75    2
   120    22    21    1
   121    22    23    1
   122    61    58    1
   123    33    32   ar
   124    60    59    2
   125    24    23    2
   126    34    32   ar
   127    58    59    1
   128    58    57    1
   129    23    27   am
   130    32    31    1
   131    59    65   am
   132    20    19    1
   133    27    28    1
   134    71    70    2
   135     7     5    1
   136    14    13    1
   137    65    66    1
   138     8     6    1
   139    31    28    1
   140    66    67    1
   141    66    69    1
   142    70    72   am
   143    70    69    1
   144    28    29    1
   145     6     5    1
   146    68    67    2
   147    19    16    1
   148     5     2    1
   149    17    16    1
   150    17    18    2
   151    13    10    1
   152    16    15    1
   153     9    10    1
   154     9     3   am
   155    29    30    2
   156     2     3    1
   157     2     1    1
   158    10    11    1
   159     3     4    2
   160    11    12    2
