@<TRIPOS>MOLECULE
tmp/4i8xD00.pdb
 126 115 0 0 0
SMALL
GASTEIGER

@<TRIPOS>ATOM
      1  N         45.3540   -0.3860   75.5170 N.3    30  VAL30      -0.1245
      2  CA        44.0140    0.1820   75.5090 C.3    30  VAL30       0.1561
      3  C         44.0430    1.6860   75.2370 C.2    30  VAL30       0.2260
      4  O         43.2790    2.1730   74.4220 O.2    30  VAL30      -0.2867
      5  CB        43.2760   -0.0770   76.8390 C.3    30  VAL30       0.0252
      6  CG1       41.9650    0.6900   76.8610 C.3    30  VAL30       0.0019
      7  CG2       43.0180   -1.5630   77.0050 C.3    30  VAL30       0.0019
      8  N         42.6320    5.5280   81.2000 N.3    94  THR94      -0.1203
      9  CA        42.8510    4.1090   80.9630 C.3    94  THR94       0.1994
     10  C         43.9670    3.5650   81.8560 C.2    94  THR94       0.2618
     11  O         44.2930    2.3830   81.8060 O.2    94  THR94      -0.2717
     12  CB        43.2200    3.8370   79.4940 C.3    94  THR94       0.1784
     13  OG1       44.5470    4.3040   79.2410 O.3    94  THR94      -0.2211
     14  CG2       42.2580    4.5630   78.5600 C.3    94  THR94       0.0376
     15  N         44.5510    4.4310   82.6760 N.am   95  ALA95      -0.1965
     16  CA        45.6440    4.0230   83.5420 C.3    95  ALA95       0.1728
     17  C         45.1630    3.0320   84.6070 C.2    95  ALA95       0.2616
     18  O         44.0350    3.1210   85.0990 O.2    95  ALA95      -0.2715
     19  CB        46.2660    5.2490   84.2030 C.3    95  ALA95       0.0334
     20  N         46.0250    2.0850   84.9580 N.am   96  GLY96      -0.1955
     21  CA        45.6990    1.1570   86.0250 C.3    96  GLY96       0.1869
     22  C         46.8930    0.3160   86.4360 C.2    96  GLY96       0.2309
     23  O         47.9180    0.3010   85.7540 O.2    96  GLY96      -0.2863
     24  N         48.0530   -3.7190   87.2430 N.3    98  ARG98      -0.1245
     25  CA        47.5950   -5.0890   87.0520 C.3    98  ARG98       0.1563
     26  C         47.8920   -5.9310   88.2860 C.2    98  ARG98       0.2260
     27  O         48.9150   -5.7490   88.9480 O.2    98  ARG98      -0.2867
     28  CB        48.2490   -5.7230   85.8200 C.3    98  ARG98       0.0307
     29  CG        47.6050   -7.0530   85.3940 C.3    98  ARG98       0.0489
     30  CD        46.1480   -6.8740   84.9450 C.3    98  ARG98       0.2205
     31  NE        45.1860   -7.1900   86.0020 N.pl3  98  ARG98      -0.0865
     32  CZ        44.0490   -6.5280   86.2090 C.cat  98  ARG98       0.5346
     33  NH1       43.7190   -5.5010   85.4300 N.pl3  98  ARG98       0.1354
     34  NH2       43.2350   -6.8940   87.1940 N.pl3  98  ARG98       0.1354
     35  N         37.8280    4.2280   81.8100 N.3   135  VAL135     -0.1231
     36  CA        37.7990    2.9550   81.0970 C.3   135  VAL135      0.1692
     37  C         38.4240    1.8270   81.9310 C.2   135  VAL135      0.2593
     38  O         38.1140    0.6530   81.7340 O.2   135  VAL135     -0.2718
     39  CB        38.5500    3.0680   79.7530 C.3   135  VAL135      0.0266
     40  CG1       38.3770    1.7880   78.9480 C.3   135  VAL135      0.0020
     41  CG2       38.0230    4.2720   78.9680 C.3   135  VAL135      0.0020
     42  N         39.2990    2.1940   82.8630 N.am  136  SER136     -0.1938
     43  CA        40.0300    1.2190   83.6690 C.3   136  SER136      0.2055
     44  C         39.0770    0.3330   84.4630 C.2   136  SER136      0.2643
     45  O         38.0270    0.7790   84.9080 O.2   136  SER136     -0.2714
     46  CB        40.9850    1.9440   84.6280 C.3   136  SER136      0.2130
     47  OG        41.7260    2.9420   83.9510 O.3   136  SER136     -0.2179
     48  N         39.4470   -0.9310   84.6290 N.am  137  ASN137     -0.1971
     49  CA        38.6350   -1.8760   85.3850 C.3   137  ASN137      0.1688
     50  C         39.1180   -1.9780   86.8190 C.2   137  ASN137      0.2292
     51  O         40.2930   -1.7460   87.1020 O.2   137  ASN137     -0.2864
     52  CB        38.6840   -3.2600   84.7370 C.3   137  ASN137      0.1181
     53  CG        37.8030   -3.3580   83.5020 C.2   137  ASN137      0.2629
     54  OD1       36.5980   -3.0800   83.5540 O.2   137  ASN137     -0.2716
     55  ND2       38.4000   -3.7590   82.3840 N.am  137  ASN137     -0.0877
     56  N         32.7600    3.7660   80.8340 N.3   160  SER160     -0.1217
     57  CA        32.5530    3.0810   79.5610 C.3   160  SER160      0.1889
     58  C         31.6330    1.8830   79.7880 C.2   160  SER160      0.2288
     59  O         30.9210    1.4630   78.8820 O.2   160  SER160     -0.2866
     60  CB        33.8950    2.6310   78.9600 C.3   160  SER160      0.2089
     61  OG        34.6330    1.8150   79.8580 O.3   160  SER160     -0.2183
     62  N         31.0000   -1.4990   75.2640 N.3   164  LEU164     -0.1231
     63  CA        31.6240   -2.4740   74.3730 C.3   164  LEU164      0.1693
     64  C         30.8860   -3.8110   74.4060 C.2   164  LEU164      0.2592
     65  O         30.6850   -4.4420   73.3630 O.2   164  LEU164     -0.2718
     66  CB        33.1010   -2.6970   74.7400 C.3   164  LEU164      0.0284
     67  CG        33.7660   -3.8640   73.9810 C.3   164  LEU164      0.0019
     68  CD1       33.6750   -3.6280   72.4740 C.3   164  LEU164      0.0001
     69  CD2       35.2150   -4.0260   74.4010 C.3   164  LEU164      0.0001
     70  N         30.4810   -4.2430   75.5980 N.am  165  ASP165     -0.1974
     71  CA        29.7700   -5.5080   75.7260 C.3   165  ASP165      0.1709
     72  C         28.4570   -5.5280   74.9470 C.2   165  ASP165      0.2293
     73  O         28.0670   -6.5730   74.4230 O.2   165  ASP165     -0.2864
     74  CB        29.5070   -5.8150   77.1980 C.3   165  ASP165      0.1436
     75  CG        30.7670   -5.7530   78.0220 C.2   165  ASP165      0.3671
     76  OD1       31.0660   -4.6620   78.5650 O.co2 165  ASP165     -0.2456
     77  OD2       31.4680   -6.7790   78.1130 O.co2 165  ASP165     -0.2456
     78  N         29.5150   -6.0230   71.3910 N.3   168  ARG168     -0.1245
     79  CA        29.8190   -7.4350   71.2120 C.3   168  ARG168      0.1563
     80  C         28.5430   -8.2530   71.0660 C.2   168  ARG168      0.2260
     81  O         28.4620   -9.1640   70.2430 O.2   168  ARG168     -0.2867
     82  CB        30.6310   -7.9490   72.4050 C.3   168  ARG168      0.0307
     83  CG        32.1010   -7.5560   72.3670 C.3   168  ARG168      0.0489
     84  CD        32.8150   -7.9900   73.6400 C.3   168  ARG168      0.2205
     85  NE        34.2750   -7.9010   73.5410 N.pl3 168  ARG168     -0.0865
     86  CZ        35.0590   -7.4060   74.4990 C.cat 168  ARG168      0.5346
     87  NH1       36.3790   -7.3650   74.3450 N.pl3 168  ARG168      0.1354
     88  NH2       34.5220   -6.9350   75.6090 N.pl3 168  ARG168      0.1354
     89  N         29.2660   -3.8930   84.8280 N.3   192  HIS192     -0.1241
     90  CA        30.1370   -4.4080   83.7760 C.3   192  HIS192      0.1621
     91  C         30.7190   -5.7430   84.2170 C.2   192  HIS192      0.2264
     92  O         31.1770   -5.8710   85.3430 O.2   192  HIS192     -0.2867
     93  CB        31.2660   -3.4040   83.5060 C.3   192  HIS192      0.0745
     94  CG        32.2740   -3.8680   82.5020 C.ar  192  HIS192      0.0817
     95  ND1       31.9390   -4.2060   81.2070 N.ar  192  HIS192     -0.2268
     96  CD2       33.6180   -4.0160   82.5920 C.ar  192  HIS192      0.1154
     97  CE1       33.0330   -4.5410   80.5450 C.ar  192  HIS192      0.1986
     98  NE2       34.0650   -4.4330   81.3620 N.ar  192  HIS192     -0.2212
     99  N         36.2540  -11.0510   76.5390 N.3   237  ALA237     -0.1245
    100  CA        37.4960  -10.3650   76.8870 C.3   237  ALA237      0.1562
    101  C         38.5370  -11.3850   77.3510 C.2   237  ALA237      0.2260
    102  O         39.6790  -11.4010   76.8720 O.2   237  ALA237     -0.2867
    103  CB        37.2400   -9.3340   77.9890 C.3   237  ALA237      0.0290
    104  N         42.0650  -12.4490   75.6420 N.3   241  ILE241     -0.1245
    105  CA        43.2750  -12.4120   76.4570 C.3   241  ILE241      0.1561
    106  C         44.0330  -13.7400   76.4190 C.2   241  ILE241      0.2260
    107  O         45.2590  -13.7550   76.3370 O.2   241  ILE241     -0.2867
    108  CB        42.9330  -12.0220   77.9160 C.3   241  ILE241      0.0252
    109  CG1       42.5870  -10.5280   77.9690 C.3   241  ILE241      0.0019
    110  CG2       44.1030  -12.3500   78.8470 C.3   241  ILE241      0.0019
    111  CD1       41.8160  -10.0980   79.2110 C.3   241  ILE241      0.0001
    112  N         43.1450   -7.2050   75.2410 N.3   247  THR247     -0.1218
    113  CA        42.3080   -6.7150   74.1530 C.3   247  THR247      0.1862
    114  C         42.6070   -5.2370   73.9500 C.2   247  THR247      0.2287
    115  O         43.0100   -4.5510   74.8820 O.2   247  THR247     -0.2866
    116  CB        40.8150   -6.8560   74.4700 C.3   247  THR247      0.1770
    117  OG1       40.4120   -5.7870   75.3410 O.3   247  THR247     -0.2211
    118  CG2       40.5500   -8.1840   75.1490 C.3   247  THR247      0.0375
    119  N         37.6770   -2.0590   72.2350 N.3   251  ILE251     -0.1245
    120  CA        37.4590   -1.0910   73.3050 C.3   251  ILE251      0.1561
    121  C         37.8550    0.3090   72.8210 C.2   251  ILE251      0.2260
    122  O         37.1860    1.3040   73.1310 O.2   251  ILE251     -0.2867
    123  CB        38.2800   -1.4640   74.5910 C.3   251  ILE251      0.0252
    124  CG1       37.9210   -0.5210   75.7400 C.3   251  ILE251      0.0019
    125  CG2       39.7810   -1.3860   74.3120 C.3   251  ILE251      0.0019
    126  CD1       36.4420   -0.4790   76.0540 C.3   251  ILE251      0.0001
@<TRIPOS>BOND
     1    81    80    2
     2    80    79    1
     3    79    78    1
     4    79    82    1
     5   119   120    1
     6    83    82    1
     7    83    84    1
     8    68    67    1
     9   121   122    2
    10   121   120    1
    11   120   123    1
    12    65    64    2
    13    85    84    1
    14    85    86    2
    15   114   113    1
    16   114   115    2
    17    67    69    1
    18    67    66    1
    19   113   116    1
    20   113   112    1
    21   125   123    1
    22    87    86    1
    23    63    64    1
    24    63    66    1
    25    63    62    1
    26    64    70   am
    27     4     3    2
    28    73    72    2
    29   116   118    1
    30   116   117    1
    31    86    88    1
    32   123   124    1
    33    72    71    1
    34     3     2    1
    35     2     1    1
    36     2     5    1
    37    70    71    1
    38   104   105    1
    39    71    74    1
    40   124   126    1
    41   107   106    2
    42   106   105    1
    43   105   108    1
    44    99   100    1
    45     5     6    1
    46     5     7    1
    47   102   101    2
    48   100   101    1
    49   100   103    1
    50    74    75    1
    51   108   109    1
    52   108   110    1
    53   109   111    1
    54    75    77   ar
    55    75    76   ar
    56    14    12    1
    57    59    58    2
    58    40    39    1
    59    60    57    1
    60    60    61    1
    61    41    39    1
    62    13    12    1
    63    12     9    1
    64    57    58    1
    65    57    56    1
    66    39    36    1
    67    97    95   ar
    68    97    98   ar
    69     9     8    1
    70     9    10    1
    71    36    35    1
    72    36    37    1
    73    95    94   ar
    74    98    96   ar
    75    38    37    2
    76    11    10    2
    77    10    15   am
    78    37    42   am
    79    55    53   am
    80    94    96   ar
    81    94    93    1
    82    15    16    1
    83    42    43    1
    84    53    54    2
    85    53    52    1
    86    93    90    1
    87    16    19    1
    88    16    17    1
    89    43    44    1
    90    43    46    1
    91    90    91    1
    92    90    89    1
    93    47    46    1
    94    91    92    2
    95    44    48   am
    96    44    45    2
    97    17    20   am
    98    17    18    2
    99    48    49    1
   100    52    49    1
   101    30    29    1
   102    30    31    1
   103    20    21    1
   104    49    50    1
   105    29    28    1
   106    33    32    1
   107    23    22    2
   108    28    25    1
   109    31    32    2
   110    21    22    1
   111    32    34    1
   112    50    51    2
   113    25    24    1
   114    25    26    1
   115    26    27    2
