@<TRIPOS>MOLECULE
tmp/4i91A01.pdb
 88 84 0 0 0
SMALL
GASTEIGER

@<TRIPOS>ATOM
      1  N         46.0290  -24.8980   -6.0000 N.3    58  ARG58      -0.1245
      2  CA        47.4380  -24.6840   -5.6510 C.3    58  ARG58       0.1563
      3  C         48.1970  -26.0100   -5.6020 C.2    58  ARG58       0.2260
      4  O         49.3170  -26.0970   -6.1050 O.2    58  ARG58      -0.2867
      5  CB        47.5750  -23.9330   -4.3130 C.3    58  ARG58       0.0307
      6  CG        49.0110  -23.5440   -3.9280 C.3    58  ARG58       0.0489
      7  CD        49.0690  -22.7030   -2.6360 C.3    58  ARG58       0.2205
      8  NE        48.3280  -21.4420   -2.7670 N.pl3  58  ARG58      -0.0865
      9  CZ        48.8140  -20.3180   -3.3000 C.cat  58  ARG58       0.5346
     10  NH1       50.0620  -20.2730   -3.7560 N.pl3  58  ARG58       0.1354
     11  NH2       48.0490  -19.2320   -3.3760 N.pl3  58  ARG58       0.1354
     12  N         45.2070  -11.8870    0.2450 N.3   396  THR396     -0.1203
     13  CA        44.8480  -13.2610    0.5860 C.3   396  THR396      0.1994
     14  C         45.2710  -14.2430   -0.5070 C.2   396  THR396      0.2617
     15  O         45.2780  -13.8970   -1.6890 O.2   396  THR396     -0.2717
     16  CB        43.3340  -13.3920    0.8690 C.3   396  THR396      0.1784
     17  OG1       42.9920  -14.7750    0.9910 O.3   396  THR396     -0.2211
     18  CG2       42.5030  -12.7620   -0.2520 C.3   396  THR396      0.0376
     19  N         45.6220  -15.4620   -0.0950 N.am  397  GLU397     -0.1979
     20  CA        45.9950  -16.5340   -1.0210 C.3   397  GLU397      0.1602
     21  C         44.8280  -17.0300   -1.9010 C.2   397  GLU397      0.2287
     22  O         45.0560  -17.7310   -2.8810 O.2   397  GLU397     -0.2864
     23  CB        46.6110  -17.7200   -0.2540 C.3   397  GLU397      0.0415
     24  CG        45.6050  -18.4690    0.6290 C.3   397  GLU397      0.1163
     25  CD        46.1440  -19.7770    1.2040 C.2   397  GLU397      0.3649
     26  OE1       47.2650  -20.2000    0.8360 O.co2 397  GLU397     -0.2457
     27  OE2       45.4290  -20.3920    2.0290 O.co2 397  GLU397     -0.2457
     28  N         43.0240  -15.0350   -3.6080 N.3   399  PHE399     -0.1227
     29  CA        42.9710  -14.1120   -4.7320 C.3   399  PHE399      0.1736
     30  C         43.8740  -14.6080   -5.8560 C.2   399  PHE399      0.2595
     31  O         45.0570  -14.2650   -5.9150 O.2   399  PHE399     -0.2718
     32  CB        43.3540  -12.6820   -4.2950 C.3   399  PHE399      0.0547
     33  CG        43.2290  -11.6640   -5.3930 C.ar  399  PHE399     -0.0202
     34  CD1       41.9730  -11.2340   -5.8170 C.ar  399  PHE399     -0.0042
     35  CD2       44.3660  -11.1570   -6.0220 C.ar  399  PHE399     -0.0042
     36  CE1       41.8420  -10.2880   -6.8450 C.ar  399  PHE399     -0.0003
     37  CE2       44.2510  -10.2150   -7.0590 C.ar  399  PHE399     -0.0003
     38  CZ        42.9870   -9.7750   -7.4650 C.ar  399  PHE399     -0.0000
     39  N         43.3100  -15.4190   -6.7500 N.am  400  ILE400     -0.1980
     40  CA        44.0980  -16.0140   -7.8420 C.3   400  ILE400      0.1595
     41  C         43.4720  -15.8080   -9.2460 C.2   400  ILE400      0.2287
     42  O         43.3760  -16.7580  -10.0210 O.2   400  ILE400     -0.2864
     43  CB        44.4100  -17.5130   -7.5750 C.3   400  ILE400      0.0276
     44  CG1       43.1120  -18.3190   -7.3840 C.3   400  ILE400      0.0022
     45  CG2       45.3250  -17.6760   -6.3350 C.3   400  ILE400      0.0022
     46  CD1       43.3200  -19.8500   -7.4010 C.3   400  ILE400      0.0001
     47  N         44.6980  -14.4570  -11.8010 N.3   402  PHE402     -0.1227
     48  CA        45.7380  -14.6950  -12.8250 C.3   402  PHE402      0.1736
     49  C         46.2130  -16.1520  -12.8260 C.2   402  PHE402      0.2596
     50  O         47.1520  -16.4990  -13.5460 O.2   402  PHE402     -0.2718
     51  CB        46.9530  -13.7700  -12.6110 C.3   402  PHE402      0.0547
     52  CG        46.6170  -12.2890  -12.6030 C.ar  402  PHE402     -0.0202
     53  CD1       46.4630  -11.5860  -13.7950 C.ar  402  PHE402     -0.0042
     54  CD2       46.4740  -11.6010  -11.3960 C.ar  402  PHE402     -0.0042
     55  CE1       46.1550  -10.2180  -13.7940 C.ar  402  PHE402     -0.0003
     56  CE2       46.1790  -10.2350  -11.3740 C.ar  402  PHE402     -0.0003
     57  CZ        46.0120   -9.5430  -12.5800 C.ar  402  PHE402     -0.0000
     58  N         45.5640  -16.9970  -12.0220 N.am  403  SER403     -0.1938
     59  CA        45.9540  -18.4080  -11.8500 C.3   403  SER403      0.2055
     60  C         47.2780  -18.5200  -11.0780 C.2   403  SER403      0.2642
     61  O         47.6780  -17.5730  -10.3920 O.2   403  SER403     -0.2714
     62  CB        46.0080  -19.1490  -13.1980 C.3   403  SER403      0.2130
     63  OG        46.0890  -20.5610  -13.0130 O.3   403  SER403     -0.2179
     64  N         47.9410  -19.6720  -11.1930 N.am  404  LEU404     -0.1977
     65  CA        49.1630  -19.9770  -10.4500 C.3   404  LEU404      0.1596
     66  C         50.0990  -20.8730  -11.2710 C.2   404  LEU404      0.2287
     67  O         49.6950  -21.4310  -12.2930 O.2   404  LEU404     -0.2864
     68  CB        48.8160  -20.7030   -9.1400 C.3   404  LEU404      0.0297
     69  CG        48.0050  -19.9870   -8.0470 C.3   404  LEU404      0.0022
     70  CD1       47.4900  -20.9940   -7.0290 C.3   404  LEU404      0.0001
     71  CD2       48.8500  -18.9010   -7.3660 C.3   404  LEU404      0.0001
     72  N         51.0730  -19.2750  -15.1010 N.3   408  ILE408     -0.1245
     73  CA        50.5130  -18.0550  -14.5000 C.3   408  ILE408      0.1561
     74  C         50.5560  -16.9230  -15.5270 C.2   408  ILE408      0.2260
     75  O         51.4950  -16.8480  -16.3280 O.2   408  ILE408     -0.2867
     76  CB        51.2470  -17.6630  -13.1660 C.3   408  ILE408      0.0252
     77  CG1       50.4960  -16.5280  -12.4410 C.3   408  ILE408      0.0019
     78  CG2       52.6990  -17.2870  -13.4290 C.3   408  ILE408      0.0019
     79  CD1       50.9470  -16.2730  -11.0130 C.3   408  ILE408      0.0001
     80  N         50.6390  -10.3600  -15.6970 N.3   412  GLU412     -0.1245
     81  CA        50.0980   -9.9410  -14.3890 C.3   412  GLU412      0.1567
     82  C         50.5770   -8.5560  -13.9500 C.2   412  GLU412      0.2260
     83  O         49.7660   -7.7130  -13.5770 O.2   412  GLU412     -0.2867
     84  CB        50.3750  -10.9650  -13.2730 C.3   412  GLU412      0.0388
     85  CG        49.8670  -10.4660  -11.9030 C.3   412  GLU412      0.1160
     86  CD        50.0540  -11.4430  -10.7500 C.2   412  GLU412      0.3649
     87  OE1       50.4960  -12.5850  -10.9690 O.co2 412  GLU412     -0.2457
     88  OE2       49.7430  -11.0550   -9.6060 O.co2 412  GLU412     -0.2457
@<TRIPOS>BOND
     1    75    74    2
     2    80    81    1
     3    74    73    1
     4    72    73    1
     5    73    76    1
     6    81    82    1
     7    81    84    1
     8    82    83    2
     9    53    55   ar
    10    53    52   ar
    11    55    57   ar
    12    50    49    2
    13    78    76    1
    14    84    85    1
    15    62    63    1
    16    62    59    1
    17    76    77    1
    18    49    48    1
    19    49    58   am
    20    48    51    1
    21    48    47    1
    22    51    52    1
    23    52    54   ar
    24    57    56   ar
    25    77    79    1
    26    67    66    2
    27    58    59    1
    28    85    86    1
    29    59    60    1
    30    54    56   ar
    31    66    65    1
    32    64    60   am
    33    64    65    1
    34    60    61    2
    35    87    86   ar
    36    86    88   ar
    37    65    68    1
    38    42    41    2
    39    41    40    1
    40    68    69    1
    41    69    71    1
    42    69    70    1
    43    40    43    1
    44    40    39    1
    45    43    44    1
    46    43    45    1
    47    38    37   ar
    48    38    36   ar
    49    46    44    1
    50    37    35   ar
    51    36    34   ar
    52    39    30   am
    53     4     3    2
    54    35    33   ar
    55     1     2    1
    56    31    30    2
    57    30    29    1
    58    34    33   ar
    59     2     3    1
    60     2     5    1
    61    33    32    1
    62    29    32    1
    63    29    28    1
    64     5     6    1
    65     6     7    1
    66    10     9    1
    67    11     9    1
    68     9     8    2
    69    22    21    2
    70     8     7    1
    71    21    20    1
    72    15    14    2
    73    20    23    1
    74    20    19    1
    75    14    19   am
    76    14    13    1
    77    23    24    1
    78    18    16    1
    79    12    13    1
    80    13    16    1
    81    24    25    1
    82    26    25   ar
    83    16    17    1
    84    25    27   ar
