@<TRIPOS>MOLECULE
tmp/4i94B00.pdb
 196 184 0 0 0
SMALL
GASTEIGER

@<TRIPOS>ATOM
      1  N         30.8540    7.2540   33.8710 N.3    31  VAL31      -0.1231
      2  CA        30.2700    6.6040   35.0500 C.3    31  VAL31       0.1692
      3  C         28.7720    6.4100   34.9240 C.2    31  VAL31       0.2593
      4  O         28.2120    5.6580   35.7200 O.2    31  VAL31      -0.2718
      5  CB        30.6140    7.2910   36.3840 C.3    31  VAL31       0.0266
      6  CG1       32.1030    7.1300   36.7450 C.3    31  VAL31       0.0020
      7  CG2       30.2100    8.7470   36.4350 C.3    31  VAL31       0.0020
      8  N         28.1430    7.0620   33.9360 N.am   32  SER32      -0.1938
      9  CA        26.6830    7.0200   33.6880 C.3    32  SER32       0.2055
     10  C         26.3630    5.8550   32.7770 C.2    32  SER32       0.2642
     11  O         27.2610    5.3160   32.1160 O.2    32  SER32      -0.2714
     12  CB        26.1880    8.3480   33.0750 C.3    32  SER32       0.2130
     13  OG        27.0550    8.7770   32.0110 O.3    32  SER32      -0.2179
     14  N         25.1160    5.4080   32.7960 N.am   33  GLU33      -0.1976
     15  CA        24.6680    4.2910   31.9750 C.3    33  GLU33       0.1602
     16  C         24.5930    4.6770   30.5030 C.2    33  GLU33       0.2287
     17  O         24.2510    5.8170   30.1800 O.2    33  GLU33      -0.2864
     18  CB        23.2420    3.8960   32.3870 C.3    33  GLU33       0.0415
     19  CG        23.1600    3.1920   33.7240 C.3    33  GLU33       0.1163
     20  CD        23.4560    1.7180   33.5690 C.2    33  GLU33       0.3649
     21  OE1       24.5520    1.3070   34.0220 O.co2  33  GLU33      -0.2457
     22  OE2       22.6000    1.0100   32.9620 O.co2  33  GLU33      -0.2457
     23  N         22.9680   12.9150   27.7780 N.3    40  ASN40      -0.1240
     24  CA        24.0820   13.5560   28.4190 C.3    40  ASN40       0.1653
     25  C         24.8910   12.4490   29.0850 C.2    40  ASN40       0.2266
     26  O         24.3830   11.3300   29.2690 O.2    40  ASN40      -0.2867
     27  CB        23.5990   14.6510   29.3840 C.3    40  ASN40       0.1155
     28  CG        22.6720   14.1030   30.4770 C.2    40  ASN40       0.2627
     29  OD1       23.0820   13.2430   31.2420 O.2    40  ASN40      -0.2716
     30  ND2       21.4400   14.6220   30.5580 N.am   40  ASN40      -0.0877
     31  N         28.0130   11.4500   32.1510 N.3    42  VAL42      -0.1245
     32  CA        28.7840   11.8530   33.3110 C.3    42  VAL42       0.1561
     33  C         30.1150   11.0750   33.3340 C.2    42  VAL42       0.2260
     34  O         30.1450    9.8480   33.1180 O.2    42  VAL42      -0.2867
     35  CB        28.0060   11.5860   34.6420 C.3    42  VAL42       0.0252
     36  CG1       28.8110   12.0440   35.8460 C.3    42  VAL42       0.0019
     37  CG2       26.6910   12.3560   34.6030 C.3    42  VAL42       0.0019
     38  N         32.9950   14.7900   39.4030 N.3    54  ALA54      -0.1245
     39  CA        32.0360   14.2870   38.4680 C.3    54  ALA54       0.1562
     40  C         31.7180   15.4150   37.5110 C.2    54  ALA54       0.2260
     41  O         31.3680   16.5340   37.9240 O.2    54  ALA54      -0.2867
     42  CB        30.7390   13.8470   39.1620 C.3    54  ALA54       0.0290
     43  N         29.4090   16.3950   34.3390 N.3    56  LYS56      -0.1245
     44  CA        28.2600   16.1370   33.4880 C.3    56  LYS56       0.1561
     45  C         28.3530   16.9710   32.1910 C.2    56  LYS56       0.2260
     46  O         28.3680   18.2120   32.2400 O.2    56  LYS56      -0.2867
     47  CB        26.9830   16.5170   34.2190 C.3    56  LYS56       0.0271
     48  CG        25.7740   15.9540   33.5570 C.3    56  LYS56       0.0035
     49  CD        24.4830   16.1930   34.3520 C.3    56  LYS56       0.0206
     50  CE        23.2850   15.6060   33.6410 C.3    56  LYS56       0.1093
     51  NZ        22.0960   15.5300   34.5620 N.3    56  LYS56      -0.1314
     52  N         25.8540   15.9450   46.9400 N.3    85  ALA85      -0.1245
     53  CA        27.0490   15.9480   46.1120 C.3    85  ALA85       0.1562
     54  C         27.0240   17.3550   45.4660 C.2    85  ALA85       0.2260
     55  O         26.2260   17.6540   44.5580 O.2    85  ALA85      -0.2867
     56  CB        26.9650   14.8620   45.0720 C.3    85  ALA85       0.0290
     57  N         30.7480   18.4860   39.6830 N.3   101  ALA101     -0.1231
     58  CA        30.2930   18.2210   41.0440 C.3   101  ALA101      0.1694
     59  C         31.3330   17.4460   41.8540 C.2   101  ALA101      0.2592
     60  O         32.2030   16.8240   41.2950 O.2   101  ALA101     -0.2718
     61  CB        29.0120   17.3980   41.0290 C.3   101  ALA101      0.0304
     62  N         31.1470   17.4010   43.1610 N.am  102  GLU102     -0.1966
     63  CA        31.9320   16.4480   43.9990 C.3   102  GLU102      0.1733
     64  C         31.7190   14.9890   43.5400 C.2   102  GLU102      0.2616
     65  O         30.5800   14.5620   43.3770 O.2   102  GLU102     -0.2715
     66  CB        31.5250   16.5840   45.4780 C.3   102  GLU102      0.0429
     67  CG        31.8090   17.9150   46.1050 C.3   102  GLU102      0.1163
     68  CD        31.1400   18.0900   47.4750 C.2   102  GLU102      0.3649
     69  OE1       31.7630   18.7540   48.3430 O.co2 102  GLU102     -0.2457
     70  OE2       30.0070   17.5900   47.7020 O.co2 102  GLU102     -0.2457
     71  N         32.7960   14.2240   43.3300 N.am  103  PHE103     -0.1960
     72  CA        32.7080   12.8290   42.9490 C.3   103  PHE103      0.1771
     73  C         32.3020   11.9420   44.1020 C.2   103  PHE103      0.2619
     74  O         32.9410   11.9330   45.1720 O.2   103  PHE103     -0.2715
     75  CB        34.0050   12.2950   42.3590 C.3   103  PHE103      0.0574
     76  CG        33.9010   10.9280   41.7610 C.ar  103  PHE103     -0.0200
     77  CD1       33.1780   10.7010   40.6090 C.ar  103  PHE103     -0.0042
     78  CD2       34.5650    9.8560   42.3420 C.ar  103  PHE103     -0.0042
     79  CE1       33.0740    9.4310   40.0560 C.ar  103  PHE103     -0.0003
     80  CE2       34.5130    8.5870   41.7840 C.ar  103  PHE103     -0.0003
     81  CZ        33.7370    8.3530   40.6520 C.ar  103  PHE103     -0.0000
     82  N         31.2320   11.1950   43.8660 N.am  104  MET104     -0.1977
     83  CA        30.7550   10.1690   44.7880 C.3   104  MET104      0.1605
     84  C         31.2090    8.8110   44.2950 C.2   104  MET104      0.2287
     85  O         30.7450    8.3370   43.2750 O.2   104  MET104     -0.2864
     86  CB        29.2340   10.1840   44.8350 C.3   104  MET104      0.0413
     87  CG        28.6540   11.5060   45.2960 C.3   104  MET104      0.0598
     88  SD        28.9540   11.9610   46.9920 S.3   104  MET104     -0.1393
     89  CE        30.0930   13.3200   46.8900 C.3   104  MET104      0.0692
     90  N         28.9560    4.5970   44.0030 N.3   107  GLU107     -0.1231
     91  CA        27.8400    4.1810   43.1440 C.3   107  GLU107      0.1699
     92  C         26.4980    4.7840   43.5850 C.2   107  GLU107      0.2592
     93  O         26.4640    5.7360   44.3560 O.2   107  GLU107     -0.2718
     94  CB        27.8130    2.6470   43.0550 C.3   107  GLU107      0.0402
     95  CG        28.7270    2.1320   41.9610 C.3   107  GLU107      0.1161
     96  CD        27.9750    1.9720   40.6570 C.2   107  GLU107      0.3649
     97  OE1       26.9990    2.7380   40.4150 O.co2 107  GLU107     -0.2457
     98  OE2       28.3270    1.0350   39.9090 O.co2 107  GLU107     -0.2457
     99  N         25.4060    4.2100   43.0950 N.am  108  THR108     -0.1953
    100  CA        24.0730    4.7710   43.2970 C.3   108  THR108      0.1897
    101  C         23.2450    3.8790   44.1670 C.2   108  THR108      0.2313
    102  O         23.5700    2.7130   44.3560 O.2   108  THR108     -0.2863
    103  CB        23.2990    4.8650   41.9740 C.3   108  THR108      0.1794
    104  OG1       23.1950    3.5700   41.4200 O.3   108  THR108     -0.2208
    105  CG2       23.9400    5.8060   40.9510 C.3   108  THR108      0.0378
    106  N         14.9160   10.0500   41.9010 N.3   152  ASN152     -0.1240
    107  CA        14.8110    8.6000   41.7330 C.3   152  ASN152      0.1653
    108  C         16.0950    7.9560   42.2690 C.2   152  ASN152      0.2266
    109  O         16.9780    8.6570   42.7100 O.2   152  ASN152     -0.2867
    110  CB        14.5360    8.2380   40.2770 C.3   152  ASN152      0.1155
    111  CG        15.6340    8.7060   39.3230 C.2   152  ASN152      0.2627
    112  OD1       16.8010    8.4080   39.5010 O.2   152  ASN152     -0.2716
    113  ND2       15.2550    9.4570   38.3120 N.am  152  ASN152     -0.0877
    114  N         18.6490    6.6550   40.9000 N.3   154  TYR154     -0.1227
    115  CA        19.8790    7.0480   40.2120 C.3   154  TYR154      0.1736
    116  C         20.4520    8.3780   40.7280 C.2   154  TYR154      0.2595
    117  O         21.6000    8.6710   40.4610 O.2   154  TYR154     -0.2718
    118  CB        19.6370    7.1100   38.6960 C.3   154  TYR154      0.0548
    119  CG        19.6240    5.7500   38.1150 C.ar  154  TYR154     -0.0200
    120  CD1       20.8090    5.1940   37.6530 C.ar  154  TYR154     -0.0009
    121  CD2       18.4780    4.9620   38.1020 C.ar  154  TYR154     -0.0009
    122  CE1       20.8420    3.9260   37.1500 C.ar  154  TYR154      0.0417
    123  CE2       18.5080    3.6650   37.5900 C.ar  154  TYR154      0.0417
    124  CZ        19.7020    3.1620   37.1160 C.ar  154  TYR154      0.1957
    125  OH        19.8540    1.9010   36.5790 O.3   154  TYR154     -0.2866
    126  N         19.6660    9.1670   41.4590 N.am  155  ARG155     -0.1980
    127  CA        20.0760   10.4840   41.9450 C.3   155  ARG155      0.1597
    128  C         20.6900   10.3880   43.3260 C.2   155  ARG155      0.2287
    129  O         21.2180   11.3540   43.8260 O.2   155  ARG155     -0.2864
    130  CB        18.8780   11.4340   42.0930 C.3   155  ARG155      0.0334
    131  CG        18.0500   11.6580   40.8840 C.3   155  ARG155      0.0492
    132  CD        18.7650   12.4840   39.8540 C.3   155  ARG155      0.2205
    133  NE        17.8460   13.0970   38.9000 N.pl3 155  ARG155     -0.0865
    134  CZ        18.2420   13.7070   37.7870 C.cat 155  ARG155      0.5346
    135  NH1       19.5390   13.7320   37.4770 N.pl3 155  ARG155      0.1354
    136  NH2       17.3360   14.2730   36.9780 N.pl3 155  ARG155      0.1354
    137  N         23.4500    8.9070   45.6570 N.3   157  LEU157     -0.1245
    138  CA        24.8180    8.4680   45.4610 C.3   157  LEU157      0.1561
    139  C         25.4670    8.1820   46.7990 C.2   157  LEU157      0.2260
    140  O         25.0610    8.7490   47.7800 O.2   157  LEU157     -0.2867
    141  CB        25.6200    9.6200   44.8150 C.3   157  LEU157      0.0270
    142  CG        24.9230   10.2140   43.5650 C.3   157  LEU157      0.0019
    143  CD1       25.5550   11.4980   43.1130 C.3   157  LEU157      0.0001
    144  CD2       24.8970    9.1860   42.4720 C.3   157  LEU157      0.0001
    145  N         22.3410   13.9340   44.3770 N.3   167  SER167     -0.1202
    146  CA        23.0600   14.5470   43.2580 C.3   167  SER167      0.2020
    147  C         22.6150   15.9950   43.0930 C.2   167  SER167      0.2619
    148  O         21.4350   16.2700   42.9340 O.2   167  SER167     -0.2717
    149  CB        22.8090   13.7590   41.9720 C.3   167  SER167      0.2103
    150  OG        23.4410   14.3760   40.8590 O.3   167  SER167     -0.2182
    151  N         23.5660   16.9200   42.9680 N.am  168  CYS168     -0.1955
    152  CA        23.1920   18.3130   42.6640 C.3   168  CYS168      0.1843
    153  C         22.6880   18.4210   41.2290 C.2   168  CYS168      0.2625
    154  O         21.9840   19.3690   40.9070 O.2   168  CYS168     -0.2714
    155  CB        24.3700   19.2930   42.8150 C.3   168  CYS168      0.0997
    156  SG        25.7630   18.8500   41.7560 S.3   168  CYS168     -0.0797
    157  N         23.0050   17.4740   40.3680 N.am  169  PHE169     -0.1974
    158  CA        22.6520   17.6680   38.9260 C.3   169  PHE169      0.1639
    159  C         21.1520   17.7390   38.6750 C.2   169  PHE169      0.2290
    160  O         20.7000   18.3720   37.7130 O.2   169  PHE169     -0.2864
    161  CB        23.2850   16.6150   38.0110 C.3   169  PHE169      0.0560
    162  CG        24.7940   16.5990   38.0130 C.ar  169  PHE169     -0.0200
    163  CD1       25.5400   17.7580   38.0910 C.ar  169  PHE169     -0.0042
    164  CD2       25.4660   15.3920   37.9360 C.ar  169  PHE169     -0.0042
    165  CE1       26.9170   17.7030   38.0670 C.ar  169  PHE169     -0.0003
    166  CE2       26.8450   15.3270   37.9360 C.ar  169  PHE169     -0.0003
    167  CZ        27.5780   16.4980   37.9860 C.ar  169  PHE169     -0.0000
    168  N         19.0050   21.1330   38.4260 N.3   172  MET172     -0.1245
    169  CA        18.8720   21.7310   37.0890 C.3   172  MET172      0.1570
    170  C         18.2460   20.7880   36.0960 C.2   172  MET172      0.2261
    171  O         18.4550   19.5810   36.1660 O.2   172  MET172     -0.2867
    172  CB        20.2480   22.0130   36.5210 C.3   172  MET172      0.0387
    173  CG        20.8450   23.2120   37.1160 C.3   172  MET172      0.0595
    174  SD        22.3740   23.6100   36.2720 S.3   172  MET172     -0.1393
    175  CE        22.0170   23.9330   34.5850 C.3   172  MET172      0.0692
    176  N         17.7620   18.9050   32.4890 N.3   174  ASN174     -0.1240
    177  CA        18.7000   18.3630   31.5100 C.3   174  ASN174      0.1653
    178  C         18.8190   19.2460   30.2490 C.2   174  ASN174      0.2266
    179  O         19.7870   19.1230   29.4870 O.2   174  ASN174     -0.2867
    180  CB        18.3780   16.8920   31.1870 C.3   174  ASN174      0.1155
    181  CG        16.9610   16.6820   30.6330 C.2   174  ASN174      0.2627
    182  OD1       16.3830   17.5200   29.9310 O.2   174  ASN174     -0.2716
    183  ND2       16.4050   15.5340   30.9390 N.am  174  ASN174     -0.0877
    184  N         11.9780   12.5790   32.3160 N.3   182  SER182     -0.1202
    185  CA        12.1680   11.8540   31.0510 C.3   182  SER182      0.2020
    186  C         12.0190   10.3620   31.2410 C.2   182  SER182      0.2619
    187  O         12.0490    9.5980   30.2760 O.2   182  SER182     -0.2717
    188  CB        13.5560   12.1480   30.4920 C.3   182  SER182      0.2103
    189  OG        13.6920   13.5390   30.2650 O.3   182  SER182     -0.2182
    190  N         11.8680    9.9540   32.4940 N.am  183  THR183     -0.1952
    191  CA        11.8100    8.5420   32.8590 C.3   183  THR183      0.1897
    192  C         10.3930    7.9680   32.7780 C.2   183  THR183      0.2313
    193  O          9.4510    8.6690   32.4470 O.2   183  THR183     -0.2863
    194  CB        12.3000    8.3740   34.2950 C.3   183  THR183      0.1794
    195  OG1       11.6210    9.3430   35.1130 O.3   183  THR183     -0.2208
    196  CG2       13.8130    8.5810   34.3420 C.3   183  THR183      0.0378
@<TRIPOS>BOND
     1    23    24    1
     2    24    25    1
     3    24    27    1
     4    25    26    2
     5    27    28    1
     6   179   178    2
     7   182   181    2
     8    17    16    2
     9   178   177    1
    10   189   188    1
    11   187   186    2
    12    28    30   am
    13    28    29    2
    14   188   185    1
    15    16    15    1
    16   181   183   am
    17   181   180    1
    18   185   186    1
    19   185   184    1
    20   180   177    1
    21   186   190   am
    22   177   176    1
    23    15    18    1
    24    15    14    1
    25    13    12    1
    26    11    10    2
    27    31    32    1
    28    45    46    2
    29    45    44    1
    30    18    19    1
    31   193   192    2
    32   190   191    1
    33    10    14   am
    34    10     9    1
    35   192   191    1
    36   191   194    1
    37    22    20   ar
    38    12     9    1
    39    34    33    2
    40    32    33    1
    41    32    35    1
    42    44    47    1
    43    44    43    1
    44    48    47    1
    45    48    49    1
    46    20    19    1
    47    20    21   ar
    48    50    49    1
    49    50    51    1
    50     9     8    1
    51     1     2    1
    52     8     3   am
    53   194   196    1
    54   194   195    1
    55   175   174    1
    56    37    35    1
    57    35    36    1
    58     3     2    1
    59     3     4    2
    60     2     5    1
    61   170   171    2
    62   170   169    1
    63   174   173    1
    64     5     7    1
    65     5     6    1
    66   172   169    1
    67   172   173    1
    68   125   124    1
    69   136   134    1
    70   169   168    1
    71   124   122   ar
    72   124   123   ar
    73   122   120   ar
    74   135   134    1
    75    40    41    2
    76    40    39    1
    77   123   121   ar
    78   120   119   ar
    79   160   159    2
    80   134   133    2
    81   166   164   ar
    82   166   167   ar
    83   164   162   ar
    84   167   165   ar
    85   161   162    1
    86   161   158    1
    87   162   163   ar
    88   165   163   ar
    89   121   119   ar
    90   119   118    1
    91   113   111   am
    92    39    42    1
    93    39    38    1
    94   159   158    1
    95   118   115    1
    96   133   132    1
    97   158   157    1
    98   111   112    2
    99   111   110    1
   100    57    58    1
   101   132   131    1
   102    98    96   ar
   103    79    77   ar
   104    79    81   ar
   105   115   116    1
   106   115   114    1
   107   110   107    1
   108   157   153   am
   109    97    96   ar
   110   117   116    2
   111    77    76   ar
   112    81    80   ar
   113    96    95    1
   114   116   126   am
   115   150   149    1
   116   131   130    1
   117   154   153    2
   118   105   103    1
   119    61    58    1
   120    58    59    1
   121   153   152    1
   122    60    59    2
   123   104   103    1
   124   126   127    1
   125   107   106    1
   126   107   108    1
   127   156   155    1
   128    76    78   ar
   129    76    75    1
   130    80    78   ar
   131    59    62   am
   132   127   130    1
   133   127   128    1
   134    95    94    1
   135   149   146    1
   136   103   100    1
   137   108   109    2
   138    75    72    1
   139   144   142    1
   140   152   155    1
   141   152   151    1
   142   148   147    2
   143    72    71    1
   144    72    73    1
   145   151   147   am
   146    94    91    1
   147   147   146    1
   148    99   100    1
   149    99    92   am
   150   143   142    1
   151    91    92    1
   152    91    90    1
   153    62    63    1
   154   146   145    1
   155    85    84    2
   156   100   101    1
   157   128   129    2
   158    71    64   am
   159    65    64    2
   160    64    63    1
   161   142   141    1
   162    92    93    2
   163    82    73   am
   164    82    83    1
   165    63    66    1
   166    73    74    2
   167   101   102    2
   168    84    83    1
   169    55    54    2
   170    83    86    1
   171   141   138    1
   172    86    87    1
   173    56    53    1
   174    87    88    1
   175   138   137    1
   176   138   139    1
   177    54    53    1
   178    66    67    1
   179    67    68    1
   180    53    52    1
   181   139   140    2
   182    89    88    1
   183    68    70   ar
   184    68    69   ar
