@<TRIPOS>MOLECULE
tmp/4i9bA01.pdb
 79 73 0 0 0
SMALL
GASTEIGER

@<TRIPOS>ATOM
      1  N        -21.4600   57.1380  -17.7860 N.3   298  VAL298     -0.1245
      2  CA       -22.4910   58.1620  -17.6690 C.3   298  VAL298      0.1561
      3  C        -22.7170   58.9800  -18.9400 C.2   298  VAL298      0.2260
      4  O        -21.7570   59.4090  -19.5680 O.2   298  VAL298     -0.2867
      5  CB       -22.2150   59.0400  -16.3990 C.3   298  VAL298      0.0252
      6  CG1      -20.9150   59.8670  -16.5190 C.3   298  VAL298      0.0019
      7  CG2      -23.4090   59.9290  -16.0610 C.3   298  VAL298      0.0019
      8  N        -23.7080   64.0560  -17.2520 N.3   303  ALA303     -0.1231
      9  CA       -22.4440   63.7900  -16.5350 C.3   303  ALA303      0.1694
     10  C        -22.0660   64.8190  -15.4340 C.2   303  ALA303      0.2592
     11  O        -21.9280   64.4470  -14.2720 O.2   303  ALA303     -0.2718
     12  CB       -21.2920   63.5900  -17.5180 C.3   303  ALA303      0.0304
     13  N        -21.9580   66.1100  -15.7780 N.am  304  SER304     -0.1952
     14  CA       -21.5950   67.1410  -14.8000 C.3   304  SER304      0.1924
     15  C        -22.5830   67.2520  -13.6270 C.2   304  SER304      0.2314
     16  O        -22.1500   67.2840  -12.4710 O.2   304  SER304     -0.2863
     17  CB       -21.4070   68.4870  -15.4950 C.3   304  SER304      0.2116
     18  OG       -20.2950   68.4040  -16.3750 O.3   304  SER304     -0.2180
     19  N        -22.3520   63.8990  -11.5490 N.3   307  MET307     -0.1245
     20  CA       -21.0840   63.8460  -10.8000 C.3   307  MET307      0.1570
     21  C        -21.0810   64.7730   -9.5910 C.2   307  MET307      0.2261
     22  O        -20.5050   64.4240   -8.5560 O.2   307  MET307     -0.2867
     23  CB       -19.8720   64.1380  -11.6780 C.3   307  MET307      0.0387
     24  CG       -19.5890   63.0650  -12.7270 C.3   307  MET307      0.0595
     25  SD       -19.3640   61.4040  -12.0330 S.3   307  MET307     -0.1393
     26  CE       -17.8840   61.6650  -11.0840 C.3   307  MET307      0.0692
     27  N        -10.7650   62.6800   -8.3190 N.3   356  LEU356     -0.1245
     28  CA       -11.8240   63.6600   -8.0800 C.3   356  LEU356      0.1561
     29  C        -12.0930   63.8560   -6.5730 C.2   356  LEU356      0.2260
     30  O        -12.2940   64.9850   -6.1210 O.2   356  LEU356     -0.2867
     31  CB       -13.1030   63.2590   -8.8310 C.3   356  LEU356      0.0270
     32  CG       -13.8520   64.2860   -9.6890 C.3   356  LEU356      0.0019
     33  CD1      -15.3120   64.0150   -9.6460 C.3   356  LEU356      0.0001
     34  CD2      -13.5720   65.7400   -9.2970 C.3   356  LEU356      0.0001
     35  N        -11.5750   59.9920  -12.3170 N.3   377  THR377     -0.1203
     36  CA       -12.0620   60.4990  -13.5860 C.3   377  THR377      0.1994
     37  C        -10.9160   60.6910  -14.5810 C.2   377  THR377      0.2618
     38  O         -9.7830   60.4020  -14.2380 O.2   377  THR377     -0.2717
     39  CB       -12.9280   61.6960  -13.2500 C.3   377  THR377      0.1784
     40  OG1      -13.9530   61.8770  -14.2060 O.3   377  THR377     -0.2211
     41  CG2      -12.1370   62.9160  -12.9870 C.3   377  THR377      0.0376
     42  N        -11.1940   61.1470  -15.8140 N.am  378  ASP378     -0.1959
     43  CA       -10.1620   61.2800  -16.8590 C.3   378  ASP378      0.1840
     44  C         -9.4480   59.9340  -17.0610 C.2   378  ASP378      0.2621
     45  O         -8.2130   59.8300  -17.1280 O.2   378  ASP378     -0.2715
     46  CB        -9.1910   62.4770  -16.6140 C.3   378  ASP378      0.1450
     47  CG        -9.8950   63.8180  -16.5090 C.2   378  ASP378      0.3671
     48  OD1      -10.9040   64.0240  -17.2260 O.co2 378  ASP378     -0.2456
     49  OD2       -9.4630   64.6470  -15.6900 O.co2 378  ASP378     -0.2456
     50  N        -10.2730   58.8930  -17.1210 N.am  379  VAL379     -0.1977
     51  CA        -9.8730   57.4920  -17.2920 C.3   379  VAL379      0.1596
     52  C         -9.9750   57.0820  -18.7640 C.2   379  VAL379      0.2287
     53  O        -10.9270   57.4360  -19.4450 O.2   379  VAL379     -0.2864
     54  CB       -10.7500   56.5810  -16.3700 C.3   379  VAL379      0.0276
     55  CG1      -10.4710   55.0910  -16.5830 C.3   379  VAL379      0.0022
     56  CG2      -10.5610   56.9510  -14.9000 C.3   379  VAL379      0.0022
     57  N        -14.7130   56.5060  -13.6700 N.3   397  VAL397     -0.1231
     58  CA       -15.7710   57.1130  -14.4780 C.3   397  VAL397      0.1692
     59  C        -15.3530   57.4240  -15.9010 C.2   397  VAL397      0.2592
     60  O        -14.2670   57.9760  -16.1310 O.2   397  VAL397     -0.2718
     61  CB       -16.2570   58.4300  -13.7840 C.3   397  VAL397      0.0266
     62  CG1      -17.4810   59.0200  -14.4940 C.3   397  VAL397      0.0020
     63  CG2      -16.5390   58.2290  -12.2930 C.3   397  VAL397      0.0020
     64  N        -16.2650   57.1290  -16.8470 N.am  398  LYS398     -0.1966
     65  CA       -16.1410   57.4560  -18.2610 C.3   398  LYS398      0.1728
     66  C        -17.4920   57.9760  -18.7570 C.2   398  LYS398      0.2616
     67  O        -18.5360   57.6020  -18.1990 O.2   398  LYS398     -0.2715
     68  CB       -15.6440   56.2500  -19.0660 C.3   398  LYS398      0.0311
     69  CG       -14.1320   56.0970  -18.9800 C.3   398  LYS398      0.0038
     70  CD       -13.5070   55.2010  -20.0870 C.3   398  LYS398      0.0206
     71  CE       -13.5420   55.7640  -21.4990 C.3   398  LYS398      0.1093
     72  NZ       -12.9900   57.1440  -21.5890 N.3   398  LYS398     -0.1314
     73  N        -17.4790   58.8930  -19.7500 N.am  399  THR399     -0.1951
     74  CA       -18.7300   59.4390  -20.2940 C.3   399  THR399      0.1897
     75  C        -18.9740   58.7780  -21.6540 C.2   399  THR399      0.2313
     76  O        -18.0570   58.1900  -22.2160 O.2   399  THR399     -0.2863
     77  CB       -18.6700   60.9940  -20.4770 C.3   399  THR399      0.1794
     78  OG1      -17.7110   61.3090  -21.4830 O.3   399  THR399     -0.2208
     79  CG2      -18.3560   61.7620  -19.1860 C.3   399  THR399      0.0378
@<TRIPOS>BOND
     1    76    75    2
     2    75    74    1
     3    72    71    1
     4    71    70    1
     5    78    77    1
     6    77    74    1
     7    77    79    1
     8    74    73    1
     9    70    69    1
    10    73    66   am
    11     4     3    2
    12    53    52    2
    13    68    69    1
    14    68    65    1
    15     3     2    1
    16    52    51    1
    17    66    65    1
    18    66    67    2
    19    65    64    1
    20     1     2    1
    21     2     5    1
    22    12     9    1
    23    51    50    1
    24    51    54    1
    25     8     9    1
    26    48    47   ar
    27    45    44    2
    28    50    44   am
    29    44    43    1
    30    43    46    1
    31    43    42    1
    32    64    59   am
    33    46    47    1
    34    55    54    1
    35     9    10    1
    36     6     5    1
    37    47    49   ar
    38     5     7    1
    39    18    17    1
    40    54    56    1
    41    60    59    2
    42    59    58    1
    43    42    37   am
    44    13    10   am
    45    13    14    1
    46    17    14    1
    47    10    11    2
    48    14    15    1
    49    37    38    2
    50    37    36    1
    51    62    61    1
    52    58    61    1
    53    58    57    1
    54    40    39    1
    55    61    63    1
    56    15    16    2
    57    36    39    1
    58    36    35    1
    59    39    41    1
    60    24    25    1
    61    24    23    1
    62    25    26    1
    63    23    20    1
    64    19    20    1
    65    20    21    1
    66    32    33    1
    67    32    34    1
    68    32    31    1
    69    21    22    2
    70    31    28    1
    71    27    28    1
    72    28    29    1
    73    29    30    2
