@<TRIPOS>MOLECULE
tmp/4i9bA02.pdb
 106 103 0 0 0
SMALL
GASTEIGER

@<TRIPOS>ATOM
      1  N        -15.2220   38.6600    2.7890 N.3   157  ASN157     -0.1225
      2  CA       -16.0600   39.8430    2.5580 C.3   157  ASN157      0.1785
      3  C        -17.4760   39.7920    3.1180 C.2   157  ASN157      0.2597
      4  O        -18.0420   40.8280    3.4500 O.2   157  ASN157     -0.2718
      5  CB       -15.9860   40.3060    1.0860 C.3   157  ASN157      0.1169
      6  CG       -16.7020   39.4040    0.1310 C.2   157  ASN157      0.2627
      7  OD1      -16.7610   38.1950    0.3130 O.2   157  ASN157     -0.2716
      8  ND2      -17.2310   39.9670   -0.9350 N.am  157  ASN157     -0.0877
      9  N        -18.0500   38.5860    3.2290 N.am  158  TYR158     -0.1976
     10  CA       -19.3470   38.3080    3.8760 C.3   158  TYR158      0.1639
     11  C        -19.0190   36.9930    4.6030 C.2   158  TYR158      0.2290
     12  O        -19.2460   35.9170    4.0580 O.2   158  TYR158     -0.2864
     13  CB       -20.4670   38.1300    2.8420 C.3   158  TYR158      0.0560
     14  CG       -20.7820   39.3800    2.0620 C.ar  158  TYR158     -0.0198
     15  CD1      -21.8010   40.2390    2.4690 C.ar  158  TYR158     -0.0009
     16  CD2      -20.1370   39.6550    0.8550 C.ar  158  TYR158     -0.0009
     17  CE1      -22.1210   41.3790    1.7360 C.ar  158  TYR158      0.0417
     18  CE2      -20.4360   40.8020    0.1230 C.ar  158  TYR158      0.0417
     19  CZ       -21.4380   41.6530    0.5630 C.ar  158  TYR158      0.1957
     20  OH       -21.7620   42.7710   -0.1510 O.3   158  TYR158     -0.2866
     21  N        -22.2730   35.0160    5.7550 N.3   161  LEU161     -0.1231
     22  CA       -23.2030   34.9170    4.6160 C.3   161  LEU161      0.1693
     23  C        -22.6970   34.0790    3.4540 C.2   161  LEU161      0.2591
     24  O        -23.4480   33.2500    2.9560 O.2   161  LEU161     -0.2718
     25  CB       -23.7010   36.2950    4.1160 C.3   161  LEU161      0.0284
     26  CG       -24.8170   36.2860    3.0430 C.3   161  LEU161      0.0019
     27  CD1      -26.0900   35.5330    3.5280 C.3   161  LEU161      0.0001
     28  CD2      -25.1740   37.6950    2.6220 C.3   161  LEU161      0.0001
     29  N        -21.4450   34.3100    3.0030 N.am  162  MET162     -0.1979
     30  CA       -20.8950   33.5590    1.8700 C.3   162  MET162      0.1605
     31  C        -20.7200   32.0830    2.2370 C.2   162  MET162      0.2287
     32  O        -20.8800   31.2380    1.3620 O.2   162  MET162     -0.2864
     33  CB       -19.5700   34.1710    1.3710 C.3   162  MET162      0.0413
     34  CG       -19.7230   35.5040    0.6630 C.3   162  MET162      0.0598
     35  SD       -20.7200   35.4720   -0.8440 S.3   162  MET162     -0.1393
     36  CE       -22.2200   36.2160   -0.2520 C.3   162  MET162      0.0692
     37  N        -24.3140   30.5990    1.9200 N.3   165  TRP165     -0.1241
     38  CA       -24.7080   30.4330    0.5220 C.3   165  TRP165      0.1605
     39  C        -24.2860   29.0600    0.0300 C.2   165  TRP165      0.2264
     40  O        -24.9270   28.4990   -0.8540 O.2   165  TRP165     -0.2867
     41  CB       -24.0360   31.5060   -0.3400 C.3   165  TRP165      0.0550
     42  CG       -24.7710   32.8130   -0.4170 C.ar  165  TRP165      0.0003
     43  CD1      -25.6750   33.3240    0.4750 C.ar  165  TRP165      0.0946
     44  CD2      -24.6340   33.7870   -1.4590 C.ar  165  TRP165      0.0152
     45  NE1      -26.1020   34.5710    0.0530 N.ar  165  TRP165     -0.2442
     46  CE2      -25.4850   34.8720   -1.1380 C.ar  165  TRP165      0.0810
     47  CE3      -23.8730   33.8430   -2.6460 C.ar  165  TRP165      0.0012
     48  CZ2      -25.5870   36.0080   -1.9550 C.ar  165  TRP165      0.0191
     49  CZ3      -23.9930   34.9590   -3.4640 C.ar  165  TRP165      0.0001
     50  CH2      -24.8440   36.0240   -3.1190 C.ar  165  TRP165      0.0015
     51  N        -15.5050   30.4490   -3.7260 N.3   232  THR232     -0.1218
     52  CA       -15.7840   31.8770   -3.9300 C.3   232  THR232      0.1862
     53  C        -14.5690   32.6530   -3.4170 C.2   232  THR232      0.2287
     54  O        -14.1720   32.4730   -2.2710 O.2   232  THR232     -0.2866
     55  CB       -17.1110   32.3350   -3.3240 C.3   232  THR232      0.1770
     56  OG1      -18.1520   31.5770   -3.9170 O.3   232  THR232     -0.2211
     57  CG2      -17.3850   33.8300   -3.5690 C.3   232  THR232      0.0375
     58  N        -16.7660   43.8540   -2.7420 N.3   289  VAL289     -0.1231
     59  CA       -17.9660   43.1840   -3.2660 C.3   289  VAL289      0.1692
     60  C        -17.6010   42.7330   -4.6680 C.2   289  VAL289      0.2592
     61  O        -17.2310   43.5650   -5.4890 O.2   289  VAL289     -0.2718
     62  CB       -19.1780   44.1650   -3.2670 C.3   289  VAL289      0.0266
     63  CG1      -20.4200   43.5450   -3.9150 C.3   289  VAL289      0.0020
     64  CG2      -19.5000   44.6700   -1.8630 C.3   289  VAL289      0.0020
     65  N        -17.7170   41.4140   -4.9380 N.am  290  CYS290     -0.1956
     66  CA       -17.3630   40.8290   -6.2370 C.3   290  CYS290      0.1843
     67  C        -18.0940   41.5060   -7.3890 C.2   290  CYS290      0.2626
     68  O        -17.4900   41.7900   -8.4220 O.2   290  CYS290     -0.2714
     69  CB       -17.5920   39.3200   -6.2410 C.3   290  CYS290      0.0997
     70  SG       -16.7710   38.4800   -4.9320 S.3   290  CYS290     -0.0797
     71  N        -19.4040   41.7620   -7.2010 N.am  291  SER291     -0.1950
     72  CA       -20.3410   42.3500   -8.1500 C.3   291  SER291      0.1924
     73  C        -20.3960   43.8820   -8.0870 C.2   291  SER291      0.2314
     74  O        -21.3060   44.4550   -8.6710 O.2   291  SER291     -0.2863
     75  CB       -21.7340   41.7730   -7.8850 C.3   291  SER291      0.2116
     76  OG       -22.1690   42.1100   -6.5690 O.3   291  SER291     -0.2180
     77  N        -26.8320   45.9790   -7.0200 N.3   447  GLN447     -0.1245
     78  CA       -26.5900   45.0420   -5.9090 C.3   447  GLN447      0.1566
     79  C        -27.7570   44.1790   -5.3560 C.2   447  GLN447      0.2260
     80  O        -27.4590   43.0720   -4.9120 O.2   447  GLN447     -0.2867
     81  CB       -25.7370   45.6460   -4.7560 C.3   447  GLN447      0.0367
     82  CG       -24.3940   46.3000   -5.1920 C.3   447  GLN447      0.0905
     83  CD       -23.6480   45.4370   -6.1870 C.2   447  GLN447      0.2608
     84  OE1      -23.2860   44.3090   -5.8830 O.2   447  GLN447     -0.2717
     85  NE2      -23.5040   45.8940   -7.4320 N.am  447  GLN447     -0.0878
     86  N        -30.3030   41.3400   -4.4180 N.3   449  THR449     -0.1218
     87  CA       -30.5210   39.9720   -4.8620 C.3   449  THR449      0.1862
     88  C        -31.3920   39.2050   -3.9030 C.2   449  THR449      0.2287
     89  O        -31.5910   39.6220   -2.7610 O.2   449  THR449     -0.2866
     90  CB       -29.2390   39.2500   -5.2810 C.3   449  THR449      0.1770
     91  OG1      -29.6380   38.2110   -6.1730 O.3   449  THR449     -0.2211
     92  CG2      -28.4290   38.6990   -4.0850 C.3   449  THR449      0.0375
     93  N        -27.1080   33.1530   -9.0070 N.3   455  TRP455     -0.1241
     94  CA       -26.0690   34.1510   -8.8280 C.3   455  TRP455      0.1605
     95  C        -24.7430   33.6110   -9.3240 C.2   455  TRP455      0.2264
     96  O        -24.2500   32.5950   -8.8250 O.2   455  TRP455     -0.2867
     97  CB       -25.9580   34.5350   -7.3380 C.3   455  TRP455      0.0550
     98  CG       -24.8590   35.5250   -7.0780 C.ar  455  TRP455      0.0003
     99  CD1      -23.5120   35.2760   -7.0300 C.ar  455  TRP455      0.0946
    100  CD2      -25.0100   36.9360   -6.9320 C.ar  455  TRP455      0.0152
    101  NE1      -22.8320   36.4360   -6.7890 N.ar  455  TRP455     -0.2442
    102  CE2      -23.7230   37.4760   -6.7310 C.ar  455  TRP455      0.0810
    103  CE3      -26.1200   37.7990   -6.9070 C.ar  455  TRP455      0.0012
    104  CZ2      -23.5060   38.8450   -6.5400 C.ar  455  TRP455      0.0191
    105  CZ3      -25.9040   39.1540   -6.7170 C.ar  455  TRP455      0.0001
    106  CH2      -24.6100   39.6670   -6.5380 C.ar  455  TRP455      0.0015
@<TRIPOS>BOND
     1    95    94    1
     2    95    96    2
     3    93    94    1
     4    94    97    1
     5    74    73    2
     6    68    67    2
     7    72    73    1
     8    72    75    1
     9    72    71    1
    10    75    76    1
    11    85    83   am
    12    67    71   am
    13    67    66    1
    14    97    98    1
    15    98    99   ar
    16    98   100   ar
    17    99   101   ar
    18    77    78    1
    19   100   103   ar
    20   100   102   ar
    21   103   105   ar
    22   101   102   ar
    23   102   104   ar
    24   105   106   ar
    25   104   106   ar
    26    69    66    1
    27    69    70    1
    28    66    65    1
    29    83    84    2
    30    83    82    1
    31    91    90    1
    32    78    79    1
    33    78    81    1
    34    61    60    2
    35    79    80    2
    36    90    87    1
    37    90    92    1
    38    82    81    1
    39    65    60   am
    40    87    86    1
    41    87    88    1
    42    60    59    1
    43    52    51    1
    44    52    53    1
    45    52    55    1
    46    56    55    1
    47    63    62    1
    48    88    89    2
    49    57    55    1
    50    49    50   ar
    51    49    47   ar
    52    53    54    2
    53    62    59    1
    54    62    64    1
    55    59    58    1
    56    50    48   ar
    57    47    44   ar
    58    48    46   ar
    59    44    46   ar
    60    44    42   ar
    61    46    45   ar
    62     8     6   am
    63    40    39    2
    64    35    36    1
    65    35    34    1
    66    42    41    1
    67    42    43   ar
    68    41    38    1
    69    20    19    1
    70    39    38    1
    71    45    43   ar
    72    18    19   ar
    73    18    16   ar
    74     6     7    2
    75     6     5    1
    76    38    37    1
    77    19    17   ar
    78    34    33    1
    79    16    14   ar
    80     5     2    1
    81    32    31    2
    82    33    30    1
    83    17    15   ar
    84    30    31    1
    85    30    29    1
    86    14    15   ar
    87    14    13    1
    88     2     1    1
    89     2     3    1
    90    28    26    1
    91    13    10    1
    92    24    23    2
    93    29    23   am
    94    26    27    1
    95    26    25    1
    96     3     9   am
    97     3     4    2
    98     9    10    1
    99    23    22    1
   100    10    11    1
   101    12    11    2
   102    25    22    1
   103    22    21    1
