@<TRIPOS>MOLECULE
tmp/4i9bA00.pdb
 159 155 0 0 0
SMALL
GASTEIGER

@<TRIPOS>ATOM
      1  N        -14.9720   26.4880    0.0360 N.3   153  ILE153     -0.1231
      2  CA       -13.9020   27.4390    0.3490 C.3   153  ILE153      0.1692
      3  C        -14.4380   28.8190    0.0750 C.2   153  ILE153      0.2593
      4  O        -14.7970   29.1390   -1.0560 O.2   153  ILE153     -0.2718
      5  CB       -12.6110   27.1100   -0.4350 C.3   153  ILE153      0.0266
      6  CG1      -12.1650   25.6460   -0.2230 C.3   153  ILE153      0.0019
      7  CG2      -11.5170   28.0830   -0.0460 C.3   153  ILE153      0.0020
      8  CD1      -11.1880   25.0910   -1.2900 C.3   153  ILE153      0.0001
      9  N        -14.5630   29.5950    1.1390 N.am  154  THR154     -0.1940
     10  CA       -15.2360   30.8740    1.1550 C.3   154  THR154      0.2013
     11  C        -14.3840   32.0780    1.5110 C.2   154  THR154      0.2484
     12  O        -13.3130   31.9300    2.1200 O.2   154  THR154     -0.2729
     13  CB       -16.5090   30.7730    2.0130 C.3   154  THR154      0.1807
     14  OG1      -16.1220   30.5180    3.3690 O.3   154  THR154     -0.2208
     15  CG2      -17.4920   29.7100    1.4940 C.3   154  THR154      0.0379
     16  N        -14.8460   33.2800    1.1000 N.am  155  PRO155     -0.2715
     17  CA       -14.0700   34.5000    1.3580 C.3   155  PRO155      0.1536
     18  C        -14.5080   35.2970    2.6030 C.2   155  PRO155      0.2598
     19  O        -15.5910   35.0930    3.1710 O.2   155  PRO155     -0.2715
     20  CB       -14.3010   35.2920    0.0720 C.3   155  PRO155      0.0310
     21  CG       -15.7560   34.9890   -0.2650 C.3   155  PRO155      0.0237
     22  CD       -16.0500   33.5990    0.2900 C.3   155  PRO155      0.0939
     23  N        -13.6730   36.2790    2.9700 N.am  156  TRP156     -0.1974
     24  CA       -13.8160   37.1340    4.1510 C.3   156  TRP156      0.1640
     25  C        -14.7900   38.3070    4.0300 C.2   156  TRP156      0.2290
     26  O        -15.0580   38.9640    5.0490 O.2   156  TRP156     -0.2864
     27  CB       -12.4310   37.6850    4.5160 C.3   156  TRP156      0.0576
     28  CG       -11.6740   38.2820    3.3600 C.ar  156  TRP156      0.0006
     29  CD1      -10.6920   37.6770    2.6210 C.ar  156  TRP156      0.0946
     30  CD2      -11.8660   39.5740    2.7860 C.ar  156  TRP156      0.0152
     31  NE1      -10.2230   38.5420    1.6610 N.ar  156  TRP156     -0.2442
     32  CE2      -10.9060   39.7240    1.7580 C.ar  156  TRP156      0.0810
     33  CE3      -12.7070   40.6600    3.0860 C.ar  156  TRP156      0.0012
     34  CZ2      -10.8120   40.8850    0.9880 C.ar  156  TRP156      0.0191
     35  CZ3      -12.6230   41.8000    2.3060 C.ar  156  TRP156      0.0001
     36  CH2      -11.6670   41.9090    1.2880 C.ar  156  TRP156      0.0015
     37  N        -14.2510   25.6480    4.7060 N.3   180  LYS180     -0.1245
     38  CA       -12.9320   26.2470    4.9210 C.3   180  LYS180      0.1561
     39  C        -13.0980   27.7590    4.7570 C.2   180  LYS180      0.2260
     40  O        -12.9350   28.2870    3.6560 O.2   180  LYS180     -0.2867
     41  CB       -11.8620   25.6420    3.9780 C.3   180  LYS180      0.0271
     42  CG       -10.4160   25.5770    4.5450 C.3   180  LYS180      0.0035
     43  CD        -9.8410   26.9390    5.0650 C.3   180  LYS180      0.0206
     44  CE        -9.4200   27.8810    3.9680 C.3   180  LYS180      0.1093
     45  NZ        -8.8880   29.1650    4.5140 N.3   180  LYS180     -0.1314
     46  N        -12.2600   31.9160    5.2680 N.3   182  SER182     -0.1202
     47  CA       -11.0340   32.6940    5.0680 C.3   182  SER182      0.2020
     48  C        -10.3520   32.9430    6.4230 C.2   182  SER182      0.2619
     49  O        -11.0280   33.2620    7.3920 O.2   182  SER182     -0.2717
     50  CB       -11.3760   34.0270    4.3990 C.3   182  SER182      0.2103
     51  OG       -10.3190   34.9520    4.5950 O.3   182  SER182     -0.2182
     52  N         -9.0120   32.8100    6.4750 N.am  183  GLU183     -0.1965
     53  CA        -8.2080   33.0700    7.6670 C.3   183  GLU183      0.1733
     54  C         -8.3120   34.5500    8.1420 C.2   183  GLU183      0.2616
     55  O         -7.8720   34.8800    9.2520 O.2   183  GLU183     -0.2715
     56  CB        -6.7310   32.6660    7.4090 C.3   183  GLU183      0.0429
     57  CG        -6.0500   33.3690    6.2310 C.3   183  GLU183      0.1163
     58  CD        -6.1050   32.5930    4.9260 C.2   183  GLU183      0.3649
     59  OE1       -5.0270   32.2990    4.3590 O.co2 183  GLU183     -0.2457
     60  OE2       -7.2230   32.2160    4.5060 O.co2 183  GLU183     -0.2457
     61  N         -8.9260   35.4220    7.3190 N.am  184  LEU184     -0.1977
     62  CA        -9.0650   36.8500    7.6170 C.3   184  LEU184      0.1596
     63  C        -10.3140   37.1590    8.4040 C.2   184  LEU184      0.2287
     64  O        -10.3630   38.1830    9.0850 O.2   184  LEU184     -0.2864
     65  CB        -9.0380   37.7000    6.3290 C.3   184  LEU184      0.0297
     66  CG        -7.6970   37.7850    5.5600 C.3   184  LEU184      0.0022
     67  CD1       -7.8180   38.7130    4.3750 C.3   184  LEU184      0.0001
     68  CD2       -6.5680   38.2640    6.4600 C.3   184  LEU184      0.0001
     69  N         -5.0360   29.3110    3.5430 N.3   213  GLY213     -0.1210
     70  CA        -5.4540   28.7930    2.2410 C.3   213  GLY213      0.1940
     71  C         -4.6900   27.5830    1.7300 C.2   213  GLY213      0.2453
     72  O         -5.2820   26.5110    1.5370 O.2   213  GLY213     -0.2732
     73  N         -3.3590   27.7060    1.4940 N.am  214  PRO214     -0.2728
     74  CA        -2.6020   26.5490    1.0020 C.3   214  PRO214      0.1401
     75  C         -2.5330   25.3540    1.9560 C.2   214  PRO214      0.2269
     76  O         -2.4640   24.2360    1.4760 O.2   214  PRO214     -0.2865
     77  CB        -1.2060   27.1360    0.7060 C.3   214  PRO214      0.0296
     78  CG        -1.4280   28.6290    0.6090 C.3   214  PRO214      0.0237
     79  CD        -2.4880   28.8900    1.6270 C.3   214  PRO214      0.0939
     80  N         -7.1110   24.7260    2.8560 N.3   217  GLY217     -0.1210
     81  CA        -7.8930   24.6990    1.6150 C.3   217  GLY217      0.1956
     82  C         -7.3050   23.8010    0.5430 C.2   217  GLY217      0.2612
     83  O         -8.0340   23.0340   -0.0920 O.2   217  GLY217     -0.2717
     84  N         -5.9890   23.9010    0.3380 N.am  218  GLY218     -0.1956
     85  CA        -5.2390   23.0990   -0.6310 C.3   218  GLY218      0.1869
     86  C         -5.4760   21.5980   -0.5690 C.2   218  GLY218      0.2309
     87  O         -5.8470   20.9830   -1.5770 O.2   218  GLY218     -0.2863
     88  N        -16.0110   27.0190   -4.7740 N.3   231  PHE231     -0.1227
     89  CA       -15.1350   28.1060   -4.3830 C.3   231  PHE231      0.1736
     90  C        -15.6810   29.5140   -4.6800 C.2   231  PHE231      0.2596
     91  O        -16.1890   29.7610   -5.7780 O.2   231  PHE231     -0.2718
     92  CB       -13.7500   27.9060   -5.0320 C.3   231  PHE231      0.0547
     93  CG       -12.7950   29.0760   -4.8530 C.ar  231  PHE231     -0.0202
     94  CD1      -12.0740   29.2350   -3.6710 C.ar  231  PHE231     -0.0042
     95  CD2      -12.6380   30.0320   -5.8560 C.ar  231  PHE231     -0.0042
     96  CE1      -11.1830   30.3120   -3.5080 C.ar  231  PHE231     -0.0003
     97  CE2      -11.7750   31.1250   -5.6790 C.ar  231  PHE231     -0.0003
     98  CZ       -11.0290   31.2410   -4.5190 C.ar  231  PHE231     -0.0000
     99  N        -15.5050   30.4490   -3.7260 N.am  232  THR232     -0.1939
    100  CA       -15.7840   31.8770   -3.9300 C.3   232  THR232      0.2028
    101  C        -14.5690   32.6530   -3.4170 C.2   232  THR232      0.2643
    102  O        -14.1720   32.4730   -2.2710 O.2   232  THR232     -0.2714
    103  CB       -17.1110   32.3350   -3.3240 C.3   232  THR232      0.1808
    104  OG1      -18.1520   31.5770   -3.9170 O.3   232  THR232     -0.2208
    105  CG2      -17.3850   33.8300   -3.5690 C.3   232  THR232      0.0379
    106  N        -13.9930   33.4910   -4.2750 N.am  233  GLY233     -0.1939
    107  CA       -12.7920   34.2540   -3.9300 C.3   233  GLY233      0.2014
    108  C        -12.0810   34.8030   -5.1480 C.2   233  GLY233      0.2639
    109  O        -12.7250   35.1220   -6.1470 O.2   233  GLY233     -0.2714
    110  N        -10.7530   34.9220   -5.0890 N.am  234  SER234     -0.1949
    111  CA       -10.0160   35.5350   -6.1970 C.3   234  SER234      0.1924
    112  C         -9.7500   34.5910   -7.3600 C.2   234  SER234      0.2314
    113  O         -9.6120   33.3830   -7.1610 O.2   234  SER234     -0.2863
    114  CB        -8.7150   36.1620   -5.6950 C.3   234  SER234      0.2116
    115  OG        -7.7780   35.1470   -5.3850 O.3   234  SER234     -0.2180
    116  N         -6.5070   32.2940   -7.0040 N.3   237  THR237     -0.1218
    117  CA        -6.7390   31.1680   -6.0820 C.3   237  THR237      0.1862
    118  C         -7.6920   30.1600   -6.7250 C.2   237  THR237      0.2287
    119  O         -7.4960   28.9470   -6.5900 O.2   237  THR237     -0.2866
    120  CB        -7.2550   31.6570   -4.7210 C.3   237  THR237      0.1770
    121  OG1       -6.2910   32.5560   -4.1720 O.3   237  THR237     -0.2211
    122  CG2       -7.5460   30.4910   -3.7480 C.3   237  THR237      0.0375
    123  N         -5.6800   28.0500   -9.0780 N.3   240  LYS240     -0.1231
    124  CA        -4.8640   27.0770   -8.3310 C.3   240  LYS240      0.1693
    125  C         -5.7370   25.9080   -7.8520 C.2   240  LYS240      0.2591
    126  O         -5.3390   24.7550   -7.9640 O.2   240  LYS240     -0.2718
    127  CB        -4.2000   27.7350   -7.1060 C.3   240  LYS240      0.0285
    128  CG        -2.9580   28.5610   -7.4170 C.3   240  LYS240      0.0035
    129  CD        -2.6870   29.5550   -6.2770 C.3   240  LYS240      0.0206
    130  CE        -1.2880   30.1160   -6.2940 C.3   240  LYS240      0.1093
    131  NZ        -0.2800   29.0730   -5.9520 N.3   240  LYS240     -0.1314
    132  N         -6.9170   26.2080   -7.3180 N.am  241  ILE241     -0.1980
    133  CA        -7.8480   25.1730   -6.8420 C.3   241  ILE241      0.1595
    134  C         -8.2810   24.2670   -8.0040 C.2   241  ILE241      0.2287
    135  O         -8.2950   23.0570   -7.8480 O.2   241  ILE241     -0.2864
    136  CB        -9.0570   25.8010   -6.0830 C.3   241  ILE241      0.0276
    137  CG1       -8.6170   26.2530   -4.6820 C.3   241  ILE241      0.0022
    138  CG2      -10.2550   24.8220   -5.9840 C.3   241  ILE241      0.0022
    139  CD1       -9.5290   27.1340   -4.0310 C.3   241  ILE241      0.0001
    140  N         -4.6350   44.2830    1.9720 N.3   337  GLN337     -0.1245
    141  CA        -5.6840   44.9140    1.1570 C.3   337  GLN337      0.1566
    142  C         -5.5600   46.4250    1.1090 C.2   337  GLN337      0.2260
    143  O         -5.7100   46.9960    0.0490 O.2   337  GLN337     -0.2867
    144  CB        -7.0810   44.5030    1.6090 C.3   337  GLN337      0.0367
    145  CG        -7.4430   43.0650    1.2040 C.3   337  GLN337      0.0905
    146  CD        -7.4020   42.8800   -0.2840 C.2   337  GLN337      0.2608
    147  OE1       -8.2360   43.4070   -1.0100 O.2   337  GLN337     -0.2717
    148  NE2       -6.3670   42.2160   -0.7710 N.am  337  GLN337     -0.0878
    149  N        -11.1850   45.9840   -5.4730 N.3   391  PHE391     -0.1241
    150  CA       -11.7400   45.3960   -4.2410 C.3   391  PHE391      0.1605
    151  C        -11.5580   46.3700   -3.0900 C.2   391  PHE391      0.2264
    152  O        -11.1770   45.9910   -1.9730 O.2   391  PHE391     -0.2867
    153  CB       -11.1560   43.9810   -3.9560 C.3   391  PHE391      0.0534
    154  CG       -12.2020   42.9980   -3.5120 C.ar  391  PHE391     -0.0203
    155  CD1      -13.2130   42.5940   -4.3800 C.ar  391  PHE391     -0.0042
    156  CD2      -12.1800   42.4680   -2.2300 C.ar  391  PHE391     -0.0042
    157  CE1      -14.1840   41.6730   -3.9690 C.ar  391  PHE391     -0.0003
    158  CE2      -13.1430   41.5310   -1.8250 C.ar  391  PHE391     -0.0003
    159  CZ       -14.1540   41.1690   -2.6810 C.ar  391  PHE391     -0.0000
@<TRIPOS>BOND
     1   123   124    1
     2   124   125    1
     3   124   127    1
     4   134   135    2
     5   134   133    1
     6   126   125    2
     7   125   132   am
     8   128   127    1
     9   128   129    1
    10   112   113    2
    11   112   111    1
    12   132   133    1
    13   116   117    1
    14   133   136    1
    15   118   119    2
    16   118   117    1
    17   130   129    1
    18   130   131    1
    19   111   114    1
    20   111   110    1
    21   109   108    2
    22   136   138    1
    23   136   137    1
    24   117   120    1
    25    95    97   ar
    26    95    93   ar
    27    91    90    2
    28   114   115    1
    29    97    98   ar
    30   149   150    1
    31   108   110   am
    32   108   107    1
    33    92    93    1
    34    92    89    1
    35    93    94   ar
    36    88    89    1
    37   120   121    1
    38   120   122    1
    39   137   139    1
    40    90    89    1
    41    90    99   am
    42    98    96   ar
    43   155   157   ar
    44   155   154   ar
    45   106   107    1
    46   106   101   am
    47   150   153    1
    48   150   151    1
    49   157   159   ar
    50   153   154    1
    51   100    99    1
    52   100   101    1
    53   100   103    1
    54   104   103    1
    55    94    96   ar
    56   105   103    1
    57   154   156   ar
    58   101   102    2
    59   151   152    2
    60   159   158   ar
    61   156   158   ar
    62    87    86    2
    63     8     6    1
    64     4     3    2
    65   147   146    2
    66   148   146   am
    67    85    86    1
    68    85    84    1
    69     5     6    1
    70     5     7    1
    71     5     2    1
    72   146   145    1
    73    21    20    1
    74    21    22    1
    75    83    82    2
    76     1     2    1
    77   143   142    2
    78    20    17    1
    79     3     2    1
    80     3     9   am
    81    22    16    1
    82    84    82   am
    83    82    81    1
    84    78    77    1
    85    78    79    1
    86    77    74    1
    87    34    36   ar
    88    34    32   ar
    89    74    73    1
    90    74    75    1
    91    16    17    1
    92    16    11   am
    93   142   141    1
    94     9    10    1
    95    10    11    1
    96    10    13    1
    97   141   144    1
    98   141   140    1
    99   145   144    1
   100    36    35   ar
   101    17    18    1
   102    76    75    2
   103    15    13    1
   104    73    79    1
   105    73    71   am
   106    11    12    2
   107    72    71    2
   108    81    80    1
   109    31    32   ar
   110    31    29   ar
   111    71    70    1
   112    32    30   ar
   113    13    14    1
   114    70    69    1
   115    35    33   ar
   116    18    23   am
   117    18    19    2
   118    29    28   ar
   119    30    33   ar
   120    30    28   ar
   121    23    24    1
   122    28    27    1
   123    40    39    2
   124    44    45    1
   125    44    43    1
   126    41    42    1
   127    41    38    1
   128    25    24    1
   129    25    26    2
   130    24    27    1
   131    59    58   ar
   132    67    66    1
   133    50    51    1
   134    50    47    1
   135    60    58   ar
   136    42    43    1
   137    37    38    1
   138    39    38    1
   139    58    57    1
   140    47    46    1
   141    47    48    1
   142    66    65    1
   143    66    68    1
   144    57    56    1
   145    65    62    1
   146    48    52   am
   147    48    49    2
   148    52    53    1
   149    61    62    1
   150    61    54   am
   151    56    53    1
   152    62    63    1
   153    53    54    1
   154    54    55    2
   155    63    64    2
