@<TRIPOS>MOLECULE
tmp/4i9dA00.pdb
 122 119 0 0 0
SMALL
GASTEIGER

@<TRIPOS>ATOM
      1  N         -2.0840   -8.7910  -41.6360 N.3    20  TYR20      -0.1227
      2  CA        -1.8050   -7.5190  -40.9270 C.3    20  TYR20       0.1736
      3  C         -0.9330   -6.6880  -41.8200 C.2    20  TYR20       0.2596
      4  O         -1.2490   -6.4310  -42.9790 O.2    20  TYR20      -0.2718
      5  CB        -1.1770   -7.8120  -39.5180 C.3    20  TYR20       0.0548
      6  CG        -2.0910   -8.6700  -38.6920 C.ar   20  TYR20      -0.0200
      7  CD1       -2.0820  -10.0790  -38.8340 C.ar   20  TYR20      -0.0009
      8  CD2       -3.0450   -8.0960  -37.8260 C.ar   20  TYR20      -0.0009
      9  CE1       -2.9140  -10.9040  -38.1090 C.ar   20  TYR20       0.0417
     10  CE2       -3.9650   -8.8990  -37.1100 C.ar   20  TYR20       0.0417
     11  CZ        -3.8530  -10.3370  -37.2330 C.ar   20  TYR20       0.1957
     12  OH        -4.7150  -11.0150  -36.4530 O.3    20  TYR20      -0.2866
     13  N          0.1920   -6.1900  -41.3340 N.am   21  THR21      -0.1953
     14  CA         0.8840   -5.2740  -42.1980 C.3    21  THR21       0.1897
     15  C          1.3160   -6.0220  -43.5270 C.2    21  THR21       0.2313
     16  O          1.5320   -7.2670  -43.6030 O.2    21  THR21      -0.2863
     17  CB         1.9020   -4.4690  -41.3140 C.3    21  THR21       0.1794
     18  OG1        2.6460   -3.5360  -42.0890 O.3    21  THR21      -0.2208
     19  CG2        2.8100   -5.4340  -40.6170 C.3    21  THR21       0.0378
     20  N         -5.8040   -1.0510  -41.3890 N.3    25  MET25      -0.1245
     21  CA        -7.0030   -1.5980  -40.8070 C.3    25  MET25       0.1570
     22  C         -8.1870   -0.7670  -41.3020 C.2    25  MET25       0.2261
     23  O         -9.3030   -1.3230  -41.4840 O.2    25  MET25      -0.2867
     24  CB        -6.9640   -1.5570  -39.2550 C.3    25  MET25       0.0387
     25  CG        -5.7690   -2.3070  -38.7050 C.3    25  MET25       0.0595
     26  SD        -5.6480   -2.0550  -36.9120 S.3    25  MET25      -0.1393
     27  CE        -7.2600   -2.7110  -36.5880 C.3    25  MET25       0.0692
     28  N         -0.6040  -16.9670  -36.2370 N.3    95  ARG95      -0.1245
     29  CA        -0.4200  -15.5160  -36.4410 C.3    95  ARG95       0.1563
     30  C         -1.3900  -14.6550  -35.6260 C.2    95  ARG95       0.2260
     31  O         -1.1550  -13.4440  -35.4590 O.2    95  ARG95      -0.2867
     32  CB        -0.5390  -15.2280  -37.9380 C.3    95  ARG95       0.0307
     33  CG        -0.4210  -13.7840  -38.2920 C.3    95  ARG95       0.0489
     34  CD         1.0520  -13.4300  -38.1880 C.3    95  ARG95       0.2205
     35  NE         1.3190  -12.0150  -38.4560 N.pl3  95  ARG95      -0.0865
     36  CZ         1.1840  -11.0360  -37.5650 C.cat  95  ARG95       0.5346
     37  NH1        1.5350   -9.7810  -37.9360 N.pl3  95  ARG95       0.1354
     38  NH2        0.7300  -11.2950  -36.3270 N.pl3  95  ARG95       0.1354
     39  N         -2.3080  -13.2110  -30.5770 N.3    98  TRP98      -0.1241
     40  CA        -2.6110  -12.0420  -29.7180 C.3    98  TRP98       0.1605
     41  C         -4.0950  -11.8800  -29.4190 C.2    98  TRP98       0.2264
     42  O         -4.4420  -11.2840  -28.4390 O.2    98  TRP98      -0.2867
     43  CB        -2.1660  -10.7430  -30.4050 C.3    98  TRP98       0.0550
     44  CG        -2.9790  -10.4370  -31.6670 C.ar   98  TRP98       0.0003
     45  CD1       -2.8230  -10.9420  -32.9830 C.ar   98  TRP98       0.0946
     46  CD2       -4.1470   -9.6220  -31.7260 C.ar   98  TRP98       0.0152
     47  NE1       -3.7700  -10.4770  -33.7870 N.ar   98  TRP98      -0.2442
     48  CE2       -4.6250   -9.6940  -33.1350 C.ar   98  TRP98       0.0810
     49  CE3       -4.8350   -8.8700  -30.8120 C.ar   98  TRP98       0.0012
     50  CZ2       -5.7380   -8.9920  -33.5770 C.ar   98  TRP98       0.0191
     51  CZ3       -5.9900   -8.1930  -31.2270 C.ar   98  TRP98       0.0001
     52  CH2       -6.4290   -8.2240  -32.5920 C.ar   98  TRP98       0.0015
     53  N        -10.2550   -6.8600  -38.1530 N.3   135  ARG135     -0.1245
     54  CA        -9.5610   -8.1060  -38.6910 C.3   135  ARG135      0.1563
     55  C         -9.2920   -8.9580  -37.4980 C.2   135  ARG135      0.2260
     56  O         -9.1440   -8.4260  -36.3800 O.2   135  ARG135     -0.2867
     57  CB        -8.2880   -7.7230  -39.4550 C.3   135  ARG135      0.0307
     58  CG        -7.2430   -7.0130  -38.5910 C.3   135  ARG135      0.0489
     59  CD        -6.2480   -6.3740  -39.5370 C.3   135  ARG135      0.2205
     60  NE        -5.2220   -5.6470  -38.7610 N.pl3 135  ARG135     -0.0865
     61  CZ        -4.2230   -4.9720  -39.3200 C.cat 135  ARG135      0.5346
     62  NH1       -4.1770   -4.7050  -40.6340 N.pl3 135  ARG135      0.1354
     63  NH2       -3.2560   -4.5040  -38.5000 N.pl3 135  ARG135      0.1354
     64  N         -7.6380    6.7240  -26.4460 N.3   245  GLU245     -0.1245
     65  CA        -6.7140    5.6440  -25.9370 C.3   245  GLU245      0.1567
     66  C         -5.6110    6.3200  -25.1680 C.2   245  GLU245      0.2260
     67  O         -5.5180    7.5910  -25.2150 O.2   245  GLU245     -0.2867
     68  CB        -6.1690    4.7890  -27.0960 C.3   245  GLU245      0.0388
     69  CG        -5.2900    5.6300  -28.0810 C.3   245  GLU245      0.1160
     70  CD        -5.2780    5.0520  -29.4860 C.2   245  GLU245      0.3649
     71  OE1       -4.3420    5.4260  -30.2390 O.co2 245  GLU245     -0.2457
     72  OE2       -6.2000    4.2810  -29.9170 O.co2 245  GLU245     -0.2457
     73  N         -2.2560    2.2330  -25.7180 N.3   395  THR395     -0.1203
     74  CA        -3.3440    1.2560  -25.7570 C.3   395  THR395      0.1994
     75  C         -3.9920    1.2790  -27.0880 C.2   395  THR395      0.2617
     76  O         -3.5600    1.9680  -28.0390 O.2   395  THR395     -0.2717
     77  CB        -4.2860    1.4190  -24.5830 C.3   395  THR395      0.1784
     78  OG1       -5.0940    2.6160  -24.6690 O.3   395  THR395     -0.2211
     79  CG2       -3.5550    1.3370  -23.2340 C.3   395  THR395      0.0376
     80  N         -5.0750    0.5400  -27.1710 N.am  396  TRP396     -0.1975
     81  CA        -5.6340    0.2220  -28.5190 C.3   396  TRP396      0.1640
     82  C         -6.9390    0.8150  -28.8670 C.2   396  TRP396      0.2290
     83  O         -7.3890    0.7600  -30.0580 O.2   396  TRP396     -0.2864
     84  CB        -5.6900   -1.3060  -28.6600 C.3   396  TRP396      0.0576
     85  CG        -4.3360   -1.9730  -28.7000 C.ar  396  TRP396      0.0006
     86  CD1       -3.0380   -1.3810  -28.8450 C.ar  396  TRP396      0.0946
     87  CD2       -4.0980   -3.4090  -28.5830 C.ar  396  TRP396      0.0152
     88  NE1       -2.0840   -2.3620  -28.8860 N.ar  396  TRP396     -0.2442
     89  CE2       -2.6720   -3.6090  -28.6390 C.ar  396  TRP396      0.0810
     90  CE3       -4.9350   -4.5310  -28.4190 C.ar  396  TRP396      0.0012
     91  CZ2       -2.1020   -4.9030  -28.5880 C.ar  396  TRP396      0.0191
     92  CZ3       -4.3220   -5.8270  -28.3310 C.ar  396  TRP396      0.0001
     93  CH2       -2.9270   -5.9700  -28.4870 C.ar  396  TRP396      0.0015
     94  N        -11.0480   -2.6630  -28.0650 N.3   400  TYR400     -0.1241
     95  CA        -9.9690   -3.4830  -27.4920 C.3   400  TYR400      0.1605
     96  C         -9.6730   -3.2080  -26.0480 C.2   400  TYR400      0.2264
     97  O         -9.1330   -4.0630  -25.3380 O.2   400  TYR400     -0.2867
     98  CB        -8.6550   -3.1930  -28.2550 C.3   400  TYR400      0.0534
     99  CG        -8.6610   -3.4670  -29.7280 C.ar  400  TYR400     -0.0201
    100  CD1       -8.2890   -4.7280  -30.2250 C.ar  400  TYR400     -0.0009
    101  CD2       -8.9610   -2.4220  -30.6290 C.ar  400  TYR400     -0.0009
    102  CE1       -8.3010   -4.9210  -31.6360 C.ar  400  TYR400      0.0417
    103  CE2       -8.9670   -2.6290  -32.0220 C.ar  400  TYR400      0.0417
    104  CZ        -8.6170   -3.9100  -32.4670 C.ar  400  TYR400      0.1957
    105  OH        -8.6950   -4.1040  -33.8420 O.3   400  TYR400     -0.2866
    106  N          5.1110   -9.4420  -26.9840 N.3   414  HIS414     -0.1241
    107  CA         4.5310   -8.0970  -26.9410 C.3   414  HIS414      0.1621
    108  C          5.3090   -7.3080  -25.8640 C.2   414  HIS414      0.2264
    109  O          5.8720   -7.8460  -24.8960 O.2   414  HIS414     -0.2867
    110  CB         3.0030   -8.1010  -26.5960 C.3   414  HIS414      0.0745
    111  CG         2.0870   -8.4420  -27.7660 C.ar  414  HIS414      0.0817
    112  ND1        0.9260   -7.7650  -28.0160 N.ar  414  HIS414     -0.2268
    113  CD2        2.2120   -9.4010  -28.7900 C.ar  414  HIS414      0.1154
    114  CE1        0.3530   -8.2810  -29.1380 C.ar  414  HIS414      0.1986
    115  NE2        1.1430   -9.2670  -29.6050 N.ar  414  HIS414     -0.2212
    116  N         -9.9020    2.5360  -34.6520 N.3   488  THR488     -0.1218
    117  CA        -9.1150    2.3810  -35.8590 C.3   488  THR488      0.1862
    118  C         -9.8680    2.5770  -37.1970 C.2   488  THR488      0.2287
    119  O         -9.2930    2.4870  -38.2430 O.2   488  THR488     -0.2866
    120  CB        -8.4510    1.0160  -35.8980 C.3   488  THR488      0.1770
    121  OG1       -9.4360   -0.0360  -35.7900 O.3   488  THR488     -0.2211
    122  CG2       -7.4010    0.8350  -34.7080 C.3   488  THR488      0.0375
@<TRIPOS>BOND
     1    16    15    2
     2    15    14    1
     3     4     3    2
     4    14    13    1
     5    14    17    1
     6    18    17    1
     7     3    13   am
     8     3     2    1
     9     1     2    1
    10    23    22    2
    11    20    21    1
    12    17    19    1
    13    22    21    1
    14     2     5    1
    15    21    24    1
    16    62    61    1
    17    59    60    1
    18    59    58    1
    19     5     6    1
    20    57    54    1
    21    57    58    1
    22    61    60    2
    23    61    63    1
    24    24    25    1
    25     7     6   ar
    26     7     9   ar
    27    25    26    1
    28     6     8   ar
    29    54    53    1
    30    54    55    1
    31    35    34    1
    32    35    36    2
    33    33    34    1
    34    33    32    1
    35   119   118    2
    36     9    11   ar
    37    32    29    1
    38    37    36    1
    39     8    10   ar
    40    36    38    1
    41    55    56    2
    42    11    10   ar
    43    11    12    1
    44   118   117    1
    45    26    27    1
    46    29    28    1
    47    29    30    1
    48   120   117    1
    49   120   121    1
    50   120   122    1
    51   117   116    1
    52    30    31    2
    53   105   104    1
    54    47    48   ar
    55    47    45   ar
    56    50    48   ar
    57    50    52   ar
    58    48    46   ar
    59    45    44   ar
    60    52    51   ar
    61   104   103   ar
    62   104   102   ar
    63   103   101   ar
    64    46    44   ar
    65    46    49   ar
    66    44    43    1
    67   102   100   ar
    68    51    49   ar
    69   101    99   ar
    70    39    40    1
    71    43    40    1
    72    71    70   ar
    73   100    99   ar
    74    83    82    2
    75    72    70   ar
    76    99    98    1
    77    40    41    1
    78   115   114   ar
    79   115   113   ar
    80    70    69    1
    81    41    42    2
    82   114   112   ar
    83    88    86   ar
    84    88    89   ar
    85    82    81    1
    86    86    85   ar
    87   113   111   ar
    88    85    84    1
    89    85    87   ar
    90    84    81    1
    91    89    91   ar
    92    89    87   ar
    93    91    93   ar
    94    87    90   ar
    95    81    80    1
    96    93    92   ar
    97    90    92   ar
    98    98    95    1
    99    69    68    1
   100    94    95    1
   101    76    75    2
   102   112   111   ar
   103   111   110    1
   104    95    96    1
   105    80    75   am
   106    68    65    1
   107    75    74    1
   108   106   107    1
   109   107   110    1
   110   107   108    1
   111    64    65    1
   112    96    97    2
   113    65    66    1
   114   108   109    2
   115    74    73    1
   116    74    77    1
   117    67    66    2
   118    78    77    1
   119    77    79    1
