@<TRIPOS>MOLECULE
tmp/4i9eA00.pdb
 127 120 0 0 0
SMALL
GASTEIGER

@<TRIPOS>ATOM
      1  N         14.9690   26.8970   31.8190 N.3     1  GLY1       -0.1210
      2  CA        15.2760   28.3140   32.2930 C.3     1  GLY1        0.1956
      3  C         15.6600   29.1740   31.0920 C.2     1  GLY1        0.2612
      4  O         15.4530   28.7590   29.9800 O.2     1  GLY1       -0.2717
      5  N         16.2460   30.3410   31.2980 N.am    2  ALA2       -0.1965
      6  CA        16.6060   31.2210   30.1900 C.3     2  ALA2        0.1728
      7  C         17.6510   30.6460   29.2320 C.2     2  ALA2        0.2616
      8  O         18.6100   29.9820   29.6510 O.2     2  ALA2       -0.2715
      9  CB        17.0420   32.6500   30.6910 C.3     2  ALA2        0.0334
     10  N         17.4610   30.9260   27.9520 N.am    3  MET3       -0.1963
     11  CA        18.4610   30.5890   26.9620 C.3     3  MET3        0.1736
     12  C         19.6340   31.5070   27.0730 C.2     3  MET3        0.2617
     13  O         19.5040   32.7380   26.9570 O.2     3  MET3       -0.2715
     14  CB        17.9040   30.7470   25.5740 C.3     3  MET3        0.0427
     15  CG        17.2590   29.5410   25.1520 C.3     3  MET3        0.0599
     16  SD        16.8770   29.6830   23.4520 S.3     3  MET3       -0.1393
     17  CE        15.7470   28.3180   23.3200 C.3     3  MET3        0.0692
     18  N         20.7910   30.9070   27.2620 N.am    4  THR4       -0.1937
     19  CA        21.9630   31.7140   27.5150 C.3     4  THR4        0.2028
     20  C         22.8170   32.0860   26.2770 C.2     4  THR4        0.2643
     21  O         22.9770   33.2920   26.0420 O.2     4  THR4       -0.2714
     22  CB        22.7750   31.2690   28.7210 C.3     4  THR4        0.1808
     23  OG1       24.0520   31.9150   28.6200 O.3     4  THR4       -0.2208
     24  CG2       22.9750   29.7550   28.7580 C.3     4  THR4        0.0379
     25  N         23.4590   31.1450   25.5520 N.am    5  GLY5       -0.1939
     26  CA        24.1330   29.9300   26.0790 C.3     5  GLY5        0.2014
     27  C         25.3530   29.5380   25.2270 C.2     5  GLY5        0.2638
     28  O         25.8640   30.3720   24.4390 O.2     5  GLY5       -0.2714
     29  N         25.8450   28.3040   25.4550 N.am    6  VAL6       -0.1977
     30  CA        26.5940   27.4150   24.4750 C.3     6  VAL6        0.1596
     31  C         28.0120   26.7770   24.7460 C.2     6  VAL6        0.2287
     32  O         28.0980   25.5480   24.9550 O.2     6  VAL6       -0.2864
     33  CB        26.4220   27.8180   22.9490 C.3     6  VAL6        0.0276
     34  CG1       27.2890   26.9400   22.0480 C.3     6  VAL6        0.0022
     35  CG2       24.9790   27.6260   22.5260 C.3     6  VAL6        0.0022
     36  N         26.0090   31.7280   36.1110 N.3   155  TYR155     -0.1241
     37  CA        25.9150   30.3030   36.3620 C.3   155  TYR155      0.1605
     38  C         25.9550   29.9580   37.8650 C.2   155  TYR155      0.2264
     39  O         25.3040   29.0090   38.3080 O.2   155  TYR155     -0.2867
     40  CB        27.0090   29.5450   35.6000 C.3   155  TYR155      0.0534
     41  CG        27.0090   29.7810   34.1170 C.ar  155  TYR155     -0.0201
     42  CD1       25.8040   29.8870   33.3970 C.ar  155  TYR155     -0.0009
     43  CD2       28.2140   29.8820   33.4150 C.ar  155  TYR155     -0.0009
     44  CE1       25.8140   30.1150   32.0470 C.ar  155  TYR155      0.0417
     45  CE2       28.2290   30.1080   32.0430 C.ar  155  TYR155      0.0417
     46  CZ        27.0200   30.2170   31.3690 C.ar  155  TYR155      0.1957
     47  OH        27.0260   30.4200   30.0030 O.3   155  TYR155     -0.2866
     48  N         16.9400   33.7810   20.7510 N.3   225  ARG225     -0.1245
     49  CA        17.1550   33.5890   22.1620 C.3   225  ARG225      0.1563
     50  C         16.4270   34.6210   23.0320 C.2   225  ARG225      0.2260
     51  O         15.8480   34.2690   24.0320 O.2   225  ARG225     -0.2867
     52  CB        18.6430   33.5970   22.4390 C.3   225  ARG225      0.0307
     53  CG        19.2590   32.2590   22.1360 C.3   225  ARG225      0.0489
     54  CD        20.6040   32.1960   22.7540 C.3   225  ARG225      0.2205
     55  NE        21.3580   31.1570   22.0760 N.pl3 225  ARG225     -0.0865
     56  CZ        21.9430   30.1190   22.6720 C.cat 225  ARG225      0.5346
     57  NH1       21.8880   29.9710   24.0000 N.pl3 225  ARG225      0.1354
     58  NH2       22.5820   29.2300   21.9090 N.pl3 225  ARG225      0.1354
     59  N         20.1520   23.0130   17.5860 N.3   261  PRO261     -0.2116
     60  CA        20.4440   22.9600   19.0220 C.3   261  PRO261      0.1372
     61  C         19.3910   23.6770   19.8950 C.2   261  PRO261      0.2244
     62  O         19.0340   23.1750   20.9670 O.2   261  PRO261     -0.2868
     63  CB        21.7930   23.6790   19.1030 C.3   261  PRO261      0.0268
     64  CG        22.4570   23.2780   17.7510 C.3   261  PRO261      0.0207
     65  CD        21.3350   23.4750   16.8170 C.3   261  PRO261      0.0892
     66  N         14.2830   23.1030   23.1590 N.3   265  GLN265     -0.1245
     67  CA        13.8470   24.0900   24.1740 C.3   265  GLN265      0.1566
     68  C         12.8410   25.0980   23.6070 C.2   265  GLN265      0.2260
     69  O         11.8480   25.3950   24.2760 O.2   265  GLN265     -0.2867
     70  CB        15.0290   24.8580   24.8040 C.3   265  GLN265      0.0367
     71  CG        14.6870   25.6990   26.0950 C.3   265  GLN265      0.0905
     72  CD        15.8810   26.5420   26.6700 C.2   265  GLN265      0.2608
     73  OE1       17.0630   26.3570   26.3200 O.2   265  GLN265     -0.2717
     74  NE2       15.5530   27.4640   27.5390 N.am  265  GLN265     -0.0878
     75  N         18.9770   14.9090   22.2280 N.3   299  ASP299     -0.1239
     76  CA        18.7980   15.6580   23.4790 C.3   299  ASP299      0.1674
     77  C         18.1300   14.7450   24.5220 C.2   299  ASP299      0.2266
     78  O         16.9050   14.6320   24.6220 O.2   299  ASP299     -0.2867
     79  CB        17.9400   16.9190   23.2170 C.3   299  ASP299      0.1410
     80  CG        18.3240   18.1050   24.1130 C.2   299  ASP299      0.3668
     81  OD1       18.4830   17.9280   25.3430 O.co2 299  ASP299     -0.2456
     82  OD2       18.4960   19.2310   23.5920 O.co2 299  ASP299     -0.2456
     83  N         17.9990   15.1810   27.7310 N.3   301  ILE301     -0.1231
     84  CA        17.2640   15.9390   28.7150 C.3   301  ILE301      0.1692
     85  C         15.9250   16.3740   28.1560 C.2   301  ILE301      0.2592
     86  O         14.9070   16.1730   28.8250 O.2   301  ILE301     -0.2718
     87  CB        18.0840   17.1400   29.2920 C.3   301  ILE301      0.0266
     88  CG1       19.2330   16.6070   30.1520 C.3   301  ILE301      0.0019
     89  CG2       17.1760   18.0260   30.1780 C.3   301  ILE301      0.0020
     90  CD1       20.3590   17.6190   30.4100 C.3   301  ILE301      0.0001
     91  N         15.9040   16.9580   26.9510 N.am  302  TYR302     -0.1976
     92  CA        14.6050   17.2630   26.3490 C.3   302  TYR302      0.1639
     93  C         13.6930   16.0710   25.9420 C.2   302  TYR302      0.2290
     94  O         12.4850   16.1850   26.0180 O.2   302  TYR302     -0.2864
     95  CB        14.7060   18.3480   25.2910 C.3   302  TYR302      0.0560
     96  CG        14.7560   19.7290   25.9350 C.ar  302  TYR302     -0.0198
     97  CD1       13.6280   20.2580   26.5720 C.ar  302  TYR302     -0.0009
     98  CD2       15.9360   20.4870   25.9610 C.ar  302  TYR302     -0.0009
     99  CE1       13.6610   21.5320   27.1880 C.ar  302  TYR302      0.0417
    100  CE2       15.9720   21.7630   26.5640 C.ar  302  TYR302      0.0417
    101  CZ        14.8410   22.2670   27.1790 C.ar  302  TYR302      0.1957
    102  OH        14.8480   23.5040   27.7820 O.3   302  TYR302     -0.2866
    103  N         12.0350   15.2970   29.1290 N.3   305  GLU305     -0.1245
    104  CA        11.1210   16.3880   29.4840 C.3   305  GLU305      0.1567
    105  C          9.8540   16.4640   28.6300 C.2   305  GLU305      0.2260
    106  O          8.8000   16.7300   29.1540 O.2   305  GLU305     -0.2867
    107  CB        11.8620   17.7480   29.5120 C.3   305  GLU305      0.0388
    108  CG        12.7540   17.8070   30.7110 C.3   305  GLU305      0.1160
    109  CD        13.5060   19.1020   30.9080 C.2   305  GLU305      0.3649
    110  OE1       13.2340   20.1590   30.2670 O.co2 305  GLU305     -0.2457
    111  OE2       14.3720   19.0490   31.7970 O.co2 305  GLU305     -0.2457
    112  N         19.7800   18.5830   37.7680 N.3   334  LEU334     -0.1245
    113  CA        18.9280   19.5990   37.1090 C.3   334  LEU334      0.1561
    114  C         17.8330   20.0470   38.0790 C.2   334  LEU334      0.2260
    115  O         16.6540   19.7990   37.8700 O.2   334  LEU334     -0.2867
    116  CB        18.3190   19.0850   35.7940 C.3   334  LEU334      0.0270
    117  CG        19.3160   18.5640   34.7520 C.3   334  LEU334      0.0019
    118  CD1       18.6340   17.6630   33.6750 C.3   334  LEU334      0.0001
    119  CD2       20.1020   19.7500   34.1550 C.3   334  LEU334      0.0001
    120  N         15.0430   22.8120   37.0680 N.3   337  ASP337     -0.1239
    121  CA        14.0090   22.1490   36.2550 C.3   337  ASP337      0.1674
    122  C         13.1390   21.2740   37.1380 C.2   337  ASP337      0.2266
    123  O         11.9460   21.3720   37.0990 O.2   337  ASP337     -0.2867
    124  CB        14.6310   21.2340   35.2140 C.3   337  ASP337      0.1410
    125  CG        15.2220   21.9720   34.0320 C.2   337  ASP337      0.3668
    126  OD1       15.6170   23.1190   34.1560 O.co2 337  ASP337     -0.2456
    127  OD2       15.3110   21.3800   32.9400 O.co2 337  ASP337     -0.2456
@<TRIPOS>BOND
     1    65    59    1
     2    65    64    1
     3    59    60    1
     4    64    63    1
     5    60    63    1
     6    60    61    1
     7    61    62    2
     8    48    49    1
     9    58    56    1
    10    34    33    1
    11    55    56    2
    12    55    54    1
    13    53    52    1
    14    53    54    1
    15    49    52    1
    16    49    50    1
    17    75    76    1
    18    35    33    1
    19    56    57    1
    20    33    30    1
    21    50    51    2
    22    66    67    1
    23    79    76    1
    24    79    80    1
    25    17    16    1
    26    16    15    1
    27    76    77    1
    28    82    80   ar
    29    68    67    1
    30    68    69    2
    31    80    81   ar
    32    67    70    1
    33    28    27    2
    34    30    31    1
    35    30    29    1
    36    77    78    2
    37    31    32    2
    38    70    71    1
    39    15    14    1
    40    27    29   am
    41    27    26    1
    42    95    96    1
    43    95    92    1
    44    25    26    1
    45    25    20   am
    46    14    11    1
    47    96    98   ar
    48    96    97   ar
    49    93    94    2
    50    93    92    1
    51    98   100   ar
    52    21    20    2
    53    71    72    1
    54    20    19    1
    55    73    72    2
    56    92    91    1
    57   100   101   ar
    58    97    99   ar
    59    72    74   am
    60    91    85   am
    61    13    12    2
    62    11    12    1
    63    11    10    1
    64    12    18   am
    65   101    99   ar
    66   101   102    1
    67    18    19    1
    68    19    22    1
    69    83    84    1
    70    10     7   am
    71    85    84    1
    72    85    86    2
    73    23    22    1
    74   105   106    2
    75   105   104    1
    76    84    87    1
    77    22    24    1
    78   103   104    1
    79     7     8    2
    80     7     6    1
    81    87    88    1
    82    87    89    1
    83   104   107    1
    84   107   108    1
    85     4     3    2
    86    47    46    1
    87    88    90    1
    88     6     9    1
    89     6     5    1
    90   110   109   ar
    91   108   109    1
    92   109   111   ar
    93     3     5   am
    94     3     2    1
    95    46    45   ar
    96    46    44   ar
    97     1     2    1
    98    45    43   ar
    99    44    42   ar
   100   127   125   ar
   101    42    41   ar
   102    43    41   ar
   103   118   117    1
   104   125   126   ar
   105   125   124    1
   106    41    40    1
   107   119   117    1
   108   117   116    1
   109   124   121    1
   110    40    37    1
   111   116   113    1
   112    36    37    1
   113   121   120    1
   114   121   122    1
   115    37    38    1
   116   123   122    2
   117   113   112    1
   118   113   114    1
   119    38    39    2
   120   115   114    2
