@<TRIPOS>MOLECULE
tmp/4i9iA00.pdb
 187 185 0 0 0
SMALL
GASTEIGER

@<TRIPOS>ATOM
      1  N         37.8360   20.4380   15.6090 N.3    81  HIS81      -0.1226
      2  CA        37.2480   21.1630   16.7300 C.3    81  HIS81       0.1752
      3  C         38.3120   21.6360   17.7140 C.2    81  HIS81       0.2597
      4  O         39.1320   20.8470   18.1700 O.2    81  HIS81      -0.2718
      5  CB        36.2550   20.3130   17.5190 C.3    81  HIS81       0.0759
      6  CG        35.8110   20.9730   18.7860 C.ar   81  HIS81       0.0818
      7  ND1       34.8960   22.0020   18.8040 N.ar   81  HIS81      -0.2268
      8  CD2       36.2520   20.8410   20.0590 C.ar   81  HIS81       0.1154
      9  CE1       34.7930   22.4790   20.0310 C.ar   81  HIS81       0.1986
     10  NE2       35.6070   21.7920   20.8110 N.ar   81  HIS81      -0.2212
     11  N         38.2690   22.9180   18.0590 N.am   82  GLY82      -0.1942
     12  CA        39.2180   23.4600   19.0100 C.3    82  GLY82       0.2014
     13  C         38.5220   24.1600   20.1660 C.2    82  GLY82       0.2639
     14  O         37.6000   24.9500   19.9380 O.2    82  GLY82      -0.2714
     15  N         38.9600   23.8650   21.3960 N.am   83  SER83      -0.1949
     16  CA        38.4120   24.4670   22.6190 C.3    83  SER83       0.1924
     17  C         39.2740   24.1170   23.8400 C.2    83  SER83       0.2314
     18  O         40.0290   23.1550   23.8280 O.2    83  SER83      -0.2863
     19  CB        36.9680   24.0010   22.8650 C.3    83  SER83       0.2116
     20  OG        36.9160   22.6470   23.2800 O.3    83  SER83      -0.2180
     21  N         38.5020   22.6930   26.3570 N.3    85  PHE85      -0.1241
     22  CA        37.8740   21.6000   27.0800 C.3    85  PHE85       0.1605
     23  C         38.0340   20.2450   26.4240 C.2    85  PHE85       0.2264
     24  O         37.1830   19.3790   26.5840 O.2    85  PHE85      -0.2867
     25  CB        36.3870   21.9020   27.2390 C.3    85  PHE85       0.0534
     26  CG        36.1050   23.2300   27.8700 C.ar   85  PHE85      -0.0203
     27  CD1       36.3320   23.4360   29.2250 C.ar   85  PHE85      -0.0042
     28  CD2       35.6060   24.2850   27.1070 C.ar   85  PHE85      -0.0042
     29  CE1       36.0520   24.6810   29.8210 C.ar   85  PHE85      -0.0003
     30  CE2       35.3230   25.5300   27.6910 C.ar   85  PHE85      -0.0003
     31  CZ        35.5500   25.7250   29.0470 C.ar   85  PHE85      -0.0000
     32  N         38.1100   17.0670   28.6590 N.3    88  ALA88      -0.1231
     33  CA        36.7960   16.7320   29.1940 C.3    88  ALA88       0.1694
     34  C         35.9620   16.0680   28.1030 C.2    88  ALA88       0.2591
     35  O         35.2010   15.1410   28.3730 O.2    88  ALA88      -0.2718
     36  CB        36.0980   17.9920   29.7010 C.3    88  ALA88       0.0304
     37  N         36.1280   16.5420   26.8690 N.am   89  ILE89      -0.1980
     38  CA        35.3910   16.0150   25.7260 C.3    89  ILE89       0.1595
     39  C         35.7460   14.5730   25.4010 C.2    89  ILE89       0.2287
     40  O         34.8650   13.7420   25.1840 O.2    89  ILE89      -0.2864
     41  CB        35.6350   16.8800   24.4670 C.3    89  ILE89       0.0276
     42  CG1       34.9640   18.2450   24.6490 C.3    89  ILE89       0.0022
     43  CG2       35.1400   16.1580   23.2210 C.3    89  ILE89       0.0022
     44  CD1       35.4930   19.3150   23.7480 C.3    89  ILE89       0.0001
     45  N         34.0300   12.5060   28.4210 N.3    92  LYS92      -0.1231
     46  CA        32.5860   12.5560   28.6030 C.3    92  LYS92       0.1693
     47  C         31.8270   12.7400   27.2870 C.2    92  LYS92       0.2593
     48  O         30.6080   12.5700   27.2360 O.2    92  LYS92      -0.2718
     49  CB        32.2470   13.6890   29.5690 C.3    92  LYS92       0.0285
     50  CG        32.8580   13.5040   30.9480 C.3    92  LYS92       0.0035
     51  CD        32.9260   14.8250   31.7040 C.3    92  LYS92       0.0206
     52  CE        33.6800   14.6850   33.0350 C.3    92  LYS92       0.1093
     53  NZ        34.5450   15.8970   33.2960 N.3    92  LYS92      -0.1314
     54  N         32.5600   13.0700   26.2260 N.am   93  GLY93      -0.1942
     55  CA        31.9530   13.2930   24.9320 C.3    93  GLY93       0.2014
     56  C         31.5430   14.7430   24.8210 C.2    93  GLY93       0.2639
     57  O         31.6820   15.5120   25.7640 O.2    93  GLY93      -0.2714
     58  N         31.0500   15.1380   23.6630 N.am   94  PHE94      -0.1959
     59  CA        30.5960   16.5060   23.4930 C.3    94  PHE94       0.1771
     60  C         29.2950   16.6430   24.2890 C.2    94  PHE94       0.2619
     61  O         28.5290   15.6830   24.3890 O.2    94  PHE94      -0.2715
     62  CB        30.3480   16.7870   22.0150 C.3    94  PHE94       0.0574
     63  CG        31.5920   17.0140   21.2240 C.ar   94  PHE94      -0.0200
     64  CD1       32.3010   18.2040   21.3470 C.ar   94  PHE94      -0.0042
     65  CD2       32.0390   16.0540   20.3240 C.ar   94  PHE94      -0.0042
     66  CE1       33.4320   18.4380   20.5820 C.ar   94  PHE94      -0.0003
     67  CE2       33.1710   16.2790   19.5540 C.ar   94  PHE94      -0.0003
     68  CZ        33.8710   17.4780   19.6830 C.ar   94  PHE94      -0.0000
     69  N         29.0470   17.8200   24.8550 N.am   95  ASP95      -0.1971
     70  CA        27.8380   18.0540   25.6520 C.3    95  ASP95       0.1709
     71  C         27.3370   19.4790   25.4080 C.2    95  ASP95       0.2293
     72  O         27.9700   20.4490   25.8350 O.2    95  ASP95      -0.2864
     73  CB        28.1560   17.8230   27.1430 C.3    95  ASP95       0.1436
     74  CG        26.9830   18.1500   28.0840 C.2    95  ASP95       0.3671
     75  OD1       25.8690   18.4800   27.6170 O.co2  95  ASP95      -0.2456
     76  OD2       27.1970   18.0700   29.3160 O.co2  95  ASP95      -0.2456
     77  N         27.3870   22.5250   27.9060 N.3    98  HIS98      -0.1226
     78  CA        28.5440   23.3860   28.1620 C.3    98  HIS98       0.1752
     79  C         28.8130   24.0880   26.8310 C.2    98  HIS98       0.2596
     80  O         29.9600   24.3800   26.4940 O.2    98  HIS98      -0.2718
     81  CB        29.7970   22.5790   28.5390 C.3    98  HIS98       0.0759
     82  CG        29.7280   21.9110   29.8740 C.ar   98  HIS98       0.0818
     83  ND1       29.3010   20.6100   30.0380 N.ar   98  HIS98      -0.2268
     84  CD2       30.0770   22.3490   31.1080 C.ar   98  HIS98       0.1154
     85  CE1       29.3940   20.2730   31.3130 C.ar   98  HIS98       0.1986
     86  NE2       29.8630   21.3120   31.9830 N.ar   98  HIS98      -0.2212
     87  N         27.7700   24.3590   26.0600 N.am   99  ALA99      -0.1966
     88  CA        28.0210   24.9740   24.7730 C.3    99  ALA99       0.1728
     89  C         28.1910   26.4720   24.7550 C.2    99  ALA99       0.2616
     90  O         27.8030   27.1920   25.6830 O.2    99  ALA99      -0.2715
     91  CB        26.9480   24.5740   23.7780 C.3    99  ALA99       0.0334
     92  N         28.7730   26.9210   23.6490 N.am  100  TYR100     -0.1974
     93  CA        29.0340   28.3310   23.3860 C.3   100  TYR100      0.1639
     94  C         27.6970   29.0630   23.0300 C.2   100  TYR100      0.2290
     95  O         27.0830   28.7820   21.9890 O.2   100  TYR100     -0.2864
     96  CB        30.0830   28.4360   22.2240 C.3   100  TYR100      0.0560
     97  CG        31.5100   28.1360   22.6580 C.ar  100  TYR100     -0.0198
     98  CD1       32.0470   28.7260   23.8080 C.ar  100  TYR100     -0.0009
     99  CD2       32.3100   27.2380   21.9450 C.ar  100  TYR100     -0.0009
    100  CE1       33.3430   28.4210   24.2410 C.ar  100  TYR100      0.0417
    101  CE2       33.6100   26.9260   22.3740 C.ar  100  TYR100      0.0417
    102  CZ        34.1150   27.5220   23.5210 C.ar  100  TYR100      0.1957
    103  OH        35.3930   27.2140   23.9330 O.3   100  TYR100     -0.2866
    104  N         25.5640   26.2360   20.2700 N.3   108  GLY108     -0.1210
    105  CA        25.8540   24.9770   19.6100 C.3   108  GLY108      0.1956
    106  C         27.2870   24.5600   19.8630 C.2   108  GLY108      0.2612
    107  O         27.9690   25.2140   20.6280 O.2   108  GLY108     -0.2717
    108  N         27.7250   23.4640   19.2460 N.am  109  ILE109     -0.1965
    109  CA        29.0920   22.9660   19.3510 C.3   109  ILE109      0.1727
    110  C         29.6030   23.2850   17.9500 C.2   109  ILE109      0.2616
    111  O         29.0160   22.8660   16.9590 O.2   109  ILE109     -0.2715
    112  CB        29.0910   21.4520   19.6260 C.3   109  ILE109      0.0290
    113  CG1       28.3020   21.2100   20.9110 C.3   109  ILE109      0.0022
    114  CG2       30.5100   20.9060   19.7700 C.3   109  ILE109      0.0023
    115  CD1       27.9890   19.7630   21.2040 C.3   109  ILE109      0.0001
    116  N         30.6720   24.0600   17.8710 N.am  110  TYR110     -0.1960
    117  CA        31.2140   24.4800   16.5920 C.3   110  TYR110      0.1771
    118  C         32.3520   23.6530   16.0200 C.2   110  TYR110      0.2620
    119  O         33.2000   23.1560   16.7370 O.2   110  TYR110     -0.2715
    120  CB        31.6370   25.9310   16.7000 C.3   110  TYR110      0.0574
    121  CG        30.4780   26.8960   16.7870 C.ar  110  TYR110     -0.0198
    122  CD1       30.1170   27.6690   15.6860 C.ar  110  TYR110     -0.0009
    123  CD2       29.7460   27.0410   17.9670 C.ar  110  TYR110     -0.0009
    124  CE1       29.0610   28.5670   15.7520 C.ar  110  TYR110      0.0417
    125  CE2       28.6890   27.9330   18.0440 C.ar  110  TYR110      0.0417
    126  CZ        28.3510   28.6960   16.9330 C.ar  110  TYR110      0.1957
    127  OH        27.3070   29.5890   16.9930 O.3   110  TYR110     -0.2866
    128  N         32.3620   23.5350   14.7020 N.am  111  PHE111     -0.1960
    129  CA        33.3610   22.7620   13.9960 C.3   111  PHE111      0.1771
    130  C         33.8100   23.5210   12.7520 C.2   111  PHE111      0.2619
    131  O         33.1610   24.4780   12.3440 O.2   111  PHE111     -0.2715
    132  CB        32.7600   21.4110   13.6010 C.3   111  PHE111      0.0574
    133  CG        32.4810   20.5180   14.7610 C.ar  111  PHE111     -0.0200
    134  CD1       33.4890   19.7250   15.2920 C.ar  111  PHE111     -0.0042
    135  CD2       31.2130   20.4780   15.3430 C.ar  111  PHE111     -0.0042
    136  CE1       33.2380   18.9060   16.3830 C.ar  111  PHE111     -0.0003
    137  CE2       30.9560   19.6630   16.4370 C.ar  111  PHE111     -0.0003
    138  CZ        31.9700   18.8760   16.9570 C.ar  111  PHE111     -0.0000
    139  N         34.9150   23.0920   12.1530 N.am  112  ALA112     -0.1977
    140  CA        35.4340   23.7370   10.9500 C.3   112  ALA112      0.1597
    141  C         36.2140   22.7250   10.1410 C.2   112  ALA112      0.2287
    142  O         36.8550   21.8440   10.7070 O.2   112  ALA112     -0.2864
    143  CB        36.3520   24.9200   11.3220 C.3   112  ALA112      0.0319
    144  N         41.2270   27.1610   11.6910 N.3   117  LYS117     -0.1231
    145  CA        40.0860   27.8570   12.2650 C.3   117  LYS117      0.1693
    146  C         39.9010   27.4490   13.7190 C.2   117  LYS117      0.2592
    147  O         39.7670   28.2960   14.5940 O.2   117  LYS117     -0.2718
    148  CB        38.8060   27.5790   11.4770 C.3   117  LYS117      0.0285
    149  CG        37.6360   28.4020   11.9690 C.3   117  LYS117      0.0035
    150  CD        37.9910   29.8760   11.9350 C.3   117  LYS117      0.0206
    151  CE        36.9570   30.7420   12.6360 C.3   117  LYS117      0.1093
    152  NZ        35.6670   30.8120   11.9090 N.3   117  LYS117     -0.1314
    153  N         39.9210   26.1520   13.9760 N.am  118  SER118     -0.1952
    154  CA        39.7520   25.6570   15.3320 C.3   118  SER118      0.1924
    155  C         40.9310   26.0580   16.2130 C.2   118  SER118      0.2314
    156  O         40.7890   26.2400   17.4280 O.2   118  SER118     -0.2863
    157  CB        39.5980   24.1370   15.3080 C.3   118  SER118      0.2116
    158  OG        38.5990   23.7660   14.3740 O.3   118  SER118     -0.2180
    159  N         40.6030   28.7540   18.5740 N.3   121  TYR121     -0.1241
    160  CA        39.7910   28.5540   19.7720 C.3   121  TYR121      0.1605
    161  C         40.4120   27.6350   20.8330 C.2   121  TYR121      0.2264
    162  O         39.8790   27.5150   21.9420 O.2   121  TYR121     -0.2867
    163  CB        38.4010   28.0220   19.3660 C.3   121  TYR121      0.0534
    164  CG        37.6270   28.9280   18.4250 C.ar  121  TYR121     -0.0201
    165  CD1       36.8580   29.9890   18.9090 C.ar  121  TYR121     -0.0009
    166  CD2       37.7010   28.7510   17.0480 C.ar  121  TYR121     -0.0009
    167  CE1       36.1890   30.8570   18.0400 C.ar  121  TYR121      0.0417
    168  CE2       37.0410   29.6210   16.1640 C.ar  121  TYR121      0.0417
    169  CZ        36.2900   30.6680   16.6700 C.ar  121  TYR121      0.1957
    170  OH        35.6790   31.5460   15.8000 O.3   121  TYR121     -0.2866
    171  N         37.8720   32.0060   23.3880 N.3   125  ILE125     -0.1245
    172  CA        37.3140   32.8470   22.3140 C.3   125  ILE125      0.1561
    173  C         38.4150   33.8300   21.8900 C.2   125  ILE125      0.2260
    174  O         39.1170   34.3430   22.7430 O.2   125  ILE125     -0.2867
    175  CB        35.9810   33.5900   22.8190 C.3   125  ILE125      0.0252
    176  CG1       34.8280   32.5660   22.9160 C.3   125  ILE125      0.0019
    177  CG2       35.5810   34.7520   21.8820 C.3   125  ILE125      0.0019
    178  CD1       33.3640   33.1620   22.8980 C.3   125  ILE125      0.0001
    179  N         31.4200   27.4980    9.0510 N.3   188  GLU188     -0.1245
    180  CA        31.4570   26.8990   10.3780 C.3   188  GLU188      0.1567
    181  C         30.2420   25.9760   10.5150 C.2   188  GLU188      0.2260
    182  O         29.1570   26.2780   10.0410 O.2   188  GLU188     -0.2867
    183  CB        31.5550   27.9510   11.4980 C.3   188  GLU188      0.0388
    184  CG        30.6600   29.1420   11.4140 C.3   188  GLU188      0.1160
    185  CD        31.2820   30.1360   12.3960 C.2   188  GLU188      0.3649
    186  OE1       32.4000   30.6110   12.1420 O.co2 188  GLU188     -0.2457
    187  OE2       30.6810   30.4280   13.4480 O.co2 188  GLU188     -0.2457
@<TRIPOS>BOND
     1   179   180    1
     2   182   181    2
     3   141   142    2
     4   141   140    1
     5   180   181    1
     6   180   183    1
     7   140   143    1
     8   140   139    1
     9   184   183    1
    10   184   185    1
    11   148   149    1
    12   148   145    1
    13   144   145    1
    14   152   151    1
    15   150   149    1
    16   150   151    1
    17   186   185   ar
    18   139   130   am
    19   145   146    1
    20   131   130    2
    21   185   187   ar
    22   130   129    1
    23   132   129    1
    24   132   133    1
    25   146   153   am
    26   146   147    2
    27   153   154    1
    28   129   128    1
    29   158   157    1
    30   128   118   am
    31   133   134   ar
    32   133   135   ar
    33   134   136   ar
    34   157   154    1
    35   154   155    1
    36   135   137   ar
    37     1     2    1
    38   122   124   ar
    39   122   121   ar
    40   124   126   ar
    41   170   169    1
    42   118   117    1
    43   118   119    2
    44   168   169   ar
    45   168   166   ar
    46   155   156    2
    47   136   138   ar
    48   137   138   ar
    49   117   120    1
    50   117   116    1
    51   169   167   ar
    52   120   121    1
    53     2     5    1
    54     2     3    1
    55   121   123   ar
    56   126   127    1
    57   126   125   ar
    58   111   110    2
    59   166   164   ar
    60     5     6    1
    61     3    11   am
    62     3     4    2
    63   116   110   am
    64   110   109    1
    65   123   125   ar
    66   167   165   ar
    67    11    12    1
    68   164   165   ar
    69   164   163    1
    70   159   160    1
    71     6     7   ar
    72     6     8   ar
    73     7     9   ar
    74    12    13    1
    75   108   109    1
    76   108   106   am
    77   109   112    1
    78   163   160    1
    79    67    68   ar
    80    67    65   ar
    81   105   106    1
    82   105   104    1
    83   112   114    1
    84   112   113    1
    85    68    66   ar
    86   160   161    1
    87   106   107    2
    88    14    13    2
    89     9    10   ar
    90     8    10   ar
    91    13    15   am
    92    65    63   ar
    93    66    64   ar
    94   161   162    2
    95   113   115    1
    96    63    64   ar
    97    63    62    1
    98    15    16    1
    99   177   175    1
   100   173   172    1
   101   173   174    2
   102    99   101   ar
   103    99    97   ar
   104    95    94    2
   105    62    59    1
   106    96    97    1
   107    96    93    1
   108   172   175    1
   109   172   171    1
   110   101   102   ar
   111    16    19    1
   112    16    17    1
   113    97    98   ar
   114   175   176    1
   115    19    20    1
   116   178   176    1
   117    94    93    1
   118    43    41    1
   119    93    92    1
   120    59    58    1
   121    59    60    1
   122   102   103    1
   123   102   100   ar
   124    92    89   am
   125    58    56   am
   126    44    42    1
   127    91    88    1
   128    98   100   ar
   129    18    17    2
   130    60    61    2
   131    60    69   am
   132    41    42    1
   133    41    38    1
   134    89    88    1
   135    89    90    2
   136    88    87    1
   137    56    55    1
   138    56    57    2
   139    69    70    1
   140    55    54    1
   141    40    39    2
   142    39    38    1
   143    71    70    1
   144    71    72    2
   145    70    73    1
   146    38    37    1
   147    87    79   am
   148    54    47   am
   149    21    22    1
   150    23    24    2
   151    23    22    1
   152    80    79    2
   153    79    78    1
   154    37    34   am
   155    22    25    1
   156    28    30   ar
   157    28    26   ar
   158    73    74    1
   159    48    47    2
   160    25    26    1
   161    47    46    1
   162    75    74   ar
   163    30    31   ar
   164    26    27   ar
   165    77    78    1
   166    74    76   ar
   167    34    35    2
   168    34    33    1
   169    78    81    1
   170    45    46    1
   171    81    82    1
   172    46    49    1
   173    32    33    1
   174    31    29   ar
   175    33    36    1
   176    27    29   ar
   177    49    50    1
   178    82    83   ar
   179    82    84   ar
   180    83    85   ar
   181    50    51    1
   182    84    86   ar
   183    85    86   ar
   184    51    52    1
   185    52    53    1
