@<TRIPOS>MOLECULE
tmp/4i9jA02.pdb
 119 115 0 0 0
SMALL
GASTEIGER

@<TRIPOS>ATOM
      1  N         16.8440   64.9160   19.7200 N.3    36  LEU36      -0.1231
      2  CA        18.2310   64.8990   20.2490 C.3    36  LEU36       0.1693
      3  C         18.4800   65.9380   21.3500 C.2    36  LEU36       0.2591
      4  O         18.0820   67.0910   21.2150 O.2    36  LEU36      -0.2718
      5  CB        19.2850   65.0340   19.1030 C.3    36  LEU36       0.0284
      6  CG        19.2430   63.9620   17.9920 C.3    36  LEU36       0.0019
      7  CD1       20.3690   64.1450   16.9640 C.3    36  LEU36       0.0001
      8  CD2       19.3460   62.5600   18.5710 C.3    36  LEU36       0.0001
      9  N         19.1420   65.5000   22.4340 N.am   37  LYS37      -0.1980
     10  CA        19.4290   66.3070   23.6320 C.3    37  LYS37       0.1596
     11  C         20.9290   66.3140   23.9580 C.2    37  LYS37       0.2287
     12  O         21.4730   67.3170   24.4030 O.2    37  LYS37      -0.2864
     13  CB        18.6840   65.7260   24.8390 C.3    37  LYS37       0.0298
     14  CG        17.1770   65.8540   24.7260 C.3    37  LYS37       0.0038
     15  CD        16.7510   67.2940   24.9820 C.3    37  LYS37       0.0206
     16  CE        15.3010   67.5110   24.5580 C.3    37  LYS37       0.1093
     17  NZ        15.1840   67.8850   23.1150 N.3    37  LYS37      -0.1314
     18  N         24.4300   67.1360   24.1400 N.3    39  PRO39      -0.2116
     19  CA        24.9690   68.4040   23.6220 C.3    39  PRO39       0.1372
     20  C         26.1720   68.2790   22.6980 C.2    39  PRO39       0.2244
     21  O         26.4400   69.2050   21.9240 O.2    39  PRO39      -0.2868
     22  CB        25.3660   69.1930   24.8980 C.3    39  PRO39       0.0268
     23  CG        24.8100   68.4200   26.0480 C.3    39  PRO39       0.0207
     24  CD        24.5240   67.0020   25.6060 C.3    39  PRO39       0.0892
     25  N         24.7120   66.6190   19.3240 N.3    42  SER42      -0.1202
     26  CA        23.7580   67.5860   18.6940 C.3    42  SER42       0.2020
     27  C         24.4400   68.6630   17.8410 C.2    42  SER42       0.2618
     28  O         23.8190   69.1890   16.9180 O.2    42  SER42      -0.2717
     29  CB        22.8140   68.2300   19.7370 C.3    42  SER42       0.2103
     30  OG        21.9510   67.2420   20.2960 O.3    42  SER42      -0.2182
     31  N         25.7150   68.9840   18.1170 N.am   43  VAL43      -0.1979
     32  CA        26.5080   69.9280   17.2650 C.3    43  VAL43       0.1595
     33  C         26.4040   69.6020   15.7530 C.2    43  VAL43       0.2287
     34  O         26.1690   70.4890   14.9280 O.2    43  VAL43      -0.2864
     35  CB        28.0230   69.9340   17.6850 C.3    43  VAL43       0.0276
     36  CG1       28.8740   70.7980   16.7470 C.3    43  VAL43       0.0022
     37  CG2       28.1140   70.4870   19.1270 C.3    43  VAL43       0.0022
     38  N         22.0090   67.2000   15.1420 N.3    46  LYS46      -0.1245
     39  CA        20.7120   67.7830   15.4010 C.3    46  LYS46       0.1561
     40  C         20.4880   68.9550   14.4470 C.2    46  LYS46       0.2260
     41  O         21.3600   69.7930   14.2400 O.2    46  LYS46      -0.2867
     42  CB        20.6100   68.2500   16.8650 C.3    46  LYS46       0.0271
     43  CG        19.2430   68.8550   17.2870 C.3    46  LYS46       0.0035
     44  CD        19.2810   69.1970   18.7730 C.3    46  LYS46       0.0206
     45  CE        18.0600   69.9080   19.2930 C.3    46  LYS46       0.1093
     46  NZ        17.0160   68.8860   19.3420 N.3    46  LYS46      -0.1314
     47  N         14.5460   71.8220   16.5240 N.3    49  ASP49      -0.1239
     48  CA        14.2370   71.7110   17.9320 C.3    49  ASP49       0.1674
     49  C         12.7250   71.5930   18.2030 C.2    49  ASP49       0.2266
     50  O         12.3490   71.3450   19.3230 O.2    49  ASP49      -0.2867
     51  CB        14.8650   72.8820   18.7190 C.3    49  ASP49       0.1410
     52  CG        14.2700   74.2370   18.3450 C.2    49  ASP49       0.3668
     53  OD1       13.8680   74.4280   17.1870 O.co2  49  ASP49      -0.2456
     54  OD2       14.2630   75.1440   19.2080 O.co2  49  ASP49      -0.2456
     55  N         33.9250   71.9460   15.8850 N.3   248  PHE248     -0.1241
     56  CA        33.6110   72.9240   14.8270 C.3   248  PHE248      0.1605
     57  C         32.2740   73.6230   15.2430 C.2   248  PHE248      0.2264
     58  O         31.5860   73.2270   16.2400 O.2   248  PHE248     -0.2867
     59  CB        33.3880   72.1060   13.5020 C.3   248  PHE248      0.0534
     60  CG        34.0600   72.6390   12.2120 C.ar  248  PHE248     -0.0203
     61  CD1       34.9310   71.8090   11.4780 C.ar  248  PHE248     -0.0042
     62  CD2       33.7520   73.8960   11.6610 C.ar  248  PHE248     -0.0042
     63  CE1       35.5150   72.2370   10.2780 C.ar  248  PHE248     -0.0003
     64  CE2       34.3430   74.3320   10.4700 C.ar  248  PHE248     -0.0003
     65  CZ        35.2220   73.5000    9.7820 C.ar  248  PHE248     -0.0000
     66  N         28.2920   74.4240   15.1240 N.3   250  SER250     -0.1217
     67  CA        27.0790   73.5570   15.0010 C.3   250  SER250      0.1889
     68  C         26.2570   73.8950   13.7460 C.2   250  SER250      0.2288
     69  O         26.4140   74.9670   13.1310 O.2   250  SER250     -0.2866
     70  CB        26.1720   73.7710   16.1970 C.3   250  SER250      0.2089
     71  OG        25.7510   75.1340   16.2260 O.3   250  SER250     -0.2183
     72  N         23.2270   74.5830   13.9900 N.3   252  TYR252     -0.1227
     73  CA        22.4210   75.6760   14.5100 C.3   252  TYR252      0.1736
     74  C         23.1440   76.9890   14.2910 C.2   252  TYR252      0.2595
     75  O         22.5250   77.9980   13.8560 O.2   252  TYR252     -0.2718
     76  CB        22.1330   75.4990   16.0250 C.3   252  TYR252      0.0548
     77  CG        21.5760   76.7600   16.6600 C.ar  252  TYR252     -0.0200
     78  CD1       20.2300   77.0780   16.5390 C.ar  252  TYR252     -0.0009
     79  CD2       22.4230   77.6810   17.3170 C.ar  252  TYR252     -0.0009
     80  CE1       19.7170   78.2480   17.0850 C.ar  252  TYR252      0.0417
     81  CE2       21.9170   78.8550   17.8650 C.ar  252  TYR252      0.0417
     82  CZ        20.5740   79.1360   17.7480 C.ar  252  TYR252      0.1957
     83  OH        20.0700   80.3120   18.2270 O.3   252  TYR252     -0.2866
     84  N         24.4440   77.0140   14.6180 N.am  253  TYR253     -0.1976
     85  CA        25.2420   78.2350   14.4070 C.3   253  TYR253      0.1639
     86  C         25.1300   78.6950   12.9440 C.2   253  TYR253      0.2290
     87  O         24.8120   79.8590   12.6750 O.2   253  TYR253     -0.2864
     88  CB        26.7270   77.9700   14.8230 C.3   253  TYR253      0.0560
     89  CG        27.6670   79.1140   14.4850 C.ar  253  TYR253     -0.0198
     90  CD1       27.8840   80.1550   15.3800 C.ar  253  TYR253     -0.0009
     91  CD2       28.3340   79.1400   13.2610 C.ar  253  TYR253     -0.0009
     92  CE1       28.7480   81.2080   15.0580 C.ar  253  TYR253      0.0417
     93  CE2       29.1840   80.1760   12.9270 C.ar  253  TYR253      0.0417
     94  CZ        29.3740   81.2010   13.8370 C.ar  253  TYR253      0.1957
     95  OH        30.2200   82.2140   13.5020 O.3   253  TYR253     -0.2866
     96  N         16.4530   74.1430   11.8140 N.3   281  TYR281     -0.1241
     97  CA        15.8390   74.8860   12.9070 C.3   281  TYR281      0.1605
     98  C         14.6800   75.7390   12.3720 C.2   281  TYR281      0.2264
     99  O         14.6130   76.9340   12.6140 O.2   281  TYR281     -0.2867
    100  CB        16.9170   75.6980   13.6810 C.3   281  TYR281      0.0534
    101  CG        17.8050   74.7530   14.4190 C.ar  281  TYR281     -0.0201
    102  CD1       17.3660   74.2120   15.6720 C.ar  281  TYR281     -0.0009
    103  CD2       19.0210   74.3020   13.8750 C.ar  281  TYR281     -0.0009
    104  CE1       18.1300   73.2970   16.3540 C.ar  281  TYR281      0.0417
    105  CE2       19.8110   73.3540   14.5960 C.ar  281  TYR281      0.0417
    106  CZ        19.3460   72.8730   15.7970 C.ar  281  TYR281      0.1957
    107  OH        20.1230   71.9440   16.4720 O.3   281  TYR281     -0.2866
    108  N         12.6340   78.6970   14.3300 N.3   284  TYR284     -0.1241
    109  CA        13.5390   79.2470   15.3520 C.3   284  TYR284      0.1605
    110  C         13.7160   80.7000   14.9820 C.2   284  TYR284      0.2264
    111  O         14.1670   81.0000   13.8670 O.2   284  TYR284     -0.2867
    112  CB        14.8920   78.5070   15.4230 C.3   284  TYR284      0.0534
    113  CG        15.5930   78.7270   16.7600 C.ar  284  TYR284     -0.0201
    114  CD1       15.6360   77.7130   17.7020 C.ar  284  TYR284     -0.0009
    115  CD2       16.1580   79.9930   17.1070 C.ar  284  TYR284     -0.0009
    116  CE1       16.2340   77.9120   18.9480 C.ar  284  TYR284      0.0417
    117  CE2       16.7740   80.1870   18.3660 C.ar  284  TYR284      0.0417
    118  CZ        16.8020   79.1230   19.2710 C.ar  284  TYR284      0.1957
    119  OH        17.3840   79.2240   20.5230 O.3   284  TYR284     -0.2866
@<TRIPOS>BOND
     1    65    63   ar
     2    65    64   ar
     3    63    61   ar
     4    64    62   ar
     5    61    60   ar
     6    62    60   ar
     7    96    97    1
     8    60    59    1
     9    98    99    2
    10    98    97    1
    11    87    86    2
    12    97   100    1
    13    93    91   ar
    14    93    94   ar
    15    86    85    1
    16    69    68    2
    17    91    89   ar
    18    59    56    1
    19    95    94    1
    20   100   101    1
    21    68    67    1
    22    94    92   ar
    23    75    74    2
    24   111   110    2
    25   103   101   ar
    26   103   105   ar
    27    72    73    1
    28    41    40    2
    29    74    73    1
    30    74    84   am
    31   108   109    1
    32    85    84    1
    33    85    88    1
    34   101   102   ar
    35    40    39    1
    36    89    88    1
    37    89    90   ar
    38    73    76    1
    39   105   106   ar
    40    56    57    1
    41    56    55    1
    42    34    33    2
    43   110   109    1
    44    67    66    1
    45    67    70    1
    46    92    90   ar
    47    38    39    1
    48    57    58    2
    49   109   112    1
    50    39    42    1
    51   112   113    1
    52   102   104   ar
    53    33    32    1
    54   106   104   ar
    55   106   107    1
    56    76    77    1
    57    70    71    1
    58    47    48    1
    59    78    77   ar
    60    78    80   ar
    61    77    79   ar
    62    36    35    1
    63   113   115   ar
    64   113   114   ar
    65    42    43    1
    66    28    27    2
    67     7     6    1
    68    80    82   ar
    69   115   117   ar
    70    53    52   ar
    71    32    35    1
    72    32    31    1
    73    43    44    1
    74    79    81   ar
    75    35    37    1
    76   114   116   ar
    77    82    81   ar
    78    82    83    1
    79    27    31   am
    80    27    26    1
    81    48    49    1
    82    48    51    1
    83     6     8    1
    84     6     5    1
    85    49    50    2
    86    52    51    1
    87    52    54   ar
    88   117   118   ar
    89    26    25    1
    90    26    29    1
    91    44    45    1
    92   116   118   ar
    93     5     2    1
    94   118   119    1
    95    45    46    1
    96     1     2    1
    97    29    30    1
    98     2     3    1
    99     4     3    2
   100     3     9   am
   101    21    20    2
   102     9    10    1
   103    20    19    1
   104    17    16    1
   105    19    18    1
   106    19    22    1
   107    10    11    1
   108    10    13    1
   109    11    12    2
   110    18    24    1
   111    16    15    1
   112    14    13    1
   113    14    15    1
   114    22    23    1
   115    24    23    1
