@<TRIPOS>MOLECULE
tmp/4i9nH01.pdb
 138 129 0 0 0
SMALL
GASTEIGER

@<TRIPOS>ATOM
      1  N         47.5830   34.9950  103.9970 N.3    26  GLY26      -0.1225
      2  CA        48.2960   33.7980  104.4020 C.3    26  GLY26       0.1811
      3  C         47.4470   32.9160  105.2910 C.2    26  GLY26       0.2280
      4  O         46.9540   33.3560  106.3430 O.2    26  GLY26      -0.2866
      5  N         48.5850   29.9060  106.4730 N.3    28  GLY28      -0.1210
      6  CA        49.4050   28.9870  107.2320 C.3    28  GLY28       0.1956
      7  C         48.9340   28.9540  108.6720 C.2    28  GLY28       0.2612
      8  O         47.8880   29.5070  109.0040 O.2    28  GLY28      -0.2717
      9  N         49.7100   28.3060  109.5330 N.am   29  ALA29      -0.1965
     10  CA        49.3080   28.0770  110.9130 C.3    29  ALA29       0.1728
     11  C         49.0990   29.3840  111.6940 C.2    29  ALA29       0.2616
     12  O         48.2120   29.4810  112.5390 O.2    29  ALA29      -0.2715
     13  CB        50.3490   27.2020  111.6070 C.3    29  ALA29       0.0334
     14  N         49.9060   30.3940  111.4030 N.am   30  VAL30      -0.1963
     15  CA        49.7280   31.6800  112.0600 C.3    30  VAL30       0.1727
     16  C         48.5160   32.4450  111.5240 C.2    30  VAL30       0.2616
     17  O         47.7510   33.0360  112.2960 O.2    30  VAL30      -0.2715
     18  CB        50.9900   32.5430  111.9220 C.3    30  VAL30       0.0290
     19  CG1       50.7550   33.9080  112.5340 C.3    30  VAL30       0.0023
     20  CG2       52.1550   31.8490  112.6210 C.3    30  VAL30       0.0023
     21  N         48.3290   32.4220  110.2080 N.am   31  GLY31      -0.1955
     22  CA        47.1710   33.0800  109.6270 C.3    31  GLY31       0.1869
     23  C         45.8750   32.5720  110.2330 C.2    31  GLY31       0.2309
     24  O         45.0140   33.3610  110.6340 O.2    31  GLY31      -0.2863
     25  N         50.6670   37.6560  107.2490 N.3    94  THR94      -0.1203
     26  CA        51.4300   36.5430  107.8110 C.3    94  THR94       0.1994
     27  C         52.1300   35.7990  106.6930 C.2    94  THR94       0.2618
     28  O         52.6350   34.7080  106.8950 O.2    94  THR94      -0.2717
     29  CB        50.5270   35.5390  108.5630 C.3    94  THR94       0.1784
     30  OG1       49.7690   34.7720  107.6170 O.3    94  THR94      -0.2211
     31  CG2       49.5790   36.2840  109.5070 C.3    94  THR94       0.0376
     32  N         52.1340   36.3950  105.5090 N.am   95  ALA95      -0.1965
     33  CA        52.7800   35.8040  104.3450 C.3    95  ALA95       0.1728
     34  C         54.2910   35.9410  104.4360 C.2    95  ALA95       0.2616
     35  O         54.8120   36.9420  104.9410 O.2    95  ALA95      -0.2715
     36  CB        52.2890   36.4800  103.0790 C.3    95  ALA95       0.0334
     37  N         54.9900   34.9270  103.9350 N.am   96  GLY96      -0.1955
     38  CA        56.4320   35.0150  103.8190 C.3    96  GLY96       0.1869
     39  C         57.0550   33.7460  103.2780 C.2    96  GLY96       0.2309
     40  O         56.3560   32.8070  102.9040 O.2    96  GLY96      -0.2863
     41  N         53.0240   40.5950  110.6520 N.3   129  VAL129     -0.1231
     42  CA        53.3480   39.5910  111.6450 C.3   129  VAL129      0.1692
     43  C         54.4970   38.7030  111.1270 C.2   129  VAL129      0.2593
     44  O         55.1750   38.0380  111.9090 O.2   129  VAL129     -0.2718
     45  CB        52.0870   38.7230  111.9470 C.3   129  VAL129      0.0266
     46  CG1       52.3470   37.7820  113.1100 C.3   129  VAL129      0.0020
     47  CG2       50.8910   39.6350  112.2320 C.3   129  VAL129      0.0020
     48  N         54.7270   38.7020  109.8160 N.am  130  SER130     -0.1938
     49  CA        55.8010   37.8900  109.2370 C.3   130  SER130      0.2055
     50  C         57.1540   38.3080  109.8000 C.2   130  SER130      0.2643
     51  O         57.3830   39.4930  110.0350 O.2   130  SER130     -0.2714
     52  CB        55.8510   38.0640  107.7160 C.3   130  SER130      0.2130
     53  OG        54.5840   38.3800  107.1930 O.3   130  SER130     -0.2179
     54  N         58.0550   37.3410  109.9770 N.am  131  ASN131     -0.1971
     55  CA        59.4470   37.6140  110.3700 C.3   131  ASN131      0.1688
     56  C         60.3790   37.6420  109.1660 C.2   131  ASN131      0.2292
     57  O         60.1770   36.9090  108.2000 O.2   131  ASN131     -0.2864
     58  CB        59.9630   36.5430  111.3440 C.3   131  ASN131      0.1181
     59  CG        59.2950   36.6100  112.6980 C.2   131  ASN131      0.2629
     60  OD1       59.1260   37.6940  113.2700 O.2   131  ASN131     -0.2716
     61  ND2       58.9100   35.4440  113.2260 N.am  131  ASN131     -0.0877
     62  N         53.8340   39.6020  121.5610 N.3   158  LEU158     -0.1231
     63  CA        53.8090   38.2280  122.0430 C.3   158  LEU158      0.1693
     64  C         54.8810   37.9230  123.0970 C.2   158  LEU158      0.2592
     65  O         54.6100   37.2560  124.0970 O.2   158  LEU158     -0.2718
     66  CB        53.9840   37.2440  120.8810 C.3   158  LEU158      0.0284
     67  CG        53.9360   35.7920  121.3810 C.3   158  LEU158      0.0019
     68  CD1       52.5970   35.5710  122.0800 C.3   158  LEU158      0.0001
     69  CD2       54.1200   34.8080  120.2410 C.3   158  LEU158      0.0001
     70  N         56.1000   38.3960  122.8740 N.am  159  ASP159     -0.1974
     71  CA        57.1820   38.0680  123.7920 C.3   159  ASP159      0.1709
     72  C         56.9850   38.7070  125.1770 C.2   159  ASP159      0.2293
     73  O         57.3830   38.1320  126.1880 O.2   159  ASP159     -0.2864
     74  CB        58.5340   38.4750  123.1900 C.3   159  ASP159      0.1436
     75  CG        59.0160   37.4980  122.1120 C.2   159  ASP159      0.3671
     76  OD1       58.5710   36.3340  122.1000 O.co2 159  ASP159     -0.2456
     77  OD2       59.8500   37.8950  121.2750 O.co2 159  ASP159     -0.2456
     78  N         54.6680   36.4150  126.8810 N.3   162  ARG162     -0.1245
     79  CA        55.3690   35.2600  127.4220 C.3   162  ARG162      0.1563
     80  C         56.1150   35.6750  128.6840 C.2   162  ARG162      0.2260
     81  O         56.1420   34.9470  129.6790 O.2   162  ARG162     -0.2867
     82  CB        56.3660   34.7170  126.4090 C.3   162  ARG162      0.0307
     83  CG        55.7560   34.0490  125.2020 C.3   162  ARG162      0.0489
     84  CD        56.8620   33.6030  124.2700 C.3   162  ARG162      0.2205
     85  NE        56.3880   32.6870  123.2430 N.pl3 162  ARG162     -0.0865
     86  CZ        56.5910   32.8580  121.9390 C.cat 162  ARG162      0.5346
     87  NH1       56.1200   31.9710  121.0800 N.pl3 162  ARG162      0.1354
     88  NH2       57.2720   33.9110  121.5000 N.pl3 162  ARG162      0.1354
     89  N         62.7370   42.9920  117.7200 N.3   186  HIS186     -0.1241
     90  CA        62.1160   41.7100  118.0250 C.3   186  HIS186      0.1621
     91  C         63.1430   40.6030  117.9200 C.2   186  HIS186      0.2264
     92  O         63.9350   40.5700  116.9810 O.2   186  HIS186     -0.2867
     93  CB        60.9620   41.4140  117.0650 C.3   186  HIS186      0.0745
     94  CG        60.3880   40.0370  117.2200 C.ar  186  HIS186      0.0817
     95  ND1       59.7720   39.6130  118.3810 N.ar  186  HIS186     -0.2268
     96  CD2       60.3440   38.9850  116.3660 C.ar  186  HIS186      0.1154
     97  CE1       59.3750   38.3600  118.2340 C.ar  186  HIS186      0.1986
     98  NE2       59.7090   37.9570  117.0220 N.ar  186  HIS186     -0.2212
     99  N         60.1410   30.2980  121.1730 N.3   231  ALA231     -0.1245
    100  CA        59.6070   29.9800  119.8540 C.3   231  ALA231      0.1562
    101  C         60.3950   28.8180  119.2740 C.2   231  ALA231      0.2260
    102  O         59.8250   27.8450  118.7730 O.2   231  ALA231     -0.2867
    103  CB        59.7080   31.1910  118.9410 C.3   231  ALA231      0.0290
    104  N         58.8610   25.1790  118.3640 N.3   235  ILE235     -0.1245
    105  CA        59.0390   24.6520  117.0100 C.3   235  ILE235      0.1561
    106  C         59.7110   23.2840  117.0360 C.2   235  ILE235      0.2260
    107  O         59.4440   22.4410  116.1880 O.2   235  ILE235     -0.2867
    108  CB        59.9130   25.5840  116.1450 C.3   235  ILE235      0.0252
    109  CG1       59.1450   26.8610  115.7910 C.3   235  ILE235      0.0019
    110  CG2       60.3720   24.8460  114.8940 C.3   235  ILE235      0.0019
    111  CD1       60.0040   27.9330  115.1230 C.3   235  ILE235      0.0001
    112  N         56.1050   24.3110  114.8980 N.3   240  TYR240     -0.1227
    113  CA        55.7400   25.7020  114.6570 C.3   240  TYR240      0.1736
    114  C         55.0640   26.2220  115.9220 C.2   240  TYR240      0.2596
    115  O         54.8830   25.4760  116.8970 O.2   240  TYR240     -0.2718
    116  CB        54.7780   25.8000  113.4610 C.3   240  TYR240      0.0548
    117  CG        53.5000   25.0030  113.6380 C.ar  240  TYR240     -0.0200
    118  CD1       53.4220   23.6730  113.2460 C.ar  240  TYR240     -0.0009
    119  CD2       52.3840   25.5690  114.2400 C.ar  240  TYR240     -0.0009
    120  CE1       52.2710   22.9300  113.4580 C.ar  240  TYR240      0.0417
    121  CE2       51.2260   24.8330  114.4540 C.ar  240  TYR240      0.0417
    122  CZ        51.1740   23.5160  114.0640 C.ar  240  TYR240      0.1957
    123  OH        50.0220   22.7840  114.2910 O.3   240  TYR240     -0.2866
    124  N         54.7040   27.4980  115.9200 N.am  241  THR241     -0.1953
    125  CA        53.8450   28.0190  116.9720 C.3   241  THR241      0.1897
    126  C         52.6680   28.6940  116.2940 C.2   241  THR241      0.2313
    127  O         52.7490   29.0610  115.1190 O.2   241  THR241     -0.2863
    128  CB        54.5890   29.0360  117.8900 C.3   241  THR241      0.1794
    129  OG1       54.6360   30.3300  117.2720 O.3   241  THR241     -0.2208
    130  CG2       56.0080   28.5610  118.1530 C.3   241  THR241      0.0378
    131  N         50.5480   33.3570  119.4070 N.3   245  ILE245     -0.1245
    132  CA        50.7280   34.4770  118.4730 C.3   245  ILE245      0.1561
    133  C         49.3830   34.9220  117.8960 C.2   245  ILE245      0.2260
    134  O         49.1350   36.1210  117.7340 O.2   245  ILE245     -0.2867
    135  CB        51.7200   34.1130  117.3130 C.3   245  ILE245      0.0252
    136  CG1       51.7860   35.2500  116.2930 C.3   245  ILE245      0.0019
    137  CG2       51.2820   32.8420  116.6120 C.3   245  ILE245      0.0019
    138  CD1       52.3780   36.5260  116.8320 C.3   245  ILE245      0.0001
@<TRIPOS>BOND
     1    40    39    2
     2    36    33    1
     3    39    38    1
     4    38    37    1
     5    37    34   am
     6     1     2    1
     7    33    34    1
     8    33    32    1
     9     2     3    1
    10    34    35    2
    11     3     4    2
    12    32    27   am
    13     5     6    1
    14    27    28    2
    15    27    26    1
    16    53    52    1
    17     6     7    1
    18    25    26    1
    19    30    29    1
    20    52    49    1
    21    26    29    1
    22    57    56    2
    23    29    31    1
    24     7     8    2
    25     7     9   am
    26    56    55    1
    27    49    50    1
    28    49    48    1
    29     9    10    1
    30    22    21    1
    31    22    23    1
    32    50    54   am
    33    50    51    2
    34    48    43   am
    35    54    55    1
    36    21    16   am
    37    23    24    2
    38    55    58    1
    39    41    42    1
    40    10    13    1
    41    10    11    1
    42    43    42    1
    43    43    44    2
    44    58    59    1
    45    14    11   am
    46    14    15    1
    47    16    15    1
    48    16    17    2
    49    42    45    1
    50    11    12    2
    51    18    15    1
    52    18    19    1
    53    18    20    1
    54    45    47    1
    55    45    46    1
    56    59    61   am
    57    59    60    2
    58   118   120   ar
    59   118   117   ar
    60   120   122   ar
    61   116   117    1
    62   116   113    1
    63   117   119   ar
    64   122   123    1
    65   122   121   ar
    66   119   121   ar
    67   113   112    1
    68   113   114    1
    69   110   108    1
    70   127   126    2
    71   111   109    1
    72   109   108    1
    73   124   114   am
    74   124   125    1
    75   114   115    2
    76   108   105    1
    77   107   106    2
    78   136   138    1
    79   136   135    1
    80   126   125    1
    81    96    98   ar
    82    96    94   ar
    83   137   135    1
    84   125   128    1
    85    92    91    2
    86   105   106    1
    87   105   104    1
    88    98    97   ar
    89    93    94    1
    90    93    90    1
    91    94    95   ar
    92   129   128    1
    93   135   132    1
    94    89    90    1
    95   134   133    2
    96   128   130    1
    97   133   132    1
    98    91    90    1
    99    97    95   ar
   100   132   131    1
   101   102   101    2
   102   103   100    1
   103   101   100    1
   104   100    99    1
   105    69    67    1
   106    66    67    1
   107    66    63    1
   108    87    86    1
   109    77    75   ar
   110    67    68    1
   111    88    86    1
   112    62    63    1
   113    86    85    2
   114    63    64    1
   115    76    75   ar
   116    75    74    1
   117    70    64   am
   118    70    71    1
   119    64    65    2
   120    74    71    1
   121    85    84    1
   122    71    72    1
   123    84    83    1
   124    72    73    2
   125    83    82    1
   126    82    79    1
   127    78    79    1
   128    79    80    1
   129    80    81    2
