@<TRIPOS>MOLECULE
tmp/4i9nH00.pdb
 133 127 0 0 0
SMALL
GASTEIGER

@<TRIPOS>ATOM
      1  N         46.0350   37.7220  105.4300 N.3    25  VAL25      -0.1231
      2  CA        46.8020   37.2730  104.2730 C.3    25  VAL25       0.1692
      3  C         47.7150   36.1250  104.6870 C.2    25  VAL25       0.2593
      4  O         48.5290   36.2660  105.6060 O.2    25  VAL25      -0.2718
      5  CB        47.6830   38.4070  103.7050 C.3    25  VAL25       0.0266
      6  CG1       48.5990   37.8620  102.6070 C.3    25  VAL25       0.0020
      7  CG2       46.8120   39.5250  103.1830 C.3    25  VAL25       0.0020
      8  N         47.5830   34.9950  103.9970 N.am   26  GLY26      -0.1942
      9  CA        48.2960   33.7980  104.4020 C.3    26  GLY26       0.2014
     10  C         47.4470   32.9160  105.2910 C.2    26  GLY26       0.2639
     11  O         46.9540   33.3560  106.3430 O.2    26  GLY26      -0.2714
     12  N         47.2590   31.6690  104.8680 N.am   27  VAL27      -0.1963
     13  CA        46.4740   30.7220  105.6560 C.3    27  VAL27       0.1727
     14  C         47.3380   29.5880  106.1700 C.2    27  VAL27       0.2616
     15  O         46.8850   28.4530  106.2940 O.2    27  VAL27      -0.2715
     16  CB        45.2760   30.1280  104.8520 C.3    27  VAL27       0.0290
     17  CG1       44.2550   31.2270  104.5590 C.3    27  VAL27       0.0023
     18  CG2       45.7740   29.4800  103.5510 C.3    27  VAL27       0.0023
     19  N         48.5850   29.9060  106.4730 N.am   28  GLY28      -0.1955
     20  CA        49.4050   28.9870  107.2320 C.3    28  GLY28       0.1869
     21  C         48.9340   28.9540  108.6720 C.2    28  GLY28       0.2309
     22  O         47.8880   29.5070  109.0040 O.2    28  GLY28      -0.2863
     23  N         45.6230   33.9710   99.8560 N.3    51  ASP51      -0.1225
     24  CA        46.8780   33.2200   99.7650 C.3    51  ASP51       0.1805
     25  C         47.0840   32.8020   98.3070 C.2    51  ASP51       0.2598
     26  O         46.2670   33.1600   97.4640 O.2    51  ASP51      -0.2718
     27  CB        46.8190   31.9810  100.6640 C.3    51  ASP51       0.1424
     28  CG        48.2030   31.4450  101.0090 C.2    51  ASP51       0.3668
     29  OD1       48.9870   31.1650  100.0720 O.co2  51  ASP51      -0.2456
     30  OD2       48.5110   31.3160  102.2150 O.co2  51  ASP51      -0.2456
     31  N         48.1660   32.0760   98.0020 N.am   52  VAL52      -0.1966
     32  CA        48.3500   31.5220   96.6500 C.3    52  VAL52       0.1727
     33  C         48.0860   30.0150   96.5230 C.2    52  VAL52       0.2616
     34  O         47.8850   29.5220   95.4190 O.2    52  VAL52      -0.2715
     35  CB        49.7780   31.7970   96.0580 C.3    52  VAL52       0.0290
     36  CG1       50.0000   33.2890   95.8710 C.3    52  VAL52       0.0023
     37  CG2       50.8590   31.1850   96.9490 C.3    52  VAL52       0.0023
     38  N         48.0830   29.2950   97.6430 N.am   53  MET53      -0.1977
     39  CA        47.7360   27.8740   97.6670 C.3    53  MET53       0.1605
     40  C         46.2220   27.6670   97.5820 C.2    53  MET53       0.2287
     41  O         45.5560   27.4910   98.6040 O.2    53  MET53      -0.2864
     42  CB        48.2480   27.2310   98.9610 C.3    53  MET53       0.0413
     43  CG        49.7310   27.4330   99.2480 C.3    53  MET53       0.0598
     44  SD        50.2700   26.3750  100.6130 S.3    53  MET53      -0.1393
     45  CE        49.6670   24.7930  100.0390 C.3    53  MET53       0.0692
     46  N         44.1340   24.9750   99.5660 N.3    56  LYS56      -0.1245
     47  CA        44.2840   25.2110  100.9950 C.3    56  LYS56       0.1561
     48  C         43.4630   26.4350  101.4230 C.2    56  LYS56       0.2260
     49  O         42.7370   26.3890  102.4190 O.2    56  LYS56      -0.2867
     50  CB        45.7650   25.4010  101.3330 C.3    56  LYS56       0.0271
     51  CG        46.0410   25.9060  102.7330 C.3    56  LYS56       0.0035
     52  CD        45.8100   24.8430  103.8000 C.3    56  LYS56       0.0206
     53  CE        46.4150   25.2790  105.1320 C.3    56  LYS56       0.1093
     54  NZ        46.1140   24.3360  106.2580 N.3    56  LYS56      -0.1314
     55  N         42.7670   39.7070   95.0590 N.3    82  TYR82      -0.1241
     56  CA        42.6390   40.5530   96.2390 C.3    82  TYR82       0.1605
     57  C         41.3660   41.3970   96.2550 C.2    82  TYR82       0.2264
     58  O         41.1410   42.1790   97.1780 O.2    82  TYR82      -0.2867
     59  CB        43.8730   41.4480   96.3720 C.3    82  TYR82       0.0534
     60  CG        45.0530   40.7100   96.9580 C.ar   82  TYR82      -0.0201
     61  CD1       45.7940   39.8230   96.1850 C.ar   82  TYR82      -0.0009
     62  CD2       45.3890   40.8520   98.3000 C.ar   82  TYR82      -0.0009
     63  CE1       46.8290   39.0960   96.7320 C.ar   82  TYR82       0.0417
     64  CE2       46.4210   40.1270   98.8570 C.ar   82  TYR82       0.0417
     65  CZ        47.1390   39.2460   98.0710 C.ar   82  TYR82       0.1957
     66  OH        48.1560   38.4940   98.6150 O.3    82  TYR82      -0.2866
     67  N         50.6670   37.6560  107.2490 N.3    94  THR94      -0.1203
     68  CA        51.4300   36.5430  107.8110 C.3    94  THR94       0.1994
     69  C         52.1300   35.7990  106.6930 C.2    94  THR94       0.2618
     70  O         52.6350   34.7080  106.8950 O.2    94  THR94      -0.2717
     71  CB        50.5270   35.5390  108.5630 C.3    94  THR94       0.1784
     72  OG1       49.7690   34.7720  107.6170 O.3    94  THR94      -0.2211
     73  CG2       49.5790   36.2840  109.5070 C.3    94  THR94       0.0376
     74  N         52.1340   36.3950  105.5090 N.am   95  ALA95      -0.1965
     75  CA        52.7800   35.8040  104.3450 C.3    95  ALA95       0.1728
     76  C         54.2910   35.9410  104.4360 C.2    95  ALA95       0.2617
     77  O         54.8120   36.9420  104.9410 O.2    95  ALA95      -0.2715
     78  CB        52.2890   36.4800  103.0790 C.3    95  ALA95       0.0334
     79  N         54.9900   34.9270  103.9350 N.am   96  GLY96      -0.1940
     80  CA        56.4320   35.0150  103.8190 C.3    96  GLY96       0.2014
     81  C         57.0550   33.7460  103.2780 C.2    96  GLY96       0.2638
     82  O         56.3560   32.8070  102.9040 O.2    96  GLY96      -0.2714
     83  N         58.3830   33.7270  103.2290 N.am   97  ALA97      -0.1977
     84  CA        59.1360   32.5100  102.9460 C.3    97  ALA97       0.1597
     85  C         59.8910   32.1370  104.2130 C.2    97  ALA97       0.2287
     86  O         59.8750   32.8950  105.1920 O.2    97  ALA97      -0.2864
     87  CB        60.1090   32.7550  101.8120 C.3    97  ALA97       0.0319
     88  N         63.7290   37.8530   99.2510 N.3   105  ARG105     -0.1245
     89  CA        62.6780   37.0250   98.6950 C.3   105  ARG105      0.1563
     90  C         61.3460   37.3360   99.3820 C.2   105  ARG105      0.2260
     91  O         60.2830   37.1900   98.7810 O.2   105  ARG105     -0.2867
     92  CB        63.0270   35.5410   98.8440 C.3   105  ARG105      0.0307
     93  CG        64.1970   35.1060   97.9810 C.3   105  ARG105      0.0489
     94  CD        64.1100   33.6310   97.6230 C.3   105  ARG105      0.2205
     95  NE        64.2060   32.7690   98.8000 N.pl3 105  ARG105     -0.0865
     96  CZ        63.2550   31.9270   99.1940 C.cat 105  ARG105      0.5346
     97  NH1       62.1260   31.8270   98.5020 N.pl3 105  ARG105      0.1354
     98  NH2       63.4310   31.1860  100.2800 N.pl3 105  ARG105      0.1354
     99  N         60.1420   40.5270   97.8480 N.3   108  ASN108     -0.1225
    100  CA        59.5660   40.2820   96.5310 C.3   108  ASN108      0.1785
    101  C         58.1110   39.8610   96.7020 C.2   108  ASN108      0.2597
    102  O         57.2190   40.3570   96.0040 O.2   108  ASN108     -0.2718
    103  CB        60.3470   39.1860   95.7980 C.3   108  ASN108      0.1169
    104  CG        61.7980   39.5770   95.5290 C.2   108  ASN108      0.2627
    105  OD1       62.6420   38.7180   95.2660 O.2   108  ASN108     -0.2716
    106  ND2       62.0920   40.8770   95.5930 N.am  108  ASN108     -0.0877
    107  N         57.8790   38.9500   97.6420 N.am  109  ILE109     -0.1980
    108  CA        56.5280   38.5980   98.0300 C.3   109  ILE109      0.1595
    109  C         55.7270   39.8620   98.3370 C.2   109  ILE109      0.2287
    110  O         54.6870   40.1070   97.7260 O.2   109  ILE109     -0.2864
    111  CB        56.5240   37.7020   99.2720 C.3   109  ILE109      0.0276
    112  CG1       57.2160   36.3770   98.9590 C.3   109  ILE109      0.0022
    113  CG2       55.0950   37.4650   99.7300 C.3   109  ILE109      0.0022
    114  CD1       57.3440   35.4590  100.1630 C.3   109  ILE109      0.0001
    115  N         54.4160   42.1040   95.5690 N.3   112  PHE112     -0.1227
    116  CA        53.2010   41.6750   94.8960 C.3   112  PHE112      0.1736
    117  C         51.9650   41.8290   95.7800 C.2   112  PHE112      0.2595
    118  O         50.9100   42.2500   95.3140 O.2   112  PHE112     -0.2718
    119  CB        53.3310   40.2170   94.4600 C.3   112  PHE112      0.0547
    120  CG        52.0510   39.6330   93.9460 C.ar  112  PHE112     -0.0202
    121  CD1       51.6510   39.8500   92.6340 C.ar  112  PHE112     -0.0042
    122  CD2       51.2350   38.8860   94.7800 C.ar  112  PHE112     -0.0042
    123  CE1       50.4540   39.3320   92.1630 C.ar  112  PHE112     -0.0003
    124  CE2       50.0350   38.3630   94.3190 C.ar  112  PHE112     -0.0003
    125  CZ        49.6440   38.5870   93.0070 C.ar  112  PHE112     -0.0000
    126  N         52.0930   41.4810   97.0550 N.am  113  ILE113     -0.1980
    127  CA        50.9470   41.4740   97.9530 C.3   113  ILE113      0.1595
    128  C         50.5250   42.8580   98.4080 C.2   113  ILE113      0.2287
    129  O         49.3500   43.1940   98.3740 O.2   113  ILE113     -0.2864
    130  CB        51.2230   40.6190   99.2110 C.3   113  ILE113      0.0276
    131  CG1       51.2100   39.1360   98.8470 C.3   113  ILE113      0.0022
    132  CG2       50.1950   40.9250  100.2830 C.3   113  ILE113      0.0022
    133  CD1       51.4050   38.2070  100.0380 C.3   113  ILE113      0.0001
@<TRIPOS>BOND
     1   123   121   ar
     2   123   125   ar
     3   121   120   ar
     4   125   124   ar
     5   120   119    1
     6   120   122   ar
     7   124   122   ar
     8   119   116    1
     9   116   115    1
    10   116   117    1
    11    55    56    1
    12   105   104    2
    13   118   117    2
    14    34    33    2
    15   104   106   am
    16   104   103    1
    17   117   126   am
    18   103   100    1
    19    36    35    1
    20   102   101    2
    21    35    32    1
    22    35    37    1
    23    61    63   ar
    24    61    60   ar
    25    56    57    1
    26    56    59    1
    27    57    58    2
    28    59    60    1
    29    33    32    1
    30    33    38   am
    31   100   101    1
    32   100    99    1
    33    32    31    1
    34   101   107   am
    35    63    65   ar
    36    60    62   ar
    37   126   127    1
    38    26    25    2
    39    40    39    1
    40    40    41    2
    41    94    93    1
    42    94    95    1
    43   107   108    1
    44    38    39    1
    45    39    42    1
    46   110   109    2
    47   127   128    1
    48   127   130    1
    49    93    92    1
    50    31    25   am
    51   108   109    1
    52   108   111    1
    53    65    66    1
    54    65    64   ar
    55    62    64   ar
    56    25    24    1
    57   129   128    2
    58    97    96    1
    59    89    92    1
    60    89    88    1
    61    89    90    1
    62    91    90    2
    63    95    96    2
    64   131   130    1
    65   131   133    1
    66   112   111    1
    67   112   114    1
    68    42    43    1
    69    96    98    1
    70   130   132    1
    71    43    44    1
    72   111   113    1
    73    46    47    1
    74    24    23    1
    75    24    27    1
    76    45    44    1
    77    29    28   ar
    78    27    28    1
    79    47    50    1
    80    47    48    1
    81    28    30   ar
    82    50    51    1
    83    48    49    2
    84    87    84    1
    85     6     5    1
    86    51    52    1
    87    82    81    2
    88    84    83    1
    89    84    85    1
    90    78    75    1
    91     7     5    1
    92    83    81   am
    93    81    80    1
    94    18    16    1
    95     5     2    1
    96    52    53    1
    97    80    79    1
    98    79    76   am
    99     8     9    1
   100     8     3   am
   101    85    86    2
   102     2     3    1
   103     2     1    1
   104    75    76    1
   105    75    74    1
   106     9    10    1
   107    76    77    2
   108    17    16    1
   109     3     4    2
   110    16    13    1
   111    12    10   am
   112    12    13    1
   113    53    54    1
   114    10    11    2
   115    74    69   am
   116    13    14    1
   117    14    15    2
   118    14    19   am
   119    19    20    1
   120    69    70    2
   121    69    68    1
   122    20    21    1
   123    67    68    1
   124    72    71    1
   125    68    71    1
   126    71    73    1
   127    21    22    2
