@<TRIPOS>MOLECULE
tmp/4i9oA00.pdb
 87 80 0 0 0
SMALL
GASTEIGER

@<TRIPOS>ATOM
      1  N         29.6380    9.5940   22.1700 N.3    20  LEU20      -0.1231
      2  CA        28.8220    8.4960   21.6120 C.3    20  LEU20       0.1693
      3  C         28.9410    8.5000   20.0990 C.2    20  LEU20       0.2591
      4  O         29.1620    7.4560   19.4890 O.2    20  LEU20      -0.2718
      5  CB        27.3310    8.6410   22.0200 C.3    20  LEU20       0.0284
      6  CG        26.9800    8.2910   23.4650 C.3    20  LEU20       0.0019
      7  CD1       25.7270    9.0230   23.9110 C.3    20  LEU20       0.0001
      8  CD2       26.7960    6.7620   23.6500 C.3    20  LEU20       0.0001
      9  N         28.8990    9.6860   19.4810 N.am   21  VAL21      -0.1980
     10  CA        29.0300    9.7630   18.0090 C.3    21  VAL21       0.1595
     11  C         30.4210    9.2620   17.5780 C.2    21  VAL21       0.2287
     12  O         30.5720    8.5680   16.5610 O.2    21  VAL21      -0.2864
     13  CB        28.7690   11.2290   17.5350 C.3    21  VAL21       0.0276
     14  CG1       29.0810   11.3940   16.0360 C.3    21  VAL21       0.0022
     15  CG2       27.3270   11.6580   17.8420 C.3    21  VAL21       0.0022
     16  N         30.9780    5.4740   17.1090 N.3    24  ILE24      -0.1245
     17  CA        30.5490    4.9290   15.8080 C.3    24  ILE24       0.1561
     18  C         31.4640    5.4560   14.6790 C.2    24  ILE24       0.2260
     19  O         31.8870    4.6710   13.8240 O.2    24  ILE24      -0.2867
     20  CB        29.0650    5.2640   15.4820 C.3    24  ILE24       0.0252
     21  CG1       28.1510    5.1010   16.6890 C.3    24  ILE24       0.0019
     22  CG2       28.5370    4.4860   14.2460 C.3    24  ILE24       0.0019
     23  CD1       27.5780    6.3370   16.9860 C.3    24  ILE24       0.0001
     24  N         23.0720   11.0700   13.4700 N.3    40  LEU40      -0.1245
     25  CA        23.8390   10.3830   14.5180 C.3    40  LEU40       0.1561
     26  C         23.7800   11.1530   15.8270 C.2    40  LEU40       0.2260
     27  O         23.6030   10.5580   16.8930 O.2    40  LEU40      -0.2867
     28  CB        25.3020   10.2430   14.0820 C.3    40  LEU40       0.0270
     29  CG        25.5610    9.4220   12.8250 C.3    40  LEU40       0.0019
     30  CD1       27.0320    9.5520   12.4020 C.3    40  LEU40       0.0001
     31  CD2       25.1650    7.9430   13.0350 C.3    40  LEU40       0.0001
     32  N         20.3580   10.6610   17.5190 N.3    43  TYR43      -0.1227
     33  CA        20.2540    9.3700   18.2130 C.3    43  TYR43       0.1736
     34  C         21.0820    9.4120   19.5030 C.2    43  TYR43       0.2595
     35  O         20.5930    9.0070   20.5470 O.2    43  TYR43      -0.2718
     36  CB        20.7550    8.2350   17.2950 C.3    43  TYR43       0.0548
     37  CG        20.4710    6.8200   17.7850 C.ar   43  TYR43      -0.0200
     38  CD1       19.5480    6.5780   18.8020 C.ar   43  TYR43      -0.0009
     39  CD2       21.0600    5.7230   17.1720 C.ar   43  TYR43      -0.0009
     40  CE1       19.2800    5.2830   19.2440 C.ar   43  TYR43       0.0417
     41  CE2       20.7800    4.4230   17.5880 C.ar   43  TYR43       0.0417
     42  CZ        19.9000    4.2080   18.6320 C.ar   43  TYR43       0.1957
     43  OH        19.6020    2.9230   19.0120 O.3    43  TYR43      -0.2866
     44  N         22.2830    9.9780   19.4480 N.am   44  ALA44      -0.1980
     45  CA        23.1520   10.0950   20.6340 C.3    44  ALA44       0.1597
     46  C         22.4920   10.9430   21.7260 C.2    44  ALA44       0.2287
     47  O         22.5650   10.5860   22.9070 O.2    44  ALA44      -0.2864
     48  CB        24.5010   10.6770   20.2430 C.3    44  ALA44       0.0319
     49  N         20.0530    8.8170   23.6830 N.3    47  VAL47      -0.1245
     50  CA        20.7790    7.9080   24.5780 C.3    47  VAL47       0.1561
     51  C         21.2560    8.6990   25.8090 C.2    47  VAL47       0.2260
     52  O         21.0430    8.2600   26.9340 O.2    47  VAL47      -0.2867
     53  CB        21.9580    7.2130   23.8230 C.3    47  VAL47       0.0252
     54  CG1       22.8330    6.4000   24.7740 C.3    47  VAL47       0.0019
     55  CG2       21.4180    6.3220   22.7070 C.3    47  VAL47       0.0019
     56  N         28.4300    2.6170   28.1900 N.3    67  LYS67      -0.1245
     57  CA        27.7020    2.4710   26.9150 C.3    67  LYS67       0.1561
     58  C         28.5990    2.8810   25.7030 C.2    67  LYS67       0.2260
     59  O         28.6090    2.2070   24.6610 O.2    67  LYS67      -0.2867
     60  CB        26.4220    3.3280   26.9430 C.3    67  LYS67       0.0271
     61  CG        25.5570    3.2140   25.6630 C.3    67  LYS67       0.0035
     62  CD        24.3880    2.2320   25.7820 C.3    67  LYS67       0.0206
     63  CE        23.2250    2.7840   26.5840 C.3    67  LYS67       0.1093
     64  NZ        22.0950    1.8190   26.6530 N.3    67  LYS67      -0.1314
     65  N         29.6890    0.3910   22.5910 N.3    71  ILE71      -0.1245
     66  CA        29.4400    0.7530   21.1950 C.3    71  ILE71       0.1561
     67  C         30.7460    0.7460   20.4160 C.2    71  ILE71       0.2260
     68  O         30.7710    0.2510   19.2880 O.2    71  ILE71      -0.2867
     69  CB        28.7250    2.1250   21.0580 C.3    71  ILE71       0.0252
     70  CG1       27.2920    2.0600   21.6110 C.3    71  ILE71       0.0019
     71  CG2       28.7290    2.6290   19.5960 C.3    71  ILE71       0.0019
     72  CD1       26.6990    3.4660   21.8560 C.3    71  ILE71       0.0001
     73  N         31.7070   -2.8610   19.6320 N.3    74  GLU74      -0.1231
     74  CA        30.7970   -3.3830   18.6170 C.3    74  GLU74       0.1699
     75  C         31.0800   -2.8020   17.2190 C.2    74  GLU74       0.2592
     76  O         30.9540   -3.5140   16.2170 O.2    74  GLU74      -0.2718
     77  CB        29.3480   -3.0790   19.0150 C.3    74  GLU74       0.0402
     78  CG        28.8380   -3.9620   20.1440 C.3    74  GLU74       0.1161
     79  CD        27.4830   -3.5960   20.7210 C.2    74  GLU74       0.3649
     80  OE1       26.8300   -2.6690   20.1850 O.co2  74  GLU74      -0.2457
     81  OE2       27.0770   -4.2350   21.7190 O.co2  74  GLU74      -0.2457
     82  N         31.4820   -1.5220   17.1530 N.am   75  CYS75      -0.1970
     83  CA        31.7690   -0.8530   15.8910 C.3    75  CYS75       0.1712
     84  C         33.2030   -1.0990   15.3660 C.2    75  CYS75       0.2296
     85  O         33.3790   -1.1380   14.1450 O.2    75  CYS75      -0.2864
     86  CB        31.4480    0.6310   15.9940 C.3    75  CYS75       0.0983
     87  SG        29.6790    0.9660   16.2050 S.3    75  CYS75      -0.0798
@<TRIPOS>BOND
     1    30    29    1
     2    29    31    1
     3    29    28    1
     4    24    25    1
     5    19    18    2
     6    28    25    1
     7    85    84    2
     8    22    20    1
     9    25    26    1
    10    18    17    1
    11    84    83    1
    12    20    17    1
    13    20    21    1
    14    17    16    1
    15    26    27    2
    16    83    86    1
    17    83    82    1
    18    86    87    1
    19    14    13    1
    20    76    75    2
    21    12    11    2
    22    21    23    1
    23    82    75   am
    24    39    41   ar
    25    39    37   ar
    26    75    74    1
    27    36    37    1
    28    36    33    1
    29    32    33    1
    30    13    15    1
    31    13    10    1
    32    11    10    1
    33    41    42   ar
    34    37    38   ar
    35    10     9    1
    36    33    34    1
    37    74    77    1
    38    74    73    1
    39    42    43    1
    40    42    40   ar
    41    38    40   ar
    42    77    78    1
    43    68    67    2
    44    44    34   am
    45    44    45    1
    46     9     3   am
    47     4     3    2
    48    34    35    2
    49    71    69    1
    50     3     2    1
    51    78    79    1
    52    80    79   ar
    53    48    45    1
    54    67    66    1
    55    45    46    1
    56    79    81   ar
    57    69    66    1
    58    69    70    1
    59    66    65    1
    60    70    72    1
    61     2     5    1
    62     2     1    1
    63    46    47    2
    64     5     6    1
    65    55    53    1
    66     6     8    1
    67     6     7    1
    68    49    50    1
    69    53    50    1
    70    53    54    1
    71    50    51    1
    72    59    58    2
    73    61    62    1
    74    61    60    1
    75    58    57    1
    76    62    63    1
    77    51    52    2
    78    63    64    1
    79    57    60    1
    80    57    56    1
