@<TRIPOS>MOLECULE
tmp/4i9qA01.pdb
 155 147 0 0 0
SMALL
GASTEIGER

@<TRIPOS>ATOM
      1  N         -2.9840    4.3160  -34.6670 N.3    33  TYR33      -0.1227
      2  CA        -4.2180    4.6180  -33.9530 C.3    33  TYR33       0.1736
      3  C         -4.4340    6.1170  -33.7760 C.2    33  TYR33       0.2595
      4  O         -3.5760    6.8200  -33.2440 O.2    33  TYR33      -0.2718
      5  CB        -4.2150    3.9200  -32.5900 C.3    33  TYR33       0.0548
      6  CG        -5.4840    4.0980  -31.7850 C.ar   33  TYR33      -0.0200
      7  CD1       -6.7210    3.7550  -32.3150 C.ar   33  TYR33      -0.0009
      8  CD2       -5.4410    4.5860  -30.4850 C.ar   33  TYR33      -0.0009
      9  CE1       -7.8810    3.9080  -31.5800 C.ar   33  TYR33       0.0417
     10  CE2       -6.5950    4.7410  -29.7420 C.ar   33  TYR33       0.0417
     11  CZ        -7.8120    4.4010  -30.2930 C.ar   33  TYR33       0.1957
     12  OH        -8.9630    4.5550  -29.5560 O.3    33  TYR33      -0.2866
     13  N         -5.5840    6.5960  -34.2370 N.am   34  LYS34      -0.1980
     14  CA        -5.9670    7.9880  -34.0490 C.3    34  LYS34       0.1596
     15  C         -6.9450    8.0890  -32.8850 C.2    34  LYS34       0.2287
     16  O         -8.1400    7.8480  -33.0520 O.2    34  LYS34      -0.2864
     17  CB        -6.6010    8.5480  -35.3220 C.3    34  LYS34       0.0298
     18  CG        -5.7230    8.4380  -36.5580 C.3    34  LYS34       0.0038
     19  CD        -6.2780    9.2680  -37.7050 C.3    34  LYS34       0.0206
     20  CE        -7.7120    8.8840  -38.0290 C.3    34  LYS34       0.1093
     21  NZ        -8.2920    9.7540  -39.0900 N.3    34  LYS34      -0.1314
     22  N         -8.9910    9.7570  -29.3960 N.3    36  SER36      -0.1217
     23  CA        -9.8730   10.8960  -29.2140 C.3    36  SER36       0.1889
     24  C        -10.0570   11.2160  -27.7380 C.2    36  SER36       0.2288
     25  O        -10.2870   10.3240  -26.9210 O.2    36  SER36      -0.2866
     26  CB       -11.2320   10.6410  -29.8730 C.3    36  SER36       0.2089
     27  OG       -11.1040   10.4750  -31.2740 O.3    36  SER36      -0.2183
     28  N        -11.7700   14.4320  -24.9100 N.3    38  PHE38      -0.1241
     29  CA       -12.9770   15.2450  -24.8200 C.3    38  PHE38       0.1605
     30  C        -12.7890   16.5230  -24.0080 C.2    38  PHE38       0.2264
     31  O        -11.9900   16.5720  -23.0730 O.2    38  PHE38      -0.2867
     32  CB       -14.1270   14.4220  -24.2330 C.3    38  PHE38       0.0534
     33  CG       -14.5090   13.2290  -25.0650 C.ar   38  PHE38      -0.0203
     34  CD1      -13.8040   12.0400  -24.9640 C.ar   38  PHE38      -0.0042
     35  CD2      -15.5780   13.2950  -25.9420 C.ar   38  PHE38      -0.0042
     36  CE1      -14.1530   10.9430  -25.7280 C.ar   38  PHE38      -0.0003
     37  CE2      -15.9340   12.2020  -26.7060 C.ar   38  PHE38      -0.0003
     38  CZ       -15.2220   11.0240  -26.5990 C.ar   38  PHE38      -0.0000
     39  N        -23.4480   13.7630  -28.6580 N.3    48  LYS48      -0.1231
     40  CA       -23.9450   12.5440  -28.0300 C.3    48  LYS48       0.1693
     41  C        -23.0230   12.1140  -26.8910 C.2    48  LYS48       0.2592
     42  O        -23.2110   11.0550  -26.2900 O.2    48  LYS48      -0.2718
     43  CB       -24.0720   11.4150  -29.0550 C.3    48  LYS48       0.0285
     44  CG       -22.7430   10.8650  -29.5480 C.3    48  LYS48       0.0035
     45  CD       -22.9500    9.6320  -30.4130 C.3    48  LYS48       0.0206
     46  CE       -21.6250    8.9980  -30.8040 C.3    48  LYS48       0.1093
     47  NZ       -21.8180    7.7380  -31.5750 N.3    48  LYS48      -0.1314
     48  N        -22.0270   12.9460  -26.6030 N.am   49  TYR49      -0.1976
     49  CA       -21.0650   12.6600  -25.5460 C.3    49  TYR49       0.1639
     50  C        -21.2810   13.5400  -24.3190 C.2    49  TYR49       0.2290
     51  O        -21.2240   14.7680  -24.3990 O.2    49  TYR49      -0.2864
     52  CB       -19.6330   12.8400  -26.0560 C.3    49  TYR49       0.0560
     53  CG       -19.2850   11.9810  -27.2480 C.ar   49  TYR49      -0.0198
     54  CD1      -19.1190   10.6090  -27.1150 C.ar   49  TYR49      -0.0009
     55  CD2      -19.1100   12.5430  -28.5060 C.ar   49  TYR49      -0.0009
     56  CE1      -18.7960    9.8190  -28.2020 C.ar   49  TYR49       0.0417
     57  CE2      -18.7880   11.7640  -29.5990 C.ar   49  TYR49       0.0417
     58  CZ       -18.6320   10.4020  -29.4420 C.ar   49  TYR49       0.1957
     59  OH       -18.3090    9.6210  -30.5280 O.3    49  TYR49      -0.2866
     60  N        -16.0460   15.7480  -28.9200 N.3    59  ARG59      -0.1245
     61  CA       -15.0170   14.7680  -29.2390 C.3    59  ARG59       0.1563
     62  C        -13.9410   15.3640  -30.1400 C.2    59  ARG59       0.2260
     63  O        -14.2260   15.8060  -31.2530 O.2    59  ARG59      -0.2867
     64  CB       -15.6350   13.5400  -29.9090 C.3    59  ARG59       0.0307
     65  CG       -14.6380   12.4320  -30.2030 C.3    59  ARG59       0.0489
     66  CD       -15.3220   11.2170  -30.8050 C.3    59  ARG59       0.2205
     67  NE       -15.9540   11.5270  -32.0830 N.pl3  59  ARG59      -0.0865
     68  CZ       -15.3640   11.3760  -33.2640 C.cat  59  ARG59       0.5346
     69  NH1      -14.1230   10.9130  -33.3310 N.pl3  59  ARG59       0.1354
     70  NH2      -16.0140   11.6840  -34.3770 N.pl3  59  ARG59       0.1354
     71  N        -10.9600   14.4610  -32.3590 N.3    61  LEU61      -0.1245
     72  CA       -10.2330   13.4140  -33.0620 C.3    61  LEU61       0.1561
     73  C         -8.8400   13.9200  -33.4160 C.2    61  LEU61       0.2260
     74  O         -8.6960   14.9270  -34.1100 O.2    61  LEU61      -0.2867
     75  CB       -10.9780   13.0070  -34.3350 C.3    61  LEU61       0.0270
     76  CG       -11.0570   11.5160  -34.6840 C.3    61  LEU61       0.0019
     77  CD1      -11.3980   11.3330  -36.1570 C.3    61  LEU61       0.0001
     78  CD2       -9.7760   10.7720  -34.3250 C.3    61  LEU61       0.0001
     79  N        -11.4570   11.8940  -20.9760 N.3    84  GLY84      -0.1210
     80  CA       -11.2010   10.7600  -21.8440 C.3    84  GLY84       0.1956
     81  C        -10.0650    9.8830  -21.3540 C.2    84  GLY84       0.2611
     82  O         -9.2680   10.2950  -20.5120 O.2    84  GLY84      -0.2717
     83  N         -9.9940    8.6690  -21.8910 N.am   85  MET85      -0.1979
     84  CA        -8.9670    7.7030  -21.5120 C.3    85  MET85       0.1605
     85  C         -7.5940    8.0970  -22.0560 C.2    85  MET85       0.2287
     86  O         -7.3170    7.9400  -23.2450 O.2    85  MET85      -0.2864
     87  CB        -9.3590    6.3020  -21.9970 C.3    85  MET85       0.0413
     88  CG        -8.2820    5.2430  -21.8250 C.3    85  MET85       0.0598
     89  SD        -7.7540    5.0090  -20.1180 S.3    85  MET85      -0.1393
     90  CE        -9.2420    4.3340  -19.3870 C.3    85  MET85       0.0692
     91  N         -7.8900    2.4140  -24.8640 N.3    91  ALA91      -0.1245
     92  CA        -8.9490    2.9010  -25.7400 C.3    91  ALA91       0.1562
     93  C         -8.9520    2.1290  -27.0540 C.2    91  ALA91       0.2260
     94  O        -10.0110    1.8560  -27.6200 O.2    91  ALA91      -0.2867
     95  CB        -8.7880    4.3930  -25.9930 C.3    91  ALA91       0.0290
     96  N        -12.1080   -0.0010  -28.6530 N.3    95  ASP95      -0.1239
     97  CA       -12.6620    0.1990  -29.9870 C.3    95  ASP95       0.1674
     98  C        -12.5510   -1.0660  -30.8330 C.2    95  ASP95       0.2266
     99  O        -13.4920   -1.4410  -31.5300 O.2    95  ASP95      -0.2867
    100  CB       -11.9630    1.3630  -30.6940 C.3    95  ASP95       0.1410
    101  CG       -12.0900    2.6680  -29.9350 C.2    95  ASP95       0.3668
    102  OD1      -12.9730    2.7620  -29.0580 O.co2  95  ASP95      -0.2456
    103  OD2      -11.3090    3.6010  -30.2160 O.co2  95  ASP95      -0.2456
    104  N        -14.3250    2.4940  -17.4010 N.3   370  PHE370     -0.1241
    105  CA       -14.2130    3.2130  -18.6690 C.3   370  PHE370      0.1605
    106  C        -15.0410    2.5650  -19.7730 C.2   370  PHE370      0.2264
    107  O        -15.8300    3.2350  -20.4370 O.2   370  PHE370     -0.2867
    108  CB       -12.7520    3.3190  -19.1110 C.3   370  PHE370      0.0534
    109  CG       -12.5810    3.5880  -20.5800 C.ar  370  PHE370     -0.0203
    110  CD1      -13.0010    4.7870  -21.1350 C.ar  370  PHE370     -0.0042
    111  CD2      -11.9940    2.6430  -21.4060 C.ar  370  PHE370     -0.0042
    112  CE1      -12.8450    5.0340  -22.4860 C.ar  370  PHE370     -0.0003
    113  CE2      -11.8340    2.8870  -22.7570 C.ar  370  PHE370     -0.0003
    114  CZ       -12.2600    4.0850  -23.2980 C.ar  370  PHE370     -0.0000
    115  N        -18.2370    4.1340  -21.6010 N.3   374  LYS374     -0.1245
    116  CA       -18.1560    4.3260  -23.0450 C.3   374  LYS374      0.1561
    117  C        -19.3310    3.6680  -23.7660 C.2   374  LYS374      0.2260
    118  O        -19.8170    4.1790  -24.7760 O.2   374  LYS374     -0.2867
    119  CB       -16.8370    3.7700  -23.5860 C.3   374  LYS374      0.0271
    120  CG       -16.6900    3.8960  -25.0920 C.3   374  LYS374      0.0035
    121  CD       -15.6840    2.8990  -25.6350 C.3   374  LYS374      0.0206
    122  CE       -15.6940    2.8820  -27.1540 C.3   374  LYS374      0.1093
    123  NZ       -14.8800    1.7640  -27.7010 N.3   374  LYS374     -0.1314
    124  N        -21.9480    5.8360  -24.1870 N.3   377  ASN377     -0.1225
    125  CA       -21.4020    7.0510  -24.7920 C.3   377  ASN377      0.1785
    126  C        -21.0350    8.1270  -23.7700 C.2   377  ASN377      0.2597
    127  O        -21.0480    9.3200  -24.0750 O.2   377  ASN377     -0.2718
    128  CB       -22.3530    7.6120  -25.8550 C.3   377  ASN377      0.1169
    129  CG       -22.5200    6.6750  -27.0370 C.2   377  ASN377      0.2627
    130  OD1      -21.5710    6.0130  -27.4600 O.2   377  ASN377     -0.2716
    131  ND2      -23.7320    6.6130  -27.5760 N.am  377  ASN377     -0.0877
    132  N        -20.7000    7.6920  -22.5590 N.am  378  LYS378     -0.1966
    133  CA       -20.3070    8.6060  -21.4950 C.3   378  LYS378      0.1728
    134  C        -18.7870    8.7380  -21.4270 C.2   378  LYS378      0.2616
    135  O        -18.0600    7.7900  -21.7240 O.2   378  LYS378     -0.2715
    136  CB       -20.8700    8.1350  -20.1520 C.3   378  LYS378      0.0311
    137  CG       -22.3840    7.9960  -20.1430 C.3   378  LYS378      0.0038
    138  CD       -22.8980    7.4580  -18.8170 C.3   378  LYS378      0.0206
    139  CE       -24.4190    7.3590  -18.8220 C.3   378  LYS378      0.1093
    140  NZ       -24.9580    6.8430  -17.5320 N.3   378  LYS378     -0.1314
    141  N        -18.3150    9.9160  -21.0320 N.am  379  VAL379     -0.1963
    142  CA       -16.8840   10.2050  -21.0140 C.3   379  VAL379      0.1727
    143  C        -16.3210   10.2770  -19.5950 C.2   379  VAL379      0.2616
    144  O        -16.8450   10.9960  -18.7440 O.2   379  VAL379     -0.2715
    145  CB       -16.5770   11.5220  -21.7460 C.3   379  VAL379      0.0290
    146  CG1      -15.0930   11.8340  -21.6780 C.3   379  VAL379      0.0023
    147  CG2      -17.0460   11.4430  -23.1900 C.3   379  VAL379      0.0023
    148  N        -15.2470    9.5300  -19.3520 N.am  380  ILE380     -0.1977
    149  CA       -14.6030    9.5000  -18.0420 C.3   380  ILE380      0.1596
    150  C        -13.8910   10.8190  -17.7330 C.2   380  ILE380      0.2287
    151  O        -13.4040   11.4950  -18.6390 O.2   380  ILE380     -0.2864
    152  CB       -13.6040    8.3240  -17.9310 C.3   380  ILE380      0.0276
    153  CG1      -12.4710    8.4760  -18.9480 C.3   380  ILE380      0.0022
    154  CG2      -14.3190    6.9960  -18.1280 C.3   380  ILE380      0.0022
    155  CD1      -11.4490    7.3620  -18.8850 C.3   380  ILE380      0.0001
@<TRIPOS>BOND
     1    21    20    1
     2    20    19    1
     3    19    18    1
     4    18    17    1
     5    77    76    1
     6    17    14    1
     7    76    75    1
     8    76    78    1
     9     1     2    1
    10    70    68    1
    11    75    72    1
    12    13    14    1
    13    13     3   am
    14    74    73    2
    15    14    15    1
    16     2     3    1
    17     2     5    1
    18     3     4    2
    19    73    72    1
    20    69    68    1
    21    68    67    2
    22    72    71    1
    23    16    15    2
    24     5     6    1
    25     7     6   ar
    26     7     9   ar
    27    67    66    1
    28     6     8   ar
    29     9    11   ar
    30    47    46    1
    31    99    98    2
    32    27    26    1
    33    63    62    2
    34    98    97    1
    35    66    65    1
    36    46    45    1
    37   100    97    1
    38   100   101    1
    39    59    58    1
    40     8    10   ar
    41    45    44    1
    42    11    10   ar
    43    11    12    1
    44   103   101   ar
    45    65    64    1
    46    62    61    1
    47    97    96    1
    48   101   102   ar
    49    64    61    1
    50    26    23    1
    51    57    58   ar
    52    57    55   ar
    53    44    43    1
    54    58    56   ar
    55    22    23    1
    56    61    60    1
    57    23    24    1
    58    43    40    1
    59    39    40    1
    60    55    53   ar
    61    56    54   ar
    62    40    41    1
    63    24    25    2
    64   123   122    1
    65    94    93    2
    66   131   129   am
    67   130   129    2
    68    53    54   ar
    69    53    52    1
    70   122   121    1
    71    93    92    1
    72   129   128    1
    73    41    48   am
    74    41    42    2
    75    37    38   ar
    76    37    35   ar
    77    48    49    1
    78    38    36   ar
    79    52    49    1
    80    95    92    1
    81    35    33   ar
    82   128   125    1
    83    92    91    1
    84    36    34   ar
    85   121   120    1
    86    49    50    1
    87   120   119    1
    88    33    34   ar
    89    33    32    1
    90    28    29    1
    91    29    32    1
    92    29    30    1
    93   125   124    1
    94   125   126    1
    95   118   117    2
    96    51    50    2
    97   127   126    2
    98    30    31    2
    99   126   132   am
   100   117   116    1
   101   119   116    1
   102   114   113   ar
   103   114   112   ar
   104    86    85    2
   105   147   145    1
   106   116   115    1
   107   113   111   ar
   108   132   133    1
   109   112   110   ar
   110    85    84    1
   111    87    88    1
   112    87    84    1
   113    83    84    1
   114    83    81   am
   115    80    81    1
   116    80    79    1
   117    88    89    1
   118   145   146    1
   119   145   142    1
   120   135   134    2
   121   133   134    1
   122   133   136    1
   123   134   141   am
   124   111   109   ar
   125    81    82    2
   126   110   109   ar
   127   141   142    1
   128   142   143    1
   129   109   108    1
   130   107   106    2
   131   136   137    1
   132   137   138    1
   133    89    90    1
   134   106   105    1
   135   143   148   am
   136   143   144    2
   137   148   149    1
   138   108   105    1
   139   153   155    1
   140   153   152    1
   141   139   138    1
   142   139   140    1
   143   105   104    1
   144   151   150    2
   145   154   152    1
   146   149   152    1
   147   149   150    1
