@<TRIPOS>MOLECULE
tmp/4i9qA00.pdb
 177 169 0 0 0
SMALL
GASTEIGER

@<TRIPOS>ATOM
      1  N         -3.4190  -15.6480   -0.6040 N.3   282  PHE282     -0.1241
      2  CA        -3.9360  -15.3340    0.7320 C.3   282  PHE282      0.1605
      3  C         -3.1570  -16.0120    1.8590 C.2   282  PHE282      0.2264
      4  O         -3.7210  -16.3320    2.9050 O.2   282  PHE282     -0.2867
      5  CB        -5.4280  -15.6730    0.8500 C.3   282  PHE282      0.0534
      6  CG        -6.3230  -14.7710    0.0530 C.ar  282  PHE282     -0.0203
      7  CD1       -6.7600  -13.5670    0.5800 C.ar  282  PHE282     -0.0042
      8  CD2       -6.7360  -15.1290   -1.2190 C.ar  282  PHE282     -0.0042
      9  CE1       -7.5870  -12.7340   -0.1480 C.ar  282  PHE282     -0.0003
     10  CE2       -7.5640  -14.3000   -1.9530 C.ar  282  PHE282     -0.0003
     11  CZ        -7.9900  -13.1000   -1.4160 C.ar  282  PHE282     -0.0000
     12  N        -22.2350  -13.2740   10.3770 N.3   411  ASP411     -0.1225
     13  CA       -21.4530  -12.3720    9.5400 C.3   411  ASP411      0.1805
     14  C        -22.2450  -11.8830    8.3310 C.2   411  ASP411      0.2598
     15  O        -23.0620  -12.6140    7.7710 O.2   411  ASP411     -0.2718
     16  CB       -20.1560  -13.0470    9.0860 C.3   411  ASP411      0.1424
     17  CG       -20.3800  -14.0450    7.9700 C.2   411  ASP411      0.3668
     18  OD1      -20.8720  -15.1580    8.2530 O.co2 411  ASP411     -0.2456
     19  OD2      -20.0650  -13.7170    6.8080 O.co2 411  ASP411     -0.2456
     20  N        -21.9910  -10.6400    7.9360 N.am  412  LEU412     -0.1966
     21  CA       -22.6390  -10.0490    6.7710 C.3   412  LEU412      0.1728
     22  C        -22.0210  -10.5640    5.4720 C.2   412  LEU412      0.2617
     23  O        -20.8960  -11.0570    5.4650 O.2   412  LEU412     -0.2715
     24  CB       -22.5550   -8.5230    6.8390 C.3   412  LEU412      0.0311
     25  CG       -23.4050   -7.8820    7.9380 C.3   412  LEU412      0.0022
     26  CD1      -22.7980   -6.5700    8.4090 C.3   412  LEU412      0.0001
     27  CD2      -24.8240   -7.6630    7.4390 C.3   412  LEU412      0.0001
     28  N        -22.7660  -10.4480    4.3780 N.am  413  THR413     -0.1937
     29  CA       -22.3310  -10.9610    3.0820 C.3   413  THR413      0.2028
     30  C        -21.6520   -9.8790    2.2470 C.2   413  THR413      0.2643
     31  O        -22.3250   -8.9860    1.7310 O.2   413  THR413     -0.2714
     32  CB       -23.5220  -11.5190    2.2790 C.3   413  THR413      0.1808
     33  OG1      -24.1770  -12.5430    3.0370 O.3   413  THR413     -0.2208
     34  CG2      -23.0520  -12.0930    0.9520 C.3   413  THR413      0.0379
     35  N        -20.3280   -9.9830    2.1090 N.am  414  SER414     -0.1935
     36  CA       -19.5340   -9.0050    1.3640 C.3   414  SER414      0.2055
     37  C        -19.9420   -7.5790    1.7150 C.2   414  SER414      0.2643
     38  O        -20.4840   -6.8590    0.8790 O.2   414  SER414     -0.2714
     39  CB       -19.6690   -9.2320   -0.1420 C.3   414  SER414      0.2130
     40  OG       -20.9710   -8.8990   -0.5900 O.3   414  SER414     -0.2179
     41  N        -19.6790   -7.1910    2.9590 N.am  415  LEU415     -0.1963
     42  CA       -20.1410   -5.9200    3.5150 C.3   415  LEU415      0.1728
     43  C        -19.9270   -4.6850    2.6400 C.2   415  LEU415      0.2616
     44  O        -20.8930   -4.0410    2.2300 O.2   415  LEU415     -0.2715
     45  CB       -19.5360   -5.6940    4.9020 C.3   415  LEU415      0.0311
     46  CG       -20.0570   -4.4630    5.6410 C.3   415  LEU415      0.0022
     47  CD1      -21.5850   -4.4760    5.6980 C.3   415  LEU415      0.0001
     48  CD2      -19.4660   -4.3930    7.0360 C.3   415  LEU415      0.0001
     49  N        -18.6710   -4.3560    2.3590 N.am  416  TYR416     -0.1960
     50  CA       -18.3570   -3.1170    1.6440 C.3   416  TYR416      0.1756
     51  C        -18.9590   -3.0090    0.2360 C.2   416  TYR416      0.2461
     52  O        -19.5160   -1.9700   -0.1080 O.2   416  TYR416     -0.2730
     53  CB       -16.8480   -2.8220    1.6420 C.3   416  TYR416      0.0574
     54  CG       -16.3140   -2.3520    2.9800 C.ar  416  TYR416     -0.0198
     55  CD1      -17.0710   -2.4830    4.1380 C.ar  416  TYR416     -0.0009
     56  CD2      -15.0610   -1.7600    3.0820 C.ar  416  TYR416     -0.0009
     57  CE1      -16.5920   -2.0550    5.3580 C.ar  416  TYR416      0.0417
     58  CE2      -14.5730   -1.3250    4.3010 C.ar  416  TYR416      0.0417
     59  CZ       -15.3430   -1.4760    5.4350 C.ar  416  TYR416      0.1957
     60  OH       -14.8690   -1.0460    6.6510 O.3   416  TYR416     -0.2866
     61  N        -18.8500   -4.0710   -0.5830 N.am  417  PRO417     -0.2727
     62  CA       -19.5560   -4.0010   -1.8670 C.3   417  PRO417      0.1402
     63  C        -21.0670   -3.8770   -1.6820 C.2   417  PRO417      0.2269
     64  O        -21.7180   -3.1570   -2.4380 O.2   417  PRO417     -0.2865
     65  CB       -19.2160   -5.3420   -2.5240 C.3   417  PRO417      0.0296
     66  CG       -17.9170   -5.7260   -1.9250 C.3   417  PRO417      0.0237
     67  CD       -17.9850   -5.2630   -0.5050 C.3   417  PRO417      0.0939
     68  N        -18.9370  -14.1200   -8.7180 N.3   482  ARG482     -0.1245
     69  CA       -18.3180  -14.8500   -7.6200 C.3   482  ARG482      0.1563
     70  C        -19.3460  -15.7200   -6.9080 C.2   482  ARG482      0.2260
     71  O        -19.0500  -16.8460   -6.5070 O.2   482  ARG482     -0.2867
     72  CB       -17.6760  -13.8870   -6.6220 C.3   482  ARG482      0.0307
     73  CG       -17.2080  -14.5640   -5.3470 C.3   482  ARG482      0.0489
     74  CD       -16.7040  -13.5590   -4.3340 C.3   482  ARG482      0.2205
     75  NE       -16.3210  -14.2060   -3.0830 N.pl3 482  ARG482     -0.0865
     76  CZ       -17.0770  -14.2250   -1.9900 C.cat 482  ARG482      0.5346
     77  NH1      -18.2580  -13.6220   -1.9870 N.pl3 482  ARG482      0.1354
     78  NH2      -16.6480  -14.8400   -0.8970 N.pl3 482  ARG482      0.1354
     79  N        -19.1060  -19.4940   -5.9760 N.3   486  LYS486     -0.1245
     80  CA       -19.1710  -19.8260   -4.5570 C.3   486  LYS486      0.1561
     81  C        -20.2070  -20.9200   -4.3280 C.2   486  LYS486      0.2260
     82  O        -20.1190  -21.6860   -3.3690 O.2   486  LYS486     -0.2867
     83  CB       -19.5110  -18.5900   -3.7220 C.3   486  LYS486      0.0271
     84  CG       -19.2870  -18.7730   -2.2270 C.3   486  LYS486      0.0035
     85  CD       -19.6760  -17.5280   -1.4490 C.3   486  LYS486      0.0206
     86  CE       -19.2030  -17.6090   -0.0060 C.3   486  LYS486      0.1093
     87  NZ       -19.7430  -18.8010    0.6980 N.3   486  LYS486     -0.1314
     88  N        -13.6170  -18.1470   -6.6790 N.3   507  GLN507     -0.1231
     89  CA       -14.4620  -17.2270   -5.9230 C.3   507  GLN507      0.1698
     90  C        -13.6720  -16.2840   -5.0080 C.2   507  GLN507      0.2592
     91  O        -13.9950  -15.1030   -4.9120 O.2   507  GLN507     -0.2718
     92  CB       -15.5590  -17.9800   -5.1490 C.3   507  GLN507      0.0381
     93  CG       -15.0860  -18.7950   -3.9500 C.3   507  GLN507      0.0905
     94  CD       -14.9800  -17.9660   -2.6810 C.2   507  GLN507      0.2608
     95  OE1      -15.5370  -16.8710   -2.5940 O.2   507  GLN507     -0.2717
     96  NE2      -14.2520  -18.4790   -1.6970 N.am  507  GLN507     -0.0878
     97  N        -12.6330  -16.7920   -4.3490 N.am  508  ILE508     -0.1980
     98  CA       -11.9100  -15.9820   -3.3690 C.3   508  ILE508      0.1595
     99  C        -11.0280  -14.9110   -4.0150 C.2   508  ILE508      0.2287
    100  O        -10.8400  -13.8340   -3.4510 O.2   508  ILE508     -0.2864
    101  CB       -11.0860  -16.8420   -2.3730 C.3   508  ILE508      0.0276
    102  CG1      -10.7470  -16.0290   -1.1210 C.3   508  ILE508      0.0022
    103  CG2       -9.8210  -17.3890   -3.0220 C.3   508  ILE508      0.0022
    104  CD1       -9.9410  -16.7930   -0.0950 C.3   508  ILE508      0.0001
    105  N        -13.1410  -11.9830   -5.3190 N.3   511  LYS511     -0.1231
    106  CA       -13.5290  -11.0700   -4.2510 C.3   511  LYS511      0.1693
    107  C        -12.4220  -10.0660   -3.9440 C.2   511  LYS511      0.2591
    108  O        -12.6880   -8.9650   -3.4610 O.2   511  LYS511     -0.2718
    109  CB       -13.8920  -11.8510   -2.9880 C.3   511  LYS511      0.0285
    110  CG       -14.4930  -11.0010   -1.8860 C.3   511  LYS511      0.0035
    111  CD       -14.9190  -11.8580   -0.7160 C.3   511  LYS511      0.0206
    112  CE       -13.7510  -12.6490   -0.1520 C.3   511  LYS511      0.1093
    113  NZ       -12.7190  -11.7590    0.4440 N.3   511  LYS511     -0.1314
    114  N        -11.1820  -10.4530   -4.2230 N.am  512  LEU512     -0.1980
    115  CA       -10.0480   -9.5550   -4.0520 C.3   512  LEU512      0.1596
    116  C        -10.2090   -8.3390   -4.9570 C.2   512  LEU512      0.2287
    117  O         -9.8130   -7.2290   -4.6050 O.2   512  LEU512     -0.2864
    118  CB        -8.7360  -10.2780   -4.3590 C.3   512  LEU512      0.0297
    119  CG        -7.4580   -9.4370   -4.2980 C.3   512  LEU512      0.0022
    120  CD1       -7.3220   -8.7530   -2.9450 C.3   512  LEU512      0.0001
    121  CD2       -6.2380  -10.2940   -4.5950 C.3   512  LEU512      0.0001
    122  N        -13.2600   -6.2980   -3.3830 N.3   515  ASN515     -0.1225
    123  CA       -12.8940   -5.6740   -2.1160 C.3   515  ASN515      0.1785
    124  C        -11.9330   -4.5050   -2.3170 C.2   515  ASN515      0.2597
    125  O        -11.8940   -3.5750   -1.5120 O.2   515  ASN515     -0.2718
    126  CB       -12.2890   -6.6970   -1.1500 C.3   515  ASN515      0.1169
    127  CG       -13.3440   -7.5210   -0.4350 C.2   515  ASN515      0.2627
    128  OD1      -14.4930   -7.0980   -0.3000 O.2   515  ASN515     -0.2716
    129  ND2      -12.9570   -8.7030    0.0320 N.am  515  ASN515     -0.0877
    130  N        -11.1690   -4.5540   -3.4030 N.am  516  SER516     -0.1952
    131  CA       -10.1700   -3.5300   -3.6820 C.3   516  SER516      0.1924
    132  C        -10.7790   -2.2570   -4.2680 C.2   516  SER516      0.2314
    133  O        -10.1580   -1.1960   -4.2320 O.2   516  SER516     -0.2863
    134  CB        -9.0790   -4.0790   -4.6090 C.3   516  SER516      0.2116
    135  OG        -9.6310   -4.5920   -5.8080 O.3   516  SER516     -0.2180
    136  N        -13.5610   -0.6970   -3.1570 N.3   518  ALA518     -0.1231
    137  CA       -13.9000    0.1550   -2.0230 C.3   518  ALA518      0.1694
    138  C        -12.6540    0.8480   -1.4710 C.2   518  ALA518      0.2592
    139  O        -12.7010    2.0130   -1.0760 O.2   518  ALA518     -0.2718
    140  CB       -14.5850   -0.6560   -0.9340 C.3   518  ALA518      0.0304
    141  N        -11.5420    0.1210   -1.4430 N.am  519  GLY519     -0.1957
    142  CA       -10.2800    0.6840   -0.9990 C.3   519  GLY519      0.1869
    143  C         -9.7370    1.6740   -2.0120 C.2   519  GLY519      0.2309
    144  O         -9.1440    2.6880   -1.6450 O.2   519  GLY519     -0.2863
    145  N        -15.6530   -5.5730   12.1160 N.3   573  THR573     -0.1203
    146  CA       -15.9870   -5.2160   10.7370 C.3   573  THR573      0.1994
    147  C        -17.3780   -5.6640   10.2790 C.2   573  THR573      0.2617
    148  O        -18.2850   -4.8440   10.1510 O.2   573  THR573     -0.2717
    149  CB       -14.9230   -5.7240    9.7390 C.3   573  THR573      0.1784
    150  OG1      -13.6160   -5.3590   10.2020 O.3   573  THR573     -0.2211
    151  CG2      -15.1610   -5.1380    8.3560 C.3   573  THR573      0.0376
    152  N        -17.5400   -6.9590   10.0280 N.am  574  ASP574     -0.1973
    153  CA       -18.7760   -7.4660    9.4400 C.3   574  ASP574      0.1709
    154  C        -19.3850   -8.6050   10.2520 C.2   574  ASP574      0.2293
    155  O        -20.4040   -9.1760    9.8660 O.2   574  ASP574     -0.2864
    156  CB       -18.5210   -7.9360    8.0040 C.3   574  ASP574      0.1436
    157  CG       -17.6850   -9.2070    7.9420 C.2   574  ASP574      0.3671
    158  OD1      -17.0140   -9.5330    8.9410 O.co2 574  ASP574     -0.2456
    159  OD2      -17.6990   -9.8820    6.8910 O.co2 574  ASP574     -0.2456
    160  N        -22.7770  -18.1760   11.0680 N.3   637  GLU637     -0.1245
    161  CA       -21.4700  -18.6220   10.6070 C.3   637  GLU637      0.1567
    162  C        -21.0090  -19.8560   11.3790 C.2   637  GLU637      0.2260
    163  O        -21.1870  -20.9850   10.9230 O.2   637  GLU637     -0.2867
    164  CB       -20.4480  -17.4850   10.7270 C.3   637  GLU637      0.0388
    165  CG       -19.0530  -17.8090   10.1990 C.3   637  GLU637      0.1160
    166  CD       -18.9400  -17.6930    8.6860 C.2   637  GLU637      0.3649
    167  OE1      -19.9740  -17.7800    7.9910 O.co2 637  GLU637     -0.2457
    168  OE2      -17.8080  -17.5100    8.1920 O.co2 637  GLU637     -0.2457
    169  N        -21.3540  -22.5600    8.5890 N.3   667  GLU667     -0.1245
    170  CA       -22.4130  -22.3430    7.6030 C.3   667  GLU667      0.1567
    171  C        -23.1710  -23.6360    7.3120 C.2   667  GLU667      0.2260
    172  O        -23.8570  -24.1700    8.1830 O.2   667  GLU667     -0.2867
    173  CB       -21.8600  -21.7420    6.3070 C.3   667  GLU667      0.0388
    174  CG       -21.2210  -20.3740    6.4730 C.3   667  GLU667      0.1160
    175  CD       -20.8110  -19.7630    5.1480 C.2   667  GLU667      0.3649
    176  OE1      -21.1870  -20.3200    4.0950 O.co2 667  GLU667     -0.2457
    177  OE2      -20.1150  -18.7260    5.1580 O.co2 667  GLU667     -0.2457
@<TRIPOS>BOND
     1    68    69    1
     2    69    70    1
     3    69    72    1
     4    70    71    2
     5    88    89    1
     6    72    73    1
     7    79    80    1
     8    89    92    1
     9    89    90    1
    10   135   134    1
    11    73    74    1
    12   105   106    1
    13    92    93    1
    14    90    91    2
    15    90    97   am
    16   116   117    2
    17   116   115    1
    18   134   131    1
    19   121   119    1
    20    80    81    1
    21    80    83    1
    22   118   119    1
    23   118   115    1
    24    97    98    1
    25    74    75    1
    26    81    82    2
    27   119   120    1
    28   132   133    2
    29   132   131    1
    30   106   107    1
    31   106   109    1
    32   114   115    1
    33   114   107   am
    34    99   100    2
    35    99    98    1
    36    93    94    1
    37   107   108    2
    38    83    84    1
    39   131   130    1
    40   130   124   am
    41   122   123    1
    42    98   101    1
    43   136   137    1
    44    75    76    2
    45   103   101    1
    46   109   110    1
    47    94    95    2
    48    94    96   am
    49    65    66    1
    50    65    62    1
    51    64    63    2
    52   101   102    1
    53   124   123    1
    54   124   125    2
    55    84    85    1
    56   123   126    1
    57   137   138    1
    58   137   140    1
    59   143   144    2
    60   143   142    1
    61    76    77    1
    62    76    78    1
    63    10    11   ar
    64    10     8   ar
    65    66    67    1
    66   110   111    1
    67    62    63    1
    68    62    61    1
    69   138   141   am
    70   138   139    2
    71    85    86    1
    72   141   142    1
    73    11     9   ar
    74     8     6   ar
    75   126   127    1
    76   102   104    1
    77   111   112    1
    78     1     2    1
    79    40    39    1
    80    61    67    1
    81    61    51   am
    82   127   128    2
    83   127   129   am
    84   112   113    1
    85     9     7   ar
    86    39    36    1
    87    52    51    2
    88    86    87    1
    89     6     7   ar
    90     6     5    1
    91    51    50    1
    92     2     5    1
    93     2     3    1
    94    38    37    2
    95    34    32    1
    96    36    37    1
    97    36    35    1
    98    53    50    1
    99    53    54    1
   100    50    49    1
   101    37    41   am
   102    31    30    2
   103     3     4    2
   104    35    30   am
   105    44    43    2
   106    30    29    1
   107    32    33    1
   108    32    29    1
   109    49    43   am
   110    43    42    1
   111    41    42    1
   112    54    56   ar
   113    54    55   ar
   114    29    28    1
   115    56    58   ar
   116    42    45    1
   117   176   175   ar
   118    55    57   ar
   119    58    59   ar
   120    28    22   am
   121    45    46    1
   122   175   177   ar
   123   175   174    1
   124    57    59   ar
   125    59    60    1
   126    23    22    2
   127    22    21    1
   128    46    47    1
   129    46    48    1
   130   173   174    1
   131   173   170    1
   132    21    24    1
   133    21    20    1
   134    19    17   ar
   135    24    25    1
   136   159   157   ar
   137   171   170    1
   138   171   172    2
   139    27    25    1
   140   170   169    1
   141    15    14    2
   142    20    14   am
   143    25    26    1
   144   157   156    1
   145   157   158   ar
   146    17    18   ar
   147    17    16    1
   148   167   166   ar
   149   156   153    1
   150   168   166   ar
   151    14    13    1
   152   151   149    1
   153   166   165    1
   154    16    13    1
   155   153   152    1
   156   153   154    1
   157    13    12    1
   158   149   150    1
   159   149   146    1
   160   155   154    2
   161   152   147   am
   162   148   147    2
   163   165   164    1
   164   147   146    1
   165   161   164    1
   166   161   160    1
   167   161   162    1
   168   146   145    1
   169   163   162    2
