@<TRIPOS>MOLECULE
tmp/4i9qC00.pdb
 159 153 0 0 0
SMALL
GASTEIGER

@<TRIPOS>ATOM
      1  N        -33.3260   -6.1220  -73.2740 N.3   282  PHE282     -0.1241
      2  CA       -32.9270   -5.7570  -74.6350 C.3   282  PHE282      0.1605
      3  C        -33.6140   -6.5770  -75.7280 C.2   282  PHE282      0.2264
      4  O        -33.0120   -6.8660  -76.7620 O.2   282  PHE282     -0.2867
      5  CB       -31.4050   -5.8400  -74.8040 C.3   282  PHE282      0.0534
      6  CG       -30.6670   -4.6430  -74.2770 C.ar  282  PHE282     -0.0203
      7  CD1      -31.3540   -3.5480  -73.7800 C.ar  282  PHE282     -0.0042
      8  CD2      -29.2820   -4.6080  -74.2930 C.ar  282  PHE282     -0.0042
      9  CE1      -30.6740   -2.4450  -73.3000 C.ar  282  PHE282     -0.0003
     10  CE2      -28.5960   -3.5080  -73.8150 C.ar  282  PHE282     -0.0003
     11  CZ       -29.2930   -2.4250  -73.3180 C.ar  282  PHE282     -0.0000
     12  N        -16.2540   -4.1550  -86.7860 N.3   411  ASP411     -0.1225
     13  CA       -16.8610   -3.2980  -85.7720 C.3   411  ASP411      0.1805
     14  C        -15.8370   -2.7190  -84.7980 C.2   411  ASP411      0.2598
     15  O        -14.8330   -3.3550  -84.4810 O.2   411  ASP411     -0.2718
     16  CB       -17.9480   -4.0580  -85.0040 C.3   411  ASP411      0.1424
     17  CG       -17.4070   -5.2730  -84.2760 C.2   411  ASP411      0.3668
     18  OD1      -16.5090   -5.9490  -84.8230 O.co2 411  ASP411     -0.2456
     19  OD2      -17.8790   -5.5530  -83.1540 O.co2 411  ASP411     -0.2456
     20  N        -16.1060   -1.5040  -84.3300 N.am  412  LEU412     -0.1966
     21  CA       -15.2490   -0.8410  -83.3540 C.3   412  LEU412      0.1728
     22  C        -15.5960   -1.2840  -81.9370 C.2   412  LEU412      0.2617
     23  O        -16.7270   -1.6820  -81.6630 O.2   412  LEU412     -0.2715
     24  CB       -15.3740    0.6790  -83.4800 C.3   412  LEU412      0.0311
     25  CG       -14.6440    1.3200  -84.6610 C.3   412  LEU412      0.0022
     26  CD1      -15.3060    2.6270  -85.0610 C.3   412  LEU412      0.0001
     27  CD2      -13.1800    1.5500  -84.3170 C.3   412  LEU412      0.0001
     28  N        -14.6160   -1.2100  -81.0410 N.am  413  THR413     -0.1937
     29  CA       -14.8000   -1.6430  -79.6600 C.3   413  THR413      0.2028
     30  C        -15.3710   -0.5250  -78.7910 C.2   413  THR413      0.2643
     31  O        -14.6360    0.3670  -78.3610 O.2   413  THR413     -0.2714
     32  CB       -13.4700   -2.1200  -79.0440 C.3   413  THR413      0.1808
     33  OG1      -12.8920   -3.1370  -79.8720 O.3   413  THR413     -0.2208
     34  CG2      -13.6980   -2.6750  -77.6460 C.3   413  THR413      0.0379
     35  N        -16.6780   -0.5950  -78.5340 N.am  414  SER414     -0.1935
     36  CA       -17.3760    0.4010  -77.7220 C.3   414  SER414      0.2055
     37  C        -16.9960    1.8210  -78.1260 C.2   414  SER414      0.2643
     38  O        -16.3310    2.5290  -77.3710 O.2   414  SER414     -0.2714
     39  CB       -17.0910    0.1830  -76.2340 C.3   414  SER414      0.2130
     40  OG       -15.7320    0.4430  -75.9290 O.3   414  SER414     -0.2179
     41  N        -17.4250    2.2180  -79.3210 N.am  415  LEU415     -0.1963
     42  CA       -17.0700    3.5070  -79.9150 C.3   415  LEU415      0.1728
     43  C        -17.1760    4.7050  -78.9740 C.2   415  LEU415      0.2616
     44  O        -16.1690    5.3400  -78.6600 O.2   415  LEU415     -0.2715
     45  CB       -17.9080    3.7580  -81.1720 C.3   415  LEU415      0.0311
     46  CG       -17.5300    4.9940  -81.9880 C.3   415  LEU415      0.0022
     47  CD1      -16.0500    4.9620  -82.3430 C.3   415  LEU415      0.0001
     48  CD2      -18.3810    5.0820  -83.2420 C.3   415  LEU415      0.0001
     49  N        -18.3900    5.0080  -78.5250 N.am  416  TYR416     -0.1960
     50  CA       -18.6190    6.1960  -77.6990 C.3   416  TYR416      0.1756
     51  C        -17.8210    6.2210  -76.3840 C.2   416  TYR416      0.2461
     52  O        -17.2500    7.2550  -76.0390 O.2   416  TYR416     -0.2730
     53  CB       -20.1180    6.4430  -77.4530 C.3   416  TYR416      0.0574
     54  CG       -20.8880    6.9180  -78.6710 C.ar  416  TYR416     -0.0198
     55  CD1      -20.3140    6.9040  -79.9380 C.ar  416  TYR416     -0.0009
     56  CD2      -22.1870    7.3960  -78.5500 C.ar  416  TYR416     -0.0009
     57  CE1      -21.0130    7.3370  -81.0460 C.ar  416  TYR416      0.0417
     58  CE2      -22.8960    7.8330  -79.6540 C.ar  416  TYR416      0.0417
     59  CZ       -22.3030    7.8020  -80.8990 C.ar  416  TYR416      0.1957
     60  OH       -23.0010    8.2360  -82.0010 O.3   416  TYR416     -0.2866
     61  N        -17.7790    5.0950  -75.6440 N.am  417  PRO417     -0.2727
     62  CA       -16.8850    5.0850  -74.4800 C.3   417  PRO417      0.1402
     63  C        -15.4120    5.2140  -74.8700 C.2   417  PRO417      0.2269
     64  O        -14.6400    5.8430  -74.1450 O.2   417  PRO417     -0.2865
     65  CB       -17.1440    3.7120  -73.8570 C.3   417  PRO417      0.0296
     66  CG       -18.5310    3.3770  -74.2670 C.3   417  PRO417      0.0237
     67  CD       -18.6650    3.9150  -75.6560 C.3   417  PRO417      0.0939
     68  N        -16.4040   -4.9770  -67.4590 N.3   482  ARG482     -0.1245
     69  CA       -17.1990   -5.7010  -68.4440 C.3   482  ARG482      0.1563
     70  C        -16.2940   -6.5530  -69.3240 C.2   482  ARG482      0.2260
     71  O        -16.6100   -7.7030  -69.6330 O.2   482  ARG482     -0.2867
     72  CB       -18.0130   -4.7360  -69.3100 C.3   482  ARG482      0.0307
     73  CG       -18.7320   -5.4230  -70.4600 C.3   482  ARG482      0.0489
     74  CD       -19.6150   -4.4660  -71.2390 C.3   482  ARG482      0.2205
     75  NE       -20.2370   -5.1280  -72.3820 N.pl3 482  ARG482     -0.0865
     76  CZ       -19.7280   -5.1300  -73.6100 C.cat 482  ARG482      0.5346
     77  NH1      -18.5890   -4.4990  -73.8590 N.pl3 482  ARG482      0.1354
     78  NH2      -20.3600   -5.7610  -74.5900 N.pl3 482  ARG482      0.1354
     79  N        -16.2220  -10.6570  -70.0550 N.3   486  LYS486     -0.1245
     80  CA       -16.2340  -11.1260  -71.4340 C.3   486  LYS486      0.1561
     81  C        -15.0440  -12.0530  -71.6520 C.2   486  LYS486      0.2260
     82  O        -15.1240  -13.0140  -72.4140 O.2   486  LYS486     -0.2867
     83  CB       -16.1900   -9.9510  -72.4130 C.3   486  LYS486      0.0271
     84  CG       -16.6610  -10.2990  -73.8190 C.3   486  LYS486      0.0035
     85  CD       -16.6720   -9.0760  -74.7250 C.3   486  LYS486      0.0206
     86  CE       -15.2830   -8.7600  -75.2570 C.3   486  LYS486      0.1093
     87  NZ       -14.8000   -9.8050  -76.2040 N.3   486  LYS486     -0.1314
     88  N        -21.5310   -9.8330  -68.5700 N.3   529  GLN529     -0.1231
     89  CA       -20.9660   -8.7860  -69.4210 C.3   529  GLN529      0.1698
     90  C        -22.0280   -8.0060  -70.1970 C.2   529  GLN529      0.2592
     91  O        -21.8570   -6.8170  -70.4680 O.2   529  GLN529     -0.2718
     92  CB       -19.9000   -9.3570  -70.3660 C.3   529  GLN529      0.0381
     93  CG       -20.3880  -10.4470  -71.3100 C.3   529  GLN529      0.0905
     94  CD       -20.8750   -9.9050  -72.6400 C.2   529  GLN529      0.2608
     95  OE1      -20.8460   -8.6990  -72.8820 O.2   529  GLN529     -0.2717
     96  NE2      -21.3220  -10.8000  -73.5150 N.am  529  GLN529     -0.0878
     97  N        -23.1200   -8.6760  -70.5520 N.am  530  ILE530     -0.1980
     98  CA       -24.2130   -8.0200  -71.2650 C.3   530  ILE530      0.1595
     99  C        -24.9830   -7.0770  -70.3400 C.2   530  ILE530      0.2287
    100  O        -25.3830   -5.9850  -70.7430 O.2   530  ILE530     -0.2864
    101  CB       -25.1720   -9.0500  -71.9040 C.3   530  ILE530      0.0276
    102  CG1      -24.4820   -9.7660  -73.0660 C.3   530  ILE530      0.0022
    103  CG2      -26.4400   -8.3770  -72.4060 C.3   530  ILE530      0.0022
    104  CD1      -24.0320   -8.8340  -74.1730 C.3   530  ILE530      0.0001
    105  N        -23.6550   -3.4950  -69.9070 N.3   533  LYS533     -0.1231
    106  CA       -23.5910   -2.6840  -71.1190 C.3   533  LYS533      0.1693
    107  C        -24.4130   -1.3980  -71.0090 C.2   533  LYS533      0.2591
    108  O        -24.0320   -0.3600  -71.5530 O.2   533  LYS533     -0.2718
    109  CB       -24.0450   -3.5050  -72.3290 C.3   533  LYS533      0.0285
    110  CG       -24.1600   -2.7110  -73.6180 C.3   533  LYS533      0.0035
    111  CD       -24.5130   -3.6000  -74.7990 C.3   533  LYS533      0.0206
    112  CE       -23.3930   -4.5790  -75.1020 C.3   533  LYS533      0.1093
    113  NZ       -23.6440   -5.3370  -76.3570 N.3   533  LYS533     -0.1314
    114  N        -25.5360   -1.4690  -70.2990 N.am  534  LEU534     -0.1980
    115  CA       -26.4360   -0.3260  -70.1790 C.3   534  LEU534      0.1596
    116  C        -25.7840    0.8510  -69.4550 C.2   534  LEU534      0.2287
    117  O        -25.8430    1.9870  -69.9270 O.2   534  LEU534     -0.2864
    118  CB       -27.7290   -0.7240  -69.4630 C.3   534  LEU534      0.0297
    119  CG       -29.0390   -0.2760  -70.1210 C.3   534  LEU534      0.0022
    120  CD1      -30.1990   -0.3970  -69.1480 C.3   534  LEU534      0.0001
    121  CD2      -28.9370    1.1410  -70.6630 C.3   534  LEU534      0.0001
    122  N        -23.0310    2.4770  -71.7640 N.3   537  ASN537     -0.1225
    123  CA       -23.5160    3.2080  -72.9320 C.3   537  ASN537      0.1785
    124  C        -24.3670    4.4300  -72.5960 C.2   537  ASN537      0.2597
    125  O        -24.5070    5.3360  -73.4170 O.2   537  ASN537     -0.2718
    126  CB       -24.2940    2.2790  -73.8670 C.3   537  ASN537      0.1169
    127  CG       -23.3890    1.3420  -74.6410 C.2   537  ASN537      0.2627
    128  OD1      -22.2110    1.6310  -74.8530 O.2   537  ASN537     -0.2716
    129  ND2      -23.9380    0.2140  -75.0740 N.am  537  ASN537     -0.0877
    130  N        -24.9350    4.4530  -71.3950 N.am  538  SER538     -0.1952
    131  CA       -25.8360    5.5330  -71.0030 C.3   538  SER538      0.1924
    132  C        -25.1010    6.8240  -70.6460 C.2   538  SER538      0.2314
    133  O        -25.6970    7.9000  -70.6370 O.2   538  SER538     -0.2863
    134  CB       -26.7260    5.0960  -69.8350 C.3   538  SER538      0.2116
    135  OG       -25.9460    4.7260  -68.7120 O.3   538  SER538     -0.2180
    136  N        -22.6300    8.4520  -72.2670 N.3   540  ALA540     -0.1231
    137  CA       -22.5180    9.3520  -73.4100 C.3   540  ALA540      0.1694
    138  C        -23.8580   10.0180  -73.7140 C.2   540  ALA540      0.2592
    139  O        -23.9150   11.1990  -74.0630 O.2   540  ALA540     -0.2718
    140  CB       -22.0070    8.6050  -74.6290 C.3   540  ALA540      0.0304
    141  N        -24.9350    9.2500  -73.5830 N.am  541  GLY541     -0.1957
    142  CA       -26.2710    9.7770  -73.7890 C.3   541  GLY541      0.1869
    143  C        -26.6750   10.7170  -72.6690 C.2   541  GLY541      0.2309
    144  O        -27.4370   11.6610  -72.8810 O.2   541  GLY541     -0.2863
    145  N        -22.9370    3.7240  -87.5700 N.3   595  THR595     -0.1203
    146  CA       -22.3550    4.1390  -86.2950 C.3   595  THR595      0.1994
    147  C        -20.9170    3.6640  -86.0720 C.2   595  THR595      0.2617
    148  O        -19.9830    4.4650  -86.1020 O.2   595  THR595     -0.2717
    149  CB       -23.2270    3.7010  -85.0970 C.3   595  THR595      0.1784
    150  OG1      -24.5900    4.0780  -85.3300 O.3   595  THR595     -0.2211
    151  CG2      -22.7300    4.3450  -83.8110 C.3   595  THR595      0.0376
    152  N        -20.7430    2.3650  -85.8430 N.am  596  ASP596     -0.1973
    153  CA       -19.4430    1.8360  -85.4430 C.3   596  ASP596      0.1709
    154  C        -18.9460    0.6960  -86.3280 C.2   596  ASP596      0.2293
    155  O        -17.8510    0.1770  -86.1180 O.2   596  ASP596     -0.2864
    156  CB       -19.4980    1.3610  -83.9870 C.3   596  ASP596      0.1436
    157  CG       -20.3530    0.1160  -83.8080 C.2   596  ASP596      0.3671
    158  OD1      -21.1820   -0.1780  -84.6960 O.co2 596  ASP596     -0.2456
    159  OD2      -20.1990   -0.5700  -82.7760 O.co2 596  ASP596     -0.2456
@<TRIPOS>BOND
     1   145   146    1
     2    12    13    1
     3   154   155    2
     4   154   153    1
     5   146   147    1
     6   146   149    1
     7   148   147    2
     8   147   152   am
     9   152   153    1
    10    13    16    1
    11    13    14    1
    12   153   156    1
    13   150   149    1
    14   149   151    1
    15    26    25    1
    16    16    17    1
    17    18    17   ar
    18    14    15    2
    19    14    20   am
    20   158   157   ar
    21    25    27    1
    22    25    24    1
    23    20    21    1
    24    17    19   ar
    25   156   157    1
    26   157   159   ar
    27    24    21    1
    28    21    22    1
    29    48    46    1
    30    47    46    1
    31    60    59    1
    32    46    45    1
    33    22    23    2
    34    22    28   am
    35    45    42    1
    36    57    59   ar
    37    57    55   ar
    38    28    29    1
    39    59    58   ar
    40    55    54   ar
    41    42    41    1
    42    42    43    1
    43    33    32    1
    44    29    32    1
    45    29    30    1
    46    58    56   ar
    47    41    37   am
    48    32    34    1
    49    43    44    2
    50    43    49   am
    51    30    35   am
    52    30    31    2
    53    54    56   ar
    54    54    53    1
    55    35    36    1
    56    49    50    1
    57    37    36    1
    58    37    38    2
    59    36    39    1
    60    50    53    1
    61    50    51    1
    62     4     3    2
    63    51    52    2
    64    51    61   am
    65   113   112    1
    66    39    40    1
    67    87    86    1
    68     3     2    1
    69    67    61    1
    70    67    66    1
    71    61    62    1
    72    86    85    1
    73   112   111    1
    74   129   127   am
    75    63    62    1
    76    63    64    2
    77   128   127    2
    78     5     2    1
    79     5     6    1
    80   111   110    1
    81    85    84    1
    82   127   126    1
    83     2     1    1
    84   140   137    1
    85    78    76    1
    86    62    65    1
    87     8     6   ar
    88     8    10   ar
    89     6     7   ar
    90    66    65    1
    91   104   102    1
    92   139   138    2
    93   126   123    1
    94    77    76    1
    95    84    83    1
    96    10    11   ar
    97   142   141    1
    98   142   143    1
    99     7     9   ar
   100   138   141   am
   101   138   137    1
   102   110   109    1
   103    76    75    2
   104    96    94   am
   105   125   124    2
   106   137   136    1
   107    11     9   ar
   108   102   101    1
   109   123   124    1
   110   123   122    1
   111    95    94    2
   112   144   143    2
   113    94    93    1
   114   124   130   am
   115    82    81    2
   116    83    80    1
   117   103   101    1
   118    75    74    1
   119   109   106    1
   120   101    98    1
   121    81    80    1
   122   108   107    2
   123    80    79    1
   124   130   131    1
   125    93    92    1
   126    98    97    1
   127    98    99    1
   128    74    73    1
   129   106   107    1
   130   106   105    1
   131   107   114   am
   132   131   132    1
   133   131   134    1
   134   100    99    2
   135   121   119    1
   136   132   133    2
   137    97    90   am
   138    91    90    2
   139    73    72    1
   140    92    89    1
   141   114   115    1
   142    90    89    1
   143   115   118    1
   144   115   116    1
   145   119   118    1
   146   119   120    1
   147   117   116    2
   148   134   135    1
   149    71    70    2
   150    89    88    1
   151    70    69    1
   152    72    69    1
   153    69    68    1
