@<TRIPOS>MOLECULE
tmp/4i9qC01.pdb
 155 147 0 0 0
SMALL
GASTEIGER

@<TRIPOS>ATOM
      1  N        -28.0220   13.5420  -39.3350 N.3    33  TYR33      -0.1227
      2  CA       -26.8810   13.8150  -40.2020 C.3    33  TYR33       0.1736
      3  C        -26.6380   15.3070  -40.4260 C.2    33  TYR33       0.2595
      4  O        -27.5550   16.0540  -40.7670 O.2    33  TYR33      -0.2718
      5  CB       -27.0750   13.0970  -41.5410 C.3    33  TYR33       0.0548
      6  CG       -25.9780   13.3270  -42.5560 C.ar   33  TYR33      -0.0200
      7  CD1      -24.6610   12.9850  -42.2770 C.ar   33  TYR33      -0.0009
      8  CD2      -26.2660   13.8620  -43.8050 C.ar   33  TYR33      -0.0009
      9  CE1      -23.6580   13.1870  -43.2090 C.ar   33  TYR33       0.0417
     10  CE2      -25.2720   14.0660  -44.7430 C.ar   33  TYR33       0.0417
     11  CZ       -23.9710   13.7270  -44.4410 C.ar   33  TYR33       0.1957
     12  OH       -22.9810   13.9290  -45.3750 O.3    33  TYR33      -0.2866
     13  N        -25.3950   15.7290  -40.2170 N.am   34  LYS34      -0.1980
     14  CA       -24.9870   17.1030  -40.4860 C.3    34  LYS34       0.1596
     15  C        -24.2830   17.1840  -41.8350 C.2    34  LYS34       0.2287
     16  O        -23.1010   16.8590  -41.9430 O.2    34  LYS34      -0.2864
     17  CB       -24.0630   17.6220  -39.3840 C.3    34  LYS34       0.0298
     18  CG       -24.7660   17.9700  -38.0840 C.3    34  LYS34       0.0038
     19  CD       -23.8450   18.7550  -37.1630 C.3    34  LYS34       0.0206
     20  CE       -24.6000   19.3290  -35.9750 C.3    34  LYS34       0.1093
     21  NZ       -23.7370   20.2180  -35.1460 N.3    34  LYS34      -0.1314
     22  N        -22.8700   18.8840  -45.5780 N.3    36  SER36      -0.1217
     23  CA       -22.0420   20.0240  -45.9420 C.3    36  SER36       0.1889
     24  C        -22.2150   20.4000  -47.4050 C.2    36  SER36       0.2288
     25  O        -22.2950   19.5350  -48.2760 O.2    36  SER36      -0.2866
     26  CB       -20.5660   19.7480  -45.6450 C.3    36  SER36       0.2089
     27  OG       -20.3070   19.7940  -44.2540 O.3    36  SER36      -0.2183
     28  N        -20.9880   23.6500  -50.4520 N.3    38  PHE38      -0.1241
     29  CA       -19.8330   24.4790  -50.7670 C.3    38  PHE38       0.1605
     30  C        -20.1860   25.7440  -51.5420 C.2    38  PHE38       0.2264
     31  O        -21.1930   25.8020  -52.2490 O.2    38  PHE38      -0.2867
     32  CB       -18.7940   23.6630  -51.5370 C.3    38  PHE38       0.0534
     33  CG       -18.2660   22.4820  -50.7740 C.ar   38  PHE38      -0.0203
     34  CD1      -18.9410   21.2710  -50.7880 C.ar   38  PHE38      -0.0042
     35  CD2      -17.0950   22.5810  -50.0430 C.ar   38  PHE38      -0.0042
     36  CE1      -18.4590   20.1830  -50.0860 C.ar   38  PHE38      -0.0003
     37  CE2      -16.6070   21.4960  -49.3400 C.ar   38  PHE38      -0.0003
     38  CZ       -17.2890   20.2960  -49.3620 C.ar   38  PHE38      -0.0000
     39  N         -8.8140   23.0390  -48.7030 N.3    48  LYS48      -0.1231
     40  CA        -8.4210   21.8310  -49.4160 C.3    48  LYS48       0.1693
     41  C         -9.5070   21.4210  -50.4040 C.2    48  LYS48       0.2592
     42  O         -9.3700   20.4280  -51.1170 O.2    48  LYS48      -0.2718
     43  CB        -8.1520   20.6910  -48.4330 C.3    48  LYS48       0.0285
     44  CG        -9.3630   20.2810  -47.6110 C.3    48  LYS48       0.0035
     45  CD        -9.0720   19.0370  -46.7870 C.3    48  LYS48       0.0206
     46  CE       -10.3050   18.5710  -46.0310 C.3    48  LYS48       0.1093
     47  NZ       -10.0530   17.3130  -45.2730 N.3    48  LYS48      -0.1314
     48  N        -10.5870   22.1950  -50.4400 N.am   49  TYR49      -0.1976
     49  CA       -11.7100   21.9050  -51.3230 C.3    49  TYR49       0.1639
     50  C        -11.6850   22.7770  -52.5730 C.2    49  TYR49       0.2290
     51  O        -11.6420   24.0050  -52.4880 O.2    49  TYR49      -0.2864
     52  CB       -13.0360   22.0910  -50.5860 C.3    49  TYR49       0.0560
     53  CG       -13.1990   21.1930  -49.3820 C.ar   49  TYR49      -0.0198
     54  CD1      -13.5940   19.8690  -49.5270 C.ar   49  TYR49      -0.0009
     55  CD2      -12.9650   21.6700  -48.0990 C.ar   49  TYR49      -0.0009
     56  CE1      -13.7470   19.0450  -48.4280 C.ar   49  TYR49       0.0417
     57  CE2      -13.1160   20.8540  -46.9950 C.ar   49  TYR49       0.0417
     58  CZ       -13.5060   19.5430  -47.1650 C.ar   49  TYR49       0.1957
     59  OH       -13.6570   18.7280  -46.0670 O.3    49  TYR49      -0.2866
     60  N        -16.1210   25.0960  -47.1450 N.3    59  ARG59      -0.1245
     61  CA       -17.1130   24.1220  -46.7070 C.3    59  ARG59       0.1563
     62  C        -18.0940   24.7210  -45.7070 C.2    59  ARG59       0.2260
     63  O        -17.7030   25.4480  -44.7930 O.2    59  ARG59      -0.2867
     64  CB       -16.4390   22.8830  -46.1130 C.3    59  ARG59       0.0307
     65  CG       -17.3970   21.7250  -45.8820 C.3    59  ARG59       0.0489
     66  CD       -16.6580   20.4170  -45.6580 C.3    59  ARG59       0.2205
     67  NE       -16.0700   20.3310  -44.3260 N.pl3  59  ARG59      -0.0865
     68  CZ       -16.6890   19.8130  -43.2710 C.cat  59  ARG59       0.5346
     69  NH1      -17.9210   19.3360  -43.3900 N.pl3  59  ARG59       0.1354
     70  NH2      -16.0780   19.7720  -42.0950 N.pl3  59  ARG59       0.1354
     71  N        -21.9500   21.0700  -54.3080 N.3    84  GLY84      -0.1210
     72  CA       -22.0410   19.9440  -53.3970 C.3    84  GLY84       0.1956
     73  C        -23.1530   18.9730  -53.7380 C.2    84  GLY84       0.2611
     74  O        -23.9620   19.2250  -54.6310 O.2    84  GLY84      -0.2717
     75  N        -23.1880   17.8540  -53.0220 N.am   85  MET85      -0.1979
     76  CA       -24.2180   16.8420  -53.2210 C.3    85  MET85       0.1605
     77  C        -25.4980   17.2270  -52.4870 C.2    85  MET85       0.2287
     78  O        -25.5590   17.1760  -51.2590 O.2    85  MET85      -0.2864
     79  CB       -23.7180   15.4750  -52.7470 C.3    85  MET85       0.0413
     80  CG       -24.7800   14.3860  -52.7230 C.3    85  MET85       0.0598
     81  SD       -25.6530   14.2000  -54.2880 S.3    85  MET85      -0.1393
     82  CE       -24.3030   13.7860  -55.3890 C.3    85  MET85       0.0692
     83  N        -24.7170   11.6300  -49.8340 N.3    91  ALA91      -0.1245
     84  CA       -23.6170   12.2090  -49.0720 C.3    91  ALA91       0.1562
     85  C        -23.4300   11.4660  -47.7530 C.2    91  ALA91       0.2260
     86  O        -22.3240   11.4030  -47.2170 O.2    91  ALA91      -0.2867
     87  CB       -23.8650   13.6870  -48.8210 C.3    91  ALA91       0.0290
     88  N        -20.0580    9.1760  -46.6840 N.3    95  ASP95      -0.1239
     89  CA       -19.3530    9.4030  -45.4260 C.3    95  ASP95       0.1674
     90  C        -19.3490    8.1500  -44.5610 C.2    95  ASP95       0.2266
     91  O        -18.3330    7.8020  -43.9590 O.2    95  ASP95      -0.2867
     92  CB       -19.9930   10.5540  -44.6500 C.3    95  ASP95       0.1410
     93  CG       -19.8810   11.8760  -45.3730 C.2    95  ASP95       0.3668
     94  OD1      -18.9580   12.0230  -46.2010 O.co2  95  ASP95      -0.2456
     95  OD2      -20.7140   12.7680  -45.1120 O.co2  95  ASP95      -0.2456
     96  N        -16.7400    4.9930  -46.4640 N.3    98  ASN98      -0.1240
     97  CA       -15.6590    5.6080  -47.2230 C.3    98  ASN98       0.1653
     98  C        -14.6620    4.5630  -47.7140 C.2    98  ASN98       0.2266
     99  O        -13.4520    4.7240  -47.5530 O.2    98  ASN98      -0.2867
    100  CB       -14.9430    6.6540  -46.3640 C.3    98  ASN98       0.1155
    101  CG       -14.2580    7.7270  -47.1920 C.2    98  ASN98       0.2627
    102  OD1      -14.5270    8.9170  -47.0270 O.2    98  ASN98      -0.2716
    103  ND2      -13.3650    7.3120  -48.0840 N.am   98  ASN98      -0.0877
    104  N        -19.6790   11.6120  -58.1240 N.3   370  PHE370     -0.1241
    105  CA       -19.6210   12.2640  -56.8170 C.3   370  PHE370      0.1605
    106  C        -18.5690   11.6390  -55.9050 C.2   370  PHE370      0.2264
    107  O        -17.6750   12.3290  -55.4150 O.2   370  PHE370     -0.2867
    108  CB       -20.9890   12.2410  -56.1320 C.3   370  PHE370      0.0534
    109  CG       -20.9340   12.5400  -54.6600 C.ar  370  PHE370     -0.0203
    110  CD1      -20.5370   13.7880  -54.2070 C.ar  370  PHE370     -0.0042
    111  CD2      -21.2840   11.5760  -53.7310 C.ar  370  PHE370     -0.0042
    112  CE1      -20.4840   14.0650  -52.8530 C.ar  370  PHE370     -0.0003
    113  CE2      -21.2370   11.8470  -52.3770 C.ar  370  PHE370     -0.0003
    114  CZ       -20.8360   13.0930  -51.9370 C.ar  370  PHE370     -0.0000
    115  N        -15.1610   13.2920  -54.6430 N.3   374  LYS374     -0.1245
    116  CA       -14.9760   13.4510  -53.2040 C.3   374  LYS374      0.1561
    117  C        -13.6800   12.7780  -52.7600 C.2   374  LYS374      0.2260
    118  O        -13.0240   13.2280  -51.8180 O.2   374  LYS374     -0.2867
    119  CB       -16.1630   12.8600  -52.4380 C.3   374  LYS374      0.0271
    120  CG       -15.9820   12.8410  -50.9270 C.3   374  LYS374      0.0035
    121  CD       -17.1310   12.1350  -50.2330 C.3   374  LYS374      0.0206
    122  CE       -16.8340   11.9220  -48.7570 C.3   374  LYS374      0.1093
    123  NZ       -17.9460   11.2200  -48.0630 N.3   374  LYS374     -0.1314
    124  N        -10.9680   15.1870  -52.6720 N.3   377  ASN377     -0.1225
    125  CA       -11.4110   16.4280  -52.0320 C.3   377  ASN377      0.1785
    126  C        -11.9300   17.4660  -53.0270 C.2   377  ASN377      0.2597
    127  O        -11.8280   18.6700  -52.7910 O.2   377  ASN377     -0.2718
    128  CB       -10.3010   17.0330  -51.1630 C.3   377  ASN377      0.1169
    129  CG       -10.0390   16.2270  -49.9050 C.2   377  ASN377      0.2627
    130  OD1      -10.9220   15.5300  -49.4040 O.2   377  ASN377     -0.2716
    131  ND2       -8.8220   16.3250  -49.3820 N.am  377  ASN377     -0.0877
    132  N        -12.4860   16.9900  -54.1360 N.am  378  LYS378     -0.1966
    133  CA       -13.0100   17.8750  -55.1700 C.3   378  LYS378      0.1728
    134  C        -14.5200   18.0370  -55.0410 C.2   378  LYS378      0.2616
    135  O        -15.2110   17.1310  -54.5790 O.2   378  LYS378     -0.2715
    136  CB       -12.6410   17.3590  -56.5610 C.3   378  LYS378      0.0311
    137  CG       -11.1430   17.3050  -56.8130 C.3   378  LYS378      0.0038
    138  CD       -10.8210   16.7130  -58.1730 C.3   378  LYS378      0.0206
    139  CE        -9.3180   16.6360  -58.3900 C.3   378  LYS378      0.1093
    140  NZ        -8.9750   15.9590  -59.6700 N.3   378  LYS378     -0.1314
    141  N        -15.0250   19.1940  -55.4570 N.am  379  VAL379     -0.1963
    142  CA       -16.4360   19.5220  -55.2870 C.3   379  VAL379      0.1727
    143  C        -17.1950   19.4650  -56.6100 C.2   379  VAL379      0.2616
    144  O        -16.7250   19.9750  -57.6270 O.2   379  VAL379     -0.2715
    145  CB       -16.6080   20.9240  -54.6760 C.3   379  VAL379      0.0290
    146  CG1      -18.0370   21.1250  -54.2070 C.3   379  VAL379      0.0023
    147  CG2      -15.6360   21.1220  -53.5220 C.3   379  VAL379      0.0023
    148  N        -18.3720   18.8470  -56.5880 N.am  380  ILE380     -0.1977
    149  CA       -19.2160   18.7590  -57.7740 C.3   380  ILE380      0.1596
    150  C        -19.9690   20.0690  -58.0080 C.2   380  ILE380      0.2287
    151  O        -20.2590   20.8020  -57.0610 O.2   380  ILE380     -0.2864
    152  CB       -20.2220   17.5890  -57.6690 C.3   380  ILE380      0.0276
    153  CG1      -21.2610   17.8620  -56.5800 C.3   380  ILE380      0.0022
    154  CG2      -19.4940   16.2800  -57.4090 C.3   380  ILE380      0.0022
    155  CD1      -22.2440   16.7320  -56.3820 C.3   380  ILE380      0.0001
@<TRIPOS>BOND
     1   140   139    1
     2   139   138    1
     3   138   137    1
     4   104   105    1
     5   150   149    1
     6   150   151    2
     7   149   152    1
     8   149   148    1
     9   152   154    1
    10   152   153    1
    11   144   143    2
    12   105   108    1
    13   105   106    1
    14   137   136    1
    15   143   148   am
    16   143   142    1
    17   153   155    1
    18   136   133    1
    19   108   109    1
    20   106   107    2
    21   141   142    1
    22   141   134   am
    23    82    81    1
    24   142   145    1
    25   133   134    1
    26   133   132    1
    27   134   135    2
    28   145   146    1
    29   145   147    1
    30   109   110   ar
    31   109   111   ar
    32   115   116    1
    33    74    73    2
    34    71    72    1
    35    81    80    1
    36   110   112   ar
    37   132   126   am
    38    73    72    1
    39    73    75   am
    40   111   113   ar
    41    76    75    1
    42    76    79    1
    43    76    77    1
    44   116   117    1
    45   116   119    1
    46   126   127    2
    47   126   125    1
    48   112   114   ar
    49   117   118    2
    50    79    80    1
    51   124   125    1
    52    50    51    2
    53    50    49    1
    54    77    78    2
    55   119   120    1
    56   113   114   ar
    57    31    30    2
    58   125   128    1
    59    30    29    1
    60    32    33    1
    61    32    29    1
    62    49    52    1
    63    49    48    1
    64   128   129    1
    65    42    41    2
    66   120   121    1
    67    34    33   ar
    68    34    36   ar
    69    33    35   ar
    70    29    28    1
    71    52    53    1
    72    48    41   am
    73    41    40    1
    74   121   122    1
    75    36    38   ar
    76    35    37   ar
    77   129   130    2
    78   129   131   am
    79    83    84    1
    80    54    53   ar
    81    54    56   ar
    82    40    39    1
    83    40    43    1
    84    53    55   ar
    85    38    37   ar
    86    84    87    1
    87    84    85    1
    88   122   123    1
    89    43    44    1
    90    56    58   ar
    91    25    24    2
    92    55    57   ar
    93   103   101   am
    94    85    86    2
    95    98    99    2
    96    98    97    1
    97    44    45    1
    98    24    23    1
    99    97    96    1
   100    97   100    1
   101   101   102    2
   102   101   100    1
   103    58    57   ar
   104    58    59    1
   105    60    61    1
   106    45    46    1
   107    61    64    1
   108    61    62    1
   109    88    89    1
   110    94    93   ar
   111    64    65    1
   112    46    47    1
   113    23    26    1
   114    23    22    1
   115    65    66    1
   116    62    63    2
   117    66    67    1
   118    26    27    1
   119    89    92    1
   120    89    90    1
   121    12    11    1
   122    93    95   ar
   123    93    92    1
   124    10    11   ar
   125    10     8   ar
   126    90    91    2
   127    11     9   ar
   128    67    68    2
   129     8     6   ar
   130    69    68    1
   131    68    70    1
   132     9     7   ar
   133     6     7   ar
   134     6     5    1
   135    16    15    2
   136    15    14    1
   137     5     2    1
   138     4     3    2
   139    14    13    1
   140    14    17    1
   141     3    13   am
   142     3     2    1
   143     2     1    1
   144    17    18    1
   145    18    19    1
   146    19    20    1
   147    20    21    1
