@<TRIPOS>MOLECULE
tmp/4i9uA00.pdb
 124 119 0 0 0
SMALL
GASTEIGER

@<TRIPOS>ATOM
      1  N         20.7140    8.1640   36.1500 N.3    25  VAL25      -0.1231
      2  CA        19.9710    8.5360   34.9490 C.3    25  VAL25       0.1692
      3  C         19.0440    9.7060   35.2730 C.2    25  VAL25       0.2592
      4  O         18.1420    9.5740   36.1040 O.2    25  VAL25      -0.2718
      5  CB        19.1200    7.3330   34.4260 C.3    25  VAL25       0.0266
      6  CG1       18.2750    7.7540   33.2400 C.3    25  VAL25       0.0020
      7  CG2       20.0250    6.1770   34.0440 C.3    25  VAL25       0.0020
      8  N         19.2750   10.8480   34.6280 N.am   26  GLY26      -0.1957
      9  CA        18.5000   12.0480   34.9290 C.3    26  GLY26       0.1869
     10  C         19.2530   13.0630   35.7770 C.2    26  GLY26       0.2309
     11  O         19.7300   12.7410   36.8700 O.2    26  GLY26      -0.2863
     12  N         23.5170   10.2860   32.5840 N.3    50  VAL50      -0.1231
     13  CA        22.7990   10.3200   31.3110 C.3    50  VAL50       0.1692
     14  C         21.5280   11.1280   31.4380 C.2    50  VAL50       0.2592
     15  O         20.7890   10.9860   32.4100 O.2    50  VAL50      -0.2718
     16  CB        22.3780    8.9230   30.8500 C.3    50  VAL50       0.0266
     17  CG1       21.5830    9.0300   29.5580 C.3    50  VAL50       0.0020
     18  CG2       23.5970    8.0420   30.6730 C.3    50  VAL50       0.0020
     19  N         21.2680   11.9730   30.4520 N.am   51  ASP51      -0.1960
     20  CA        19.9600   12.5970   30.3290 C.3    51  ASP51       0.1840
     21  C         19.6740   12.8500   28.8440 C.2    51  ASP51       0.2622
     22  O         20.3380   12.2750   27.9760 O.2    51  ASP51      -0.2715
     23  CB        19.9080   13.9050   31.1420 C.3    51  ASP51       0.1450
     24  CG        18.4810   14.3100   31.5000 C.2    51  ASP51       0.3671
     25  OD1       17.6050   14.2160   30.6130 O.co2  51  ASP51      -0.2456
     26  OD2       18.2260   14.7150   32.6590 O.co2  51  ASP51      -0.2456
     27  N         18.6850   13.6860   28.5460 N.am   52  VAL52      -0.1963
     28  CA        18.4070   14.0200   27.1630 C.3    52  VAL52       0.1727
     29  C         18.6280   15.4880   26.8550 C.2    52  VAL52       0.2616
     30  O         18.7310   15.8660   25.6850 O.2    52  VAL52      -0.2715
     31  CB        16.9690   13.6470   26.7660 C.3    52  VAL52       0.0290
     32  CG1       16.7950   12.1310   26.8180 C.3    52  VAL52       0.0023
     33  CG2       15.9740   14.3550   27.6790 C.3    52  VAL52       0.0023
     34  N         18.6940   16.3220   27.8880 N.am   53  MET53      -0.1977
     35  CA        19.0500   17.7230   27.6790 C.3    53  MET53       0.1605
     36  C         20.5660   17.7970   27.7050 C.2    53  MET53       0.2287
     37  O         21.1710   17.7260   28.7770 O.2    53  MET53      -0.2864
     38  CB        18.4850   18.6030   28.7950 C.3    53  MET53       0.0413
     39  CG        17.0040   18.4370   29.0710 C.3    53  MET53       0.0598
     40  SD        16.6600   18.6100   30.8400 S.3    53  MET53      -0.1393
     41  CE        16.7870   20.3710   31.0660 C.3    53  MET53       0.0692
     42  N         24.0680    5.8430   25.8930 N.3    82  TYR82      -0.1241
     43  CA        24.1710    5.0070   27.0900 C.3    82  TYR82       0.1605
     44  C         25.4210    4.1300   27.1400 C.2    82  TYR82       0.2264
     45  O         25.6160    3.3540   28.0810 O.2    82  TYR82      -0.2867
     46  CB        22.9190    4.1310   27.2260 C.3    82  TYR82       0.0534
     47  CG        21.7380    4.8780   27.7990 C.ar   82  TYR82      -0.0201
     48  CD1       21.0410    5.8070   27.0300 C.ar   82  TYR82      -0.0009
     49  CD2       21.3440    4.6890   29.1190 C.ar   82  TYR82      -0.0009
     50  CE1       19.9900    6.5280   27.5610 C.ar   82  TYR82       0.0417
     51  CE2       20.2960    5.4060   29.6580 C.ar   82  TYR82       0.0417
     52  CZ        19.6220    6.3270   28.8770 C.ar   82  TYR82       0.1957
     53  OH        18.5880    7.0620   29.4230 O.3    82  TYR82      -0.2866
     54  N         14.8320    9.6510   36.2480 N.3    95  ALA95      -0.1231
     55  CA        14.1380   10.2150   35.0980 C.3    95  ALA95       0.1694
     56  C         12.6210   10.2120   35.2710 C.2    95  ALA95       0.2593
     57  O         12.0400    9.2850   35.8500 O.2    95  ALA95      -0.2718
     58  CB        14.5060    9.4410   33.8520 C.3    95  ALA95       0.0304
     59  N         11.9720   11.2470   34.7570 N.am   96  GLY96      -0.1942
     60  CA        10.5340   11.3300   34.9020 C.3    96  GLY96       0.2014
     61  C          9.9580   12.4380   34.0470 C.2    96  GLY96       0.2639
     62  O         10.7010   13.2860   33.5630 O.2    96  GLY96      -0.2714
     63  N          8.6380   12.4310   33.8720 N.am   97  ALA97      -0.1963
     64  CA         7.9890   13.3910   32.9960 C.3    97  ALA97       0.1728
     65  C          7.2430   14.4570   33.8320 C.2    97  ALA97       0.2616
     66  O          6.5880   14.1390   34.8400 O.2    97  ALA97      -0.2715
     67  CB         7.0330   12.6710   32.0170 C.3    97  ALA97       0.0334
     68  N          7.3900   15.7220   33.4460 N.am   98  ARG98      -0.1977
     69  CA         6.6220   16.8470   34.0200 C.3    98  ARG98       0.1597
     70  C          5.1450   16.5470   34.2080 C.2    98  ARG98       0.2287
     71  O          4.3500   16.8960   33.3390 O.2    98  ARG98      -0.2864
     72  CB         6.7480   18.0820   33.0770 C.3    98  ARG98       0.0334
     73  CG         6.6880   17.5760   31.5980 C.3    98  ARG98       0.0492
     74  CD         7.0530   18.5780   30.5520 C.3    98  ARG98       0.2205
     75  NE         5.8930   18.8760   29.6980 N.pl3  98  ARG98      -0.0865
     76  CZ         5.9720   19.1600   28.3960 C.cat  98  ARG98       0.5346
     77  NH1        4.8530   19.3970   27.6860 N.pl3  98  ARG98       0.1354
     78  NH2        7.1770   19.1560   27.7940 N.pl3  98  ARG98       0.1354
     79  N          3.2380    7.6980   30.1420 N.3   103  ARG103     -0.1245
     80  CA         4.2920    8.5560   29.6220 C.3   103  ARG103      0.1563
     81  C          5.6360    8.1860   30.2640 C.2   103  ARG103      0.2260
     82  O          6.6110    7.9020   29.5620 O.2   103  ARG103     -0.2867
     83  CB         3.9560   10.0240   29.8910 C.3   103  ARG103      0.0307
     84  CG         3.8160   10.8800   28.6250 C.3   103  ARG103      0.0489
     85  CD         3.2350   12.2610   28.9250 C.3   103  ARG103      0.2205
     86  NE         4.2640   13.2560   29.2270 N.pl3 103  ARG103     -0.0865
     87  CZ         4.0270   14.4300   29.8090 C.cat 103  ARG103      0.5346
     88  NH1        5.0260   15.2690   30.0420 N.pl3 103  ARG103      0.1354
     89  NH2        2.7940   14.7660   30.1690 N.pl3 103  ARG103      0.1354
     90  N          6.6820    5.1450   29.0630 N.3   106  ASN106     -0.1225
     91  CA         7.2250    5.2900   27.7320 C.3   106  ASN106      0.1785
     92  C          8.6930    5.6820   27.8100 C.2   106  ASN106      0.2597
     93  O          9.5280    5.0950   27.1230 O.2   106  ASN106     -0.2718
     94  CB         6.4070    6.3220   26.9560 C.3   106  ASN106      0.1169
     95  CG         5.0410    5.7950   26.5690 C.2   106  ASN106      0.2627
     96  OD1        4.8860    4.6060   26.2720 O.2   106  ASN106     -0.2716
     97  ND2        4.0430    6.6660   26.5790 N.am  106  ASN106     -0.0877
     98  N          9.0060    6.6510   28.6670 N.am  107  ILE107     -0.1980
     99  CA        10.3950    6.9870   28.9720 C.3   107  ILE107      0.1595
    100  C         11.2130    5.7510   29.3910 C.2   107  ILE107      0.2287
    101  O         12.2800    5.4790   28.8330 O.2   107  ILE107     -0.2864
    102  CB        10.4800    8.0400   30.1060 C.3   107  ILE107      0.0276
    103  CG1        9.7640    9.3240   29.6880 C.3   107  ILE107      0.0022
    104  CG2       11.9410    8.3450   30.4260 C.3   107  ILE107      0.0022
    105  CD1        9.8650   10.4520   30.6980 C.3   107  ILE107      0.0001
    106  N         12.3250    3.3830   26.8360 N.3   110  PHE110     -0.1227
    107  CA        13.5350    3.7620   26.1050 C.3   110  PHE110      0.1736
    108  C         14.7980    3.6050   26.9410 C.2   110  PHE110      0.2595
    109  O         15.7920    3.0530   26.4810 O.2   110  PHE110     -0.2718
    110  CB        13.4550    5.2140   25.6320 C.3   110  PHE110      0.0547
    111  CG        14.6610    5.6550   24.8540 C.ar  110  PHE110     -0.0202
    112  CD1       15.0440    4.9770   23.7110 C.ar  110  PHE110     -0.0042
    113  CD2       15.4150    6.7280   25.2720 C.ar  110  PHE110     -0.0042
    114  CE1       16.1560    5.3590   23.0010 C.ar  110  PHE110     -0.0003
    115  CE2       16.5350    7.1200   24.5660 C.ar  110  PHE110     -0.0003
    116  CZ        16.9060    6.4330   23.4270 C.ar  110  PHE110     -0.0000
    117  N         14.7540    4.1070   28.1690 N.am  111  ILE111     -0.1980
    118  CA        15.9260    4.1190   29.0280 C.3   111  ILE111      0.1595
    119  C         16.3380    2.7350   29.5250 C.2   111  ILE111      0.2287
    120  O         17.5230    2.4210   29.5870 O.2   111  ILE111     -0.2864
    121  CB        15.6980    5.0060   30.2530 C.3   111  ILE111      0.0276
    122  CG1       15.5270    6.4600   29.8280 C.3   111  ILE111      0.0022
    123  CG2       16.8580    4.8670   31.1940 C.3   111  ILE111      0.0022
    124  CD1       15.2250    7.3820   30.9760 C.3   111  ILE111      0.0001
@<TRIPOS>BOND
     1   114   116   ar
     2   114   112   ar
     3   116   115   ar
     4   112   111   ar
     5   115   113   ar
     6   111   113   ar
     7   111   110    1
     8   110   107    1
     9    30    29    2
    10    42    43    1
    11   107   106    1
    12   107   108    1
    13    96    95    2
    14   109   108    2
    15    95    97   am
    16    95    94    1
    17    31    32    1
    18    31    28    1
    19    31    33    1
    20    29    28    1
    21    29    34   am
    22   108   117   am
    23    94    91    1
    24    48    50   ar
    25    48    47   ar
    26    43    44    1
    27    43    46    1
    28    93    92    2
    29    44    45    2
    30    28    27    1
    31    46    47    1
    32    50    52   ar
    33    35    36    1
    34    35    34    1
    35    35    38    1
    36    77    76    1
    37    36    37    2
    38    91    92    1
    39    91    90    1
    40    78    76    1
    41    47    49   ar
    42    92    98   am
    43    22    21    2
    44   117   118    1
    45    76    75    2
    46    27    21   am
    47    84    85    1
    48    84    83    1
    49    98    99    1
    50    38    39    1
    51   101   100    2
    52    21    20    1
    53    52    53    1
    54    52    51   ar
    55    85    86    1
    56    99   100    1
    57    99   102    1
    58   118   119    1
    59   118   121    1
    60    39    40    1
    61    49    51   ar
    62    86    87    2
    63   119   120    2
    64    17    16    1
    65    82    81    2
    66    80    83    1
    67    80    79    1
    68    80    81    1
    69   103   102    1
    70   103   105    1
    71    75    74    1
    72    87    88    1
    73    87    89    1
    74   122   121    1
    75   122   124    1
    76   102   104    1
    77   121   123    1
    78    20    19    1
    79    20    23    1
    80    19    14   am
    81    74    73    1
    82    25    24   ar
    83    18    16    1
    84    40    41    1
    85    16    13    1
    86    23    24    1
    87    13    14    1
    88    13    12    1
    89    14    15    2
    90    24    26   ar
    91    73    72    1
    92    67    64    1
    93    64    65    1
    94    64    63    1
    95    72    69    1
    96     6     5    1
    97    71    70    2
    98    68    65   am
    99    68    69    1
   100    62    61    2
   101    65    66    2
   102    58    55    1
   103    63    61   am
   104    69    70    1
   105     7     5    1
   106    61    60    1
   107     5     2    1
   108     8     9    1
   109     8     3   am
   110    59    60    1
   111    59    56   am
   112     9    10    1
   113     2     3    1
   114     2     1    1
   115    55    56    1
   116    55    54    1
   117    56    57    2
   118     3     4    2
   119    10    11    2
