@<TRIPOS>MOLECULE
tmp/4i9yE00.pdb
 80 76 0 0 0
SMALL
GASTEIGER

@<TRIPOS>ATOM
      1  N         19.9170  -29.1700   41.2270 N.3     1  GLY1       -0.1210
      2  CA        20.7570  -30.1500   40.4790 C.3     1  GLY1        0.1940
      3  C         21.1260  -31.3190   41.3680 C.2     1  GLY1        0.2453
      4  O         20.4970  -31.5390   42.4100 O.2     1  GLY1       -0.2732
      5  N         22.1540  -32.0760   40.9650 N.am    2  PRO2       -0.2728
      6  CA        22.6110  -33.1620   41.8380 C.3     2  PRO2        0.1401
      7  C         22.9480  -32.6110   43.2280 C.2     2  PRO2        0.2269
      8  O         23.4600  -31.4890   43.3460 O.2     2  PRO2       -0.2865
      9  CB        23.8460  -33.7010   41.1140 C.3     2  PRO2        0.0296
     10  CG        23.6140  -33.3460   39.6590 C.3     2  PRO2        0.0237
     11  CD        22.9240  -31.9960   39.7120 C.3     2  PRO2        0.0939
     12  N         15.5690  -35.6250   41.9130 N.3    28  PHE28      -0.1241
     13  CA        15.7150  -34.1750   42.1270 C.3    28  PHE28       0.1605
     14  C         14.6270  -33.5870   43.0390 C.2    28  PHE28       0.2264
     15  O         13.8060  -32.7720   42.5930 O.2    28  PHE28      -0.2867
     16  CB        15.6810  -33.4230   40.7900 C.3    28  PHE28       0.0534
     17  CG        16.8280  -33.7370   39.8540 C.ar   28  PHE28      -0.0203
     18  CD1       18.1490  -33.6500   40.2760 C.ar   28  PHE28      -0.0042
     19  CD2       16.5720  -34.0730   38.5340 C.ar   28  PHE28      -0.0042
     20  CE1       19.1950  -33.9060   39.4080 C.ar   28  PHE28      -0.0003
     21  CE2       17.6100  -34.3460   37.6500 C.ar   28  PHE28      -0.0003
     22  CZ        18.9320  -34.2620   38.0890 C.ar   28  PHE28      -0.0000
     23  N         14.2820  -29.8750   42.9860 N.3    31  ILE31      -0.1245
     24  CA        13.7420  -29.2160   41.7860 C.3    31  ILE31       0.1561
     25  C         12.2470  -29.5220   41.6220 C.2    31  ILE31       0.2260
     26  O         11.4290  -28.6080   41.4040 O.2    31  ILE31      -0.2867
     27  CB        14.5080  -29.6660   40.5120 C.3    31  ILE31       0.0252
     28  CG1       16.0120  -29.4340   40.6950 C.3    31  ILE31       0.0019
     29  CG2       13.9920  -28.9370   39.2650 C.3    31  ILE31       0.0019
     30  CD1       16.8570  -29.8010   39.4800 C.3    31  ILE31       0.0001
     31  N         11.9920  -27.5040   34.5390 N.3    92  ASP92      -0.1225
     32  CA        13.3000  -26.8640   34.7600 C.3    92  ASP92       0.1805
     33  C         14.4940  -27.6730   34.2300 C.2    92  ASP92       0.2598
     34  O         15.5500  -27.1140   33.9310 O.2    92  ASP92      -0.2718
     35  CB        13.5140  -26.6200   36.2490 C.3    92  ASP92       0.1424
     36  CG        12.6240  -25.5230   36.7980 C.2    92  ASP92       0.3668
     37  OD1       11.9590  -24.8220   35.9990 O.co2  92  ASP92      -0.2456
     38  OD2       12.5960  -25.3540   38.0380 O.co2  92  ASP92      -0.2456
     39  N         14.3460  -28.9910   34.1600 N.am   93  VAL93      -0.1966
     40  CA        15.4190  -29.8380   33.6650 C.3    93  VAL93       0.1727
     41  C         15.0630  -30.3860   32.2840 C.2    93  VAL93       0.2616
     42  O         13.9670  -30.9250   32.0790 O.2    93  VAL93      -0.2715
     43  CB        15.6730  -30.9980   34.6250 C.3    93  VAL93       0.0290
     44  CG1       16.8220  -31.8540   34.1360 C.3    93  VAL93       0.0023
     45  CG2       15.9760  -30.4690   36.0110 C.3    93  VAL93       0.0023
     46  N         15.9860  -30.2370   31.3370 N.am   94  LYS94      -0.1977
     47  CA        15.7730  -30.7170   29.9740 C.3    94  LYS94       0.1596
     48  C         16.2970  -32.1480   29.7560 C.2    94  LYS94       0.2287
     49  O         17.0910  -32.6670   30.5460 O.2    94  LYS94      -0.2864
     50  CB        16.4490  -29.7690   28.9760 C.3    94  LYS94       0.0298
     51  CG        15.7630  -28.4470   28.8560 C.3    94  LYS94       0.0038
     52  CD        16.4730  -27.5690   27.8550 C.3    94  LYS94       0.0206
     53  CE        15.7440  -26.2540   27.6700 C.3    94  LYS94       0.1093
     54  NZ        16.3240  -25.5160   26.5130 N.3    94  LYS94      -0.1314
     55  N         18.6460  -33.8990   28.2220 N.3    96  THR96      -0.1218
     56  CA        19.9060  -33.5250   27.5930 C.3    96  THR96       0.1862
     57  C         20.8220  -34.7060   27.2620 C.2    96  THR96       0.2287
     58  O         21.8170  -34.5410   26.5630 O.2    96  THR96      -0.2866
     59  CB        20.6880  -32.5580   28.5010 C.3    96  THR96       0.1770
     60  OG1       20.8260  -33.1330   29.8080 O.3    96  THR96      -0.2211
     61  CG2       19.9570  -31.2300   28.6220 C.3    96  THR96       0.0375
     62  N         18.4670  -40.0940   32.1110 N.3   100  LEU100     -0.1245
     63  CA        17.5410  -39.2020   32.8190 C.3   100  LEU100      0.1561
     64  C         16.1890  -39.8860   33.0860 C.2   100  LEU100      0.2260
     65  O         15.6990  -40.6540   32.2590 O.2   100  LEU100     -0.2867
     66  CB        17.3340  -37.9190   32.0220 C.3   100  LEU100      0.0270
     67  CG        18.5920  -37.0690   31.8880 C.3   100  LEU100      0.0019
     68  CD1       18.3340  -35.8840   30.9610 C.3   100  LEU100      0.0001
     69  CD2       19.0320  -36.5630   33.2490 C.3   100  LEU100      0.0001
     70  N         18.1200  -38.9340   37.7780 N.3   134  PHE134     -0.1241
     71  CA        19.0920  -39.5140   36.8690 C.3   134  PHE134      0.1605
     72  C         19.7050  -40.7820   37.4490 C.2   134  PHE134      0.2264
     73  O         19.6890  -41.0130   38.6630 O.2   134  PHE134     -0.2867
     74  CB        20.1970  -38.5100   36.4920 C.3   134  PHE134      0.0534
     75  CG        21.1630  -38.1800   37.6100 C.ar  134  PHE134     -0.0203
     76  CD1       20.8360  -37.2340   38.5670 C.ar  134  PHE134     -0.0042
     77  CD2       22.4090  -38.7820   37.6710 C.ar  134  PHE134     -0.0042
     78  CE1       21.7340  -36.9070   39.5840 C.ar  134  PHE134     -0.0003
     79  CE2       23.3080  -38.4690   38.6890 C.ar  134  PHE134     -0.0003
     80  CZ        22.9690  -37.5230   39.6420 C.ar  134  PHE134     -0.0000
@<TRIPOS>BOND
     1    54    53    1
     2    58    57    2
     3    57    56    1
     4    56    55    1
     5    56    59    1
     6    53    52    1
     7    52    51    1
     8    59    61    1
     9    59    60    1
    10    51    50    1
    11    50    47    1
    12    48    47    1
    13    48    49    2
    14    47    46    1
    15    68    67    1
    16    46    41   am
    17    67    66    1
    18    67    69    1
    19    66    63    1
    20    42    41    2
    21    62    63    1
    22    65    64    2
    23    41    40    1
    24    63    64    1
    25    40    39    1
    26    40    43    1
    27    34    33    2
    28    44    43    1
    29    39    33   am
    30    33    32    1
    31    31    32    1
    32    43    45    1
    33    32    35    1
    34    37    36   ar
    35    35    36    1
    36    74    71    1
    37    74    75    1
    38    36    38   ar
    39    71    72    1
    40    71    70    1
    41    72    73    2
    42    75    77   ar
    43    75    76   ar
    44    21    22   ar
    45    21    19   ar
    46    77    79   ar
    47    22    20   ar
    48    19    17   ar
    49    76    78   ar
    50    79    80   ar
    51    29    27    1
    52    20    18   ar
    53    30    28    1
    54    78    80   ar
    55    10    11    1
    56    10     9    1
    57    11     5    1
    58    17    18   ar
    59    17    16    1
    60     2     1    1
    61     2     3    1
    62    27    28    1
    63    27    24    1
    64    16    13    1
    65     5     3   am
    66     5     6    1
    67     9     6    1
    68     3     4    2
    69    26    25    2
    70    25    24    1
    71    24    23    1
    72     6     7    1
    73    12    13    1
    74    13    14    1
    75    15    14    2
    76     7     8    2
