@<TRIPOS>MOLECULE
tmp/4i9zA00.pdb
 167 159 0 0 0
SMALL
GASTEIGER

@<TRIPOS>ATOM
      1  N        -52.5050   13.3920   33.4250 N.3    78  TYR78      -0.1227
      2  CA       -51.2010   13.9600   33.0840 C.3    78  TYR78       0.1736
      3  C        -50.3710   13.0730   32.1660 C.2    78  TYR78       0.2595
      4  O        -49.8760   13.5440   31.1410 O.2    78  TYR78      -0.2718
      5  CB       -50.4170   14.3410   34.3460 C.3    78  TYR78       0.0548
      6  CG       -48.9760   14.7570   34.1030 C.ar   78  TYR78      -0.0200
      7  CD1      -48.6580   16.0160   33.5970 C.ar   78  TYR78      -0.0009
      8  CD2      -47.9350   13.8940   34.4130 C.ar   78  TYR78      -0.0009
      9  CE1      -47.3280   16.3870   33.3950 C.ar   78  TYR78       0.0417
     10  CE2      -46.6280   14.2460   34.2190 C.ar   78  TYR78       0.0417
     11  CZ       -46.3200   15.4820   33.7100 C.ar   78  TYR78       0.1957
     12  OH       -44.9930   15.8000   33.5380 O.3    78  TYR78      -0.2866
     13  N        -50.2360   11.7890   32.5100 N.am   79  HIS79      -0.1975
     14  CA       -49.4120   10.8900   31.7100 C.3    79  HIS79       0.1656
     15  C        -50.1440   10.4390   30.4380 C.2    79  HIS79       0.2291
     16  O        -50.6230    9.3020   30.3320 O.2    79  HIS79      -0.2864
     17  CB       -48.9120    9.6930   32.5450 C.3    79  HIS79       0.0771
     18  CG       -47.8180   10.0490   33.5100 C.ar   79  HIS79       0.0820
     19  ND1      -48.0060   10.0800   34.8750 N.ar   79  HIS79      -0.2267
     20  CD2      -46.5320   10.4220   33.3010 C.ar   79  HIS79       0.1154
     21  CE1      -46.8780   10.4350   35.4680 C.ar   79  HIS79       0.1986
     22  NE2      -45.9680   10.6530   34.5340 N.ar   79  HIS79      -0.2212
     23  N        -50.4000    7.1570   37.6740 N.3   126  VAL126     -0.1245
     24  CA       -49.4820    6.8060   38.7670 C.3   126  VAL126      0.1561
     25  C        -50.1020    5.8790   39.8210 C.2   126  VAL126      0.2260
     26  O        -49.3870    5.1420   40.4970 O.2   126  VAL126     -0.2867
     27  CB       -48.9150    8.0570   39.4700 C.3   126  VAL126      0.0252
     28  CG1      -48.1270    8.9090   38.4830 C.3   126  VAL126      0.0019
     29  CG2      -50.0290    8.8670   40.0940 C.3   126  VAL126      0.0019
     30  N        -37.5840    7.5840   37.7320 N.3   184  LEU184     -0.1245
     31  CA       -36.9920    8.5270   38.6780 C.3   184  LEU184      0.1561
     32  C        -36.0540    7.8200   39.6730 C.2   184  LEU184      0.2260
     33  O        -35.0860    8.4120   40.1390 O.2   184  LEU184     -0.2867
     34  CB       -38.0660    9.3780   39.3730 C.3   184  LEU184      0.0270
     35  CG       -38.7090   10.4820   38.5110 C.3   184  LEU184      0.0019
     36  CD1      -39.9830   11.0050   39.1570 C.3   184  LEU184      0.0001
     37  CD2      -37.7370   11.6450   38.2600 C.3   184  LEU184      0.0001
     38  N        -39.3710   16.3200   33.0950 N.3   224  LEU224     -0.1245
     39  CA       -39.8840   17.1110   34.2160 C.3   224  LEU224      0.1561
     40  C        -40.1380   18.5640   33.8270 C.2   224  LEU224      0.2260
     41  O        -40.4670   19.3890   34.6720 O.2   224  LEU224     -0.2867
     42  CB       -38.8840   17.0740   35.3730 C.3   224  LEU224      0.0270
     43  CG       -38.5300   15.6840   35.8900 C.3   224  LEU224      0.0019
     44  CD1      -37.6150   15.8040   37.0840 C.3   224  LEU224      0.0001
     45  CD2      -39.7980   14.9380   36.2510 C.3   224  LEU224      0.0001
     46  N        -42.2280   20.5310   32.6440 N.3   226  ALA226     -0.1231
     47  CA       -43.3940   21.3350   33.0220 C.3   226  ALA226      0.1694
     48  C        -43.1100   22.2650   34.2100 C.2   226  ALA226      0.2591
     49  O        -43.6620   23.3620   34.2490 O.2   226  ALA226     -0.2718
     50  CB       -44.6130   20.4570   33.3160 C.3   226  ALA226      0.0304
     51  N        -42.2640   21.8630   35.1700 N.am  227  ILE227     -0.1980
     52  CA       -42.0450   22.7600   36.3160 C.3   227  ILE227      0.1595
     53  C        -41.1490   23.9310   35.9520 C.2   227  ILE227      0.2287
     54  O        -40.8560   24.7520   36.8140 O.2   227  ILE227     -0.2864
     55  CB       -41.4070   22.1150   37.6020 C.3   227  ILE227      0.0276
     56  CG1      -40.5450   20.9450   37.2360 C.3   227  ILE227      0.0022
     57  CG2      -42.4210   21.9150   38.7970 C.3   227  ILE227      0.0022
     58  CD1      -39.2170   21.3960   36.7620 C.3   227  ILE227      0.0001
     59  N        -47.4340   26.4490   34.3540 N.3   234  GLN234     -0.1245
     60  CA       -47.1120   25.4890   35.4260 C.3   234  GLN234      0.1566
     61  C        -48.2980   25.2320   36.3570 C.2   234  GLN234      0.2260
     62  O        -48.5730   24.0870   36.7330 O.2   234  GLN234     -0.2867
     63  CB       -45.8720   25.9340   36.2210 C.3   234  GLN234      0.0367
     64  CG       -45.8280   25.5000   37.7060 C.3   234  GLN234      0.0905
     65  CD       -45.7090   23.9790   37.9220 C.2   234  GLN234      0.2608
     66  OE1      -45.9080   23.4920   39.0370 O.2   234  GLN234     -0.2717
     67  NE2      -45.3950   23.2370   36.8650 N.am  234  GLN234     -0.0878
     68  N        -50.5270   22.8170   34.5500 N.3   237  ILE237     -0.1231
     69  CA       -50.0090   21.4470   34.4450 C.3   237  ILE237      0.1692
     70  C        -50.0760   20.7950   35.8190 C.2   237  ILE237      0.2591
     71  O        -50.4800   19.6430   35.9500 O.2   237  ILE237     -0.2718
     72  CB       -48.6000   21.3790   33.8360 C.3   237  ILE237      0.0266
     73  CG1      -48.6630   21.8090   32.3670 C.3   237  ILE237      0.0019
     74  CG2      -48.0610   19.9370   33.8940 C.3   237  ILE237      0.0020
     75  CD1      -47.3230   21.8800   31.6990 C.3   237  ILE237      0.0001
     76  N        -49.7580   21.5680   36.8530 N.am  238  ALA238     -0.1980
     77  CA       -49.8530   21.0650   38.2190 C.3   238  ALA238      0.1597
     78  C        -51.2740   20.6170   38.5640 C.2   238  ALA238      0.2287
     79  O        -51.4580   19.7000   39.3650 O.2   238  ALA238     -0.2864
     80  CB       -49.3340   22.1020   39.2160 C.3   238  ALA238      0.0319
     81  N        -51.4280   17.0850   37.1610 N.3   241  VAL241     -0.1231
     82  CA       -50.6620   16.1970   38.0270 C.3   241  VAL241      0.1692
     83  C        -51.4520   15.8810   39.3040 C.2   241  VAL241      0.2591
     84  O        -51.5870   14.7140   39.6890 O.2   241  VAL241     -0.2718
     85  CB       -49.2930   16.7940   38.3630 C.3   241  VAL241      0.0266
     86  CG1      -48.5600   15.9270   39.3830 C.3   241  VAL241      0.0020
     87  CG2      -48.4650   16.9420   37.0840 C.3   241  VAL241      0.0020
     88  N        -52.0000   16.9210   39.9310 N.am  242  ALA242     -0.1980
     89  CA       -52.7970   16.7610   41.1470 C.3   242  ALA242      0.1597
     90  C        -53.9940   15.8460   40.8980 C.2   242  ALA242      0.2287
     91  O        -54.3170   15.0000   41.7280 O.2   242  ALA242     -0.2864
     92  CB       -53.2670   18.1180   41.6680 C.3   242  ALA242      0.0319
     93  N        -52.6310   12.3400   40.5460 N.3   245  PHE245     -0.1227
     94  CA       -52.0860   11.8970   41.8360 C.3   245  PHE245      0.1736
     95  C        -53.2040   11.4640   42.7940 C.2   245  PHE245      0.2595
     96  O        -53.0480   10.5030   43.5450 O.2   245  PHE245     -0.2718
     97  CB       -51.2310   12.9880   42.4920 C.3   245  PHE245      0.0547
     98  CG       -49.7770   12.9690   42.0840 C.ar  245  PHE245     -0.0202
     99  CD1      -48.8050   13.4280   42.9560 C.ar  245  PHE245     -0.0042
    100  CD2      -49.3870   12.5160   40.8310 C.ar  245  PHE245     -0.0042
    101  CE1      -47.4680   13.4280   42.5930 C.ar  245  PHE245     -0.0003
    102  CE2      -48.0510   12.5140   40.4600 C.ar  245  PHE245     -0.0003
    103  CZ       -47.0910   12.9700   41.3400 C.ar  245  PHE245     -0.0000
    104  N        -54.3270   12.1780   42.7510 N.am  246  PHE246     -0.1976
    105  CA       -55.5260   11.8140   43.5110 C.3   246  PHE246      0.1639
    106  C        -56.7250   11.6560   42.5510 C.2   246  PHE246      0.2290
    107  O        -57.6040   12.5170   42.4970 O.2   246  PHE246     -0.2864
    108  CB       -55.7990   12.8860   44.5730 C.3   246  PHE246      0.0560
    109  CG       -54.5450   13.5670   45.0800 C.ar  246  PHE246     -0.0200
    110  CD1      -53.7480   12.9680   46.0390 C.ar  246  PHE246     -0.0042
    111  CD2      -54.1550   14.7950   44.5820 C.ar  246  PHE246     -0.0042
    112  CE1      -52.5900   13.5860   46.4880 C.ar  246  PHE246     -0.0003
    113  CE2      -52.9950   15.4090   45.0170 C.ar  246  PHE246     -0.0003
    114  CZ       -52.2170   14.8090   45.9750 C.ar  246  PHE246     -0.0000
    115  N        -50.4940   21.0450   48.3280 N.3   251  ILE251     -0.1245
    116  CA       -49.7950   21.0610   47.0350 C.3   251  ILE251      0.1561
    117  C        -48.6330   22.0800   46.9240 C.2   251  ILE251      0.2260
    118  O        -47.5510   21.7380   46.4300 O.2   251  ILE251     -0.2867
    119  CB       -50.8050   21.1510   45.8580 C.3   251  ILE251      0.0252
    120  CG1      -51.5920   19.8340   45.7650 C.3   251  ILE251      0.0019
    121  CG2      -50.1000   21.4560   44.5330 C.3   251  ILE251      0.0019
    122  CD1      -52.8180   19.9050   44.8790 C.3   251  ILE251      0.0001
    123  N        -45.5720   20.6540   48.6270 N.3   254  MET254     -0.1230
    124  CA       -45.1380   19.4930   47.8530 C.3   254  MET254      0.1702
    125  C        -44.3020   19.9320   46.6670 C.2   254  MET254      0.2592
    126  O        -43.2150   19.3970   46.4250 O.2   254  MET254     -0.2718
    127  CB       -46.3310   18.6830   47.3590 C.3   254  MET254      0.0401
    128  CG       -46.9750   17.8380   48.4360 C.3   254  MET254      0.0596
    129  SD       -48.4180   16.9850   47.8140 S.3   254  MET254     -0.1393
    130  CE       -48.8460   15.9940   49.2390 C.3   254  MET254      0.0692
    131  N        -44.8120   20.9170   45.9290 N.am  255  GLN255     -0.1979
    132  CA       -44.1230   21.3930   44.7340 C.3   255  GLN255      0.1601
    133  C        -42.7640   21.9740   45.0960 C.2   255  GLN255      0.2287
    134  O        -41.7910   21.7700   44.3780 O.2   255  GLN255     -0.2864
    135  CB       -44.9770   22.4240   43.9730 C.3   255  GLN255      0.0394
    136  CG       -46.2360   21.8330   43.3090 C.3   255  GLN255      0.0908
    137  CD       -45.9140   20.7910   42.2530 C.2   255  GLN255      0.2608
    138  OE1      -45.7170   19.6140   42.5650 O.2   255  GLN255     -0.2717
    139  NE2      -45.8530   21.2190   40.9890 N.am  255  GLN255     -0.0878
    140  N        -40.9200   21.1250   47.6620 N.3   257  GLY257     -0.1210
    141  CA       -40.1040   19.9710   47.9870 C.3   257  GLY257      0.1956
    142  C        -39.6060   19.2430   46.7510 C.2   257  GLY257      0.2611
    143  O        -38.4240   18.9190   46.6470 O.2   257  GLY257     -0.2717
    144  N        -40.5150   19.0120   45.8060 N.am  258  PHE258     -0.1976
    145  CA       -40.1810   18.3960   44.5180 C.3   258  PHE258      0.1639
    146  C        -39.1030   19.1840   43.7880 C.2   258  PHE258      0.2290
    147  O        -38.1240   18.6130   43.2890 O.2   258  PHE258     -0.2864
    148  CB       -41.4630   18.2620   43.6770 C.3   258  PHE258      0.0560
    149  CG       -41.2380   17.9000   42.2300 C.ar  258  PHE258     -0.0200
    150  CD1      -40.7310   16.6610   41.8760 C.ar  258  PHE258     -0.0042
    151  CD2      -41.5960   18.7920   41.2180 C.ar  258  PHE258     -0.0042
    152  CE1      -40.5510   16.3220   40.5330 C.ar  258  PHE258     -0.0003
    153  CE2      -41.4200   18.4610   39.8830 C.ar  258  PHE258     -0.0003
    154  CZ       -40.8980   17.2180   39.5410 C.ar  258  PHE258     -0.0000
    155  N        -35.7420   18.9090   45.9020 N.3   261  ALA261     -0.1231
    156  CA       -35.1730   17.5570   45.9740 C.3   261  ALA261      0.1694
    157  C        -34.7210   17.0010   44.6280 C.2   261  ALA261      0.2591
    158  O        -33.7030   16.3110   44.5440 O.2   261  ALA261     -0.2718
    159  CB       -36.1650   16.5950   46.6220 C.3   261  ALA261      0.0304
    160  N        -35.4710   17.3030   43.5730 N.am  262  ILE262     -0.1980
    161  CA       -35.2700   16.6300   42.2940 C.3   262  ILE262      0.1595
    162  C        -34.8690   17.5670   41.1530 C.2   262  ILE262      0.2287
    163  O        -33.9660   17.2510   40.3650 O.2   262  ILE262     -0.2864
    164  CB       -36.5340   15.8140   41.9230 C.3   262  ILE262      0.0276
    165  CG1      -36.7040   14.6590   42.9150 C.3   262  ILE262      0.0022
    166  CG2      -36.4520   15.2680   40.4940 C.3   262  ILE262      0.0022
    167  CD1      -38.0920   14.5620   43.5090 C.3   262  ILE262      0.0001
@<TRIPOS>BOND
     1    16    15    2
     2    15    14    1
     3     4     3    2
     4    75    73    1
     5    14    13    1
     6    14    17    1
     7     3    13   am
     8     3     2    1
     9    73    72    1
    10    17    18    1
    11    46    47    1
    12    47    50    1
    13    47    48    1
    14     2     1    1
    15     2     5    1
    16    38    39    1
    17    20    18   ar
    18    20    22   ar
    19     9     7   ar
    20     9    11   ar
    21    18    19   ar
    22    12    11    1
    23     7     6   ar
    24    11    10   ar
    25    40    39    1
    26    40    41    2
    27    72    74    1
    28    72    69    1
    29     6     5    1
    30     6     8   ar
    31    48    49    2
    32    48    51   am
    33    39    42    1
    34    10     8   ar
    35    59    60    1
    36    69    68    1
    37    69    70    1
    38    22    21   ar
    39    19    21   ar
    40    51    52    1
    41    42    43    1
    42    60    63    1
    43    60    61    1
    44    70    71    2
    45    70    76   am
    46    43    45    1
    47    43    44    1
    48    53    52    1
    49    53    54    2
    50    63    64    1
    51    52    55    1
    52    61    62    2
    53    58    56    1
    54    76    77    1
    55    67    65   am
    56    87    85    1
    57    81    82    1
    58    56    55    1
    59    55    57    1
    60    23    24    1
    61    64    65    1
    62    30    31    1
    63    65    66    2
    64    82    85    1
    65    82    83    1
    66    77    78    1
    67    77    80    1
    68    37    35    1
    69    85    86    1
    70    28    27    1
    71    35    36    1
    72    35    34    1
    73    78    79    2
    74    31    34    1
    75    31    32    1
    76    24    27    1
    77    24    25    1
    78    83    84    2
    79    83    88   am
    80    27    29    1
    81   154   153   ar
    82   154   152   ar
    83    32    33    2
    84    25    26    2
    85   153   151   ar
    86    88    89    1
    87   163   162    2
    88   102   100   ar
    89   102   103   ar
    90   166   164    1
    91   152   150   ar
    92    93    94    1
    93   100    98   ar
    94    90    89    1
    95    90    91    2
    96   139   137   am
    97    89    92    1
    98   162   161    1
    99   151   149   ar
   100   103   101   ar
   101    94    97    1
   102    94    95    1
   103   150   149   ar
   104   164   161    1
   105   164   165    1
   106    98    97    1
   107    98    99   ar
   108   149   148    1
   109   137   138    2
   110   137   136    1
   111   161   160    1
   112   107   106    2
   113   106   105    1
   114   101    99   ar
   115   104    95   am
   116   104   105    1
   117    95    96    2
   118   165   167    1
   119   147   146    2
   120   136   135    1
   121   105   108    1
   122   160   157   am
   123   148   145    1
   124   146   145    1
   125   135   132    1
   126   134   133    2
   127   145   144    1
   128   121   119    1
   129   158   157    2
   130   108   109    1
   131   111   113   ar
   132   111   109   ar
   133   157   156    1
   134   132   133    1
   135   132   131    1
   136   122   120    1
   137   113   114   ar
   138   109   110   ar
   139   120   119    1
   140   144   142   am
   141   119   116    1
   142   155   156    1
   143   131   125   am
   144   156   159    1
   145   114   112   ar
   146   110   112   ar
   147   126   125    2
   148   118   117    2
   149   143   142    2
   150   125   124    1
   151   142   141    1
   152   117   116    1
   153   116   115    1
   154   127   124    1
   155   127   128    1
   156   140   141    1
   157   129   128    1
   158   129   130    1
   159   124   123    1
