@<TRIPOS>MOLECULE
tmp/4ia0A00.pdb
 204 194 0 0 0
SMALL
GASTEIGER

@<TRIPOS>ATOM
      1  N        -22.3540   12.9310   11.4410 N.3    78  TYR78      -0.1227
      2  CA       -23.5130   13.7680   11.1700 C.3    78  TYR78       0.1736
      3  C        -23.1850   14.9360   10.2590 C.2    78  TYR78       0.2595
      4  O        -23.9010   15.1770    9.2920 O.2    78  TYR78      -0.2718
      5  CB       -24.1270   14.2760   12.4730 C.3    78  TYR78       0.0548
      6  CG       -25.2500   15.2780   12.2830 C.ar   78  TYR78      -0.0200
      7  CD1      -26.5020   14.8790   11.8210 C.ar   78  TYR78      -0.0009
      8  CD2      -25.0560   16.6290   12.5720 C.ar   78  TYR78      -0.0009
      9  CE1      -27.5360   15.8010   11.6590 C.ar   78  TYR78       0.0417
     10  CE2      -26.0740   17.5490   12.4260 C.ar   78  TYR78       0.0417
     11  CZ       -27.3080   17.1410   11.9700 C.ar   78  TYR78       0.1957
     12  OH       -28.3120   18.0770   11.8290 O.3    78  TYR78      -0.2866
     13  N        -22.1100   15.6650   10.5630 N.am   79  HIS79      -0.1975
     14  CA       -21.7120   16.8160    9.7340 C.3    79  HIS79       0.1656
     15  C        -20.9960   16.3930    8.4440 C.2    79  HIS79       0.2291
     16  O        -19.7760   16.5180    8.3130 O.2    79  HIS79      -0.2864
     17  CB       -20.8820   17.8230   10.5550 C.3    79  HIS79       0.0771
     18  CG       -21.7020   18.6290   11.5210 C.ar   79  HIS79       0.0820
     19  ND1      -21.7420   18.3610   12.8730 N.ar   79  HIS79      -0.2267
     20  CD2      -22.5290   19.6860   11.3270 C.ar   79  HIS79       0.1154
     21  CE1      -22.5540   19.2160   13.4700 C.ar   79  HIS79       0.1986
     22  NE2      -23.0490   20.0270   12.5540 N.ar   79  HIS79      -0.2212
     23  N        -18.0080   17.9780   15.7420 N.3   126  VAL126     -0.1231
     24  CA       -18.0900   18.9510   16.8330 C.3   126  VAL126      0.1692
     25  C        -16.9440   18.8090   17.8390 C.2   126  VAL126      0.2592
     26  O        -16.4910   19.7990   18.4200 O.2   126  VAL126     -0.2718
     27  CB       -19.4470   18.8790   17.5650 C.3   126  VAL126      0.0266
     28  CG1      -20.5660   19.2540   16.6300 C.3   126  VAL126      0.0020
     29  CG2      -19.6740   17.4840   18.1280 C.3   126  VAL126      0.0020
     30  N        -16.4550   17.5840   18.0100 N.am  127  ASN127     -0.1974
     31  CA       -15.3520   17.3250   18.9340 C.3   127  ASN127      0.1688
     32  C        -13.9820   17.4310   18.2890 C.2   127  ASN127      0.2292
     33  O        -13.0420   17.9560   18.8820 O.2   127  ASN127     -0.2864
     34  CB       -15.5020   15.9490   19.5790 C.3   127  ASN127      0.1181
     35  CG       -16.6720   15.8890   20.5250 C.2   127  ASN127      0.2629
     36  OD1      -17.0400   16.9040   21.1290 O.2   127  ASN127     -0.2716
     37  ND2      -17.2780   14.7080   20.6560 N.am  127  ASN127     -0.0877
     38  N        -25.5520   30.2700   10.4510 N.3   179  THR179     -0.1218
     39  CA       -25.6860   28.8900   10.9440 C.3   179  THR179      0.1862
     40  C        -24.8510   28.6190   12.2020 C.2   179  THR179      0.2287
     41  O        -24.8320   27.4910   12.7170 O.2   179  THR179     -0.2866
     42  CB       -25.3500   27.8530    9.8550 C.3   179  THR179      0.1770
     43  OG1      -23.9500   27.9050    9.5390 O.3   179  THR179     -0.2211
     44  CG2      -26.1640   28.1150    8.6070 C.3   179  THR179      0.0375
     45  N        -24.6120   28.7050   15.8720 N.3   181  LEU181     -0.1245
     46  CA       -25.6240   28.6500   16.9220 C.3   181  LEU181      0.1561
     47  C        -25.6040   29.9030   17.8100 C.2   181  LEU181      0.2260
     48  O        -26.6570   30.4680   18.1400 O.2   181  LEU181     -0.2867
     49  CB       -25.3900   27.4010   17.7640 C.3   181  LEU181      0.0270
     50  CG       -26.6170   26.6740   18.3200 C.3   181  LEU181      0.0019
     51  CD1      -26.8850   27.1590   19.7190 C.3   181  LEU181      0.0001
     52  CD2      -27.8540   26.8500   17.4240 C.3   181  LEU181      0.0001
     53  N        -27.4050   32.6530   16.0240 N.3   184  TYR184     -0.1241
     54  CA       -28.8450   32.4140   16.0330 C.3   184  TYR184      0.1605
     55  C        -29.4660   32.8130   17.3870 C.2   184  TYR184      0.2264
     56  O        -30.5060   33.4780   17.4460 O.2   184  TYR184     -0.2867
     57  CB       -29.1600   30.9450   15.7170 C.3   184  TYR184      0.0534
     58  CG       -30.5450   30.5390   16.1540 C.ar  184  TYR184     -0.0201
     59  CD1      -30.7410   29.7540   17.2850 C.ar  184  TYR184     -0.0009
     60  CD2      -31.6550   30.9450   15.4380 C.ar  184  TYR184     -0.0009
     61  CE1      -32.0090   29.3870   17.6900 C.ar  184  TYR184      0.0417
     62  CE2      -32.9290   30.5840   15.8270 C.ar  184  TYR184      0.0417
     63  CZ       -33.1050   29.8070   16.9540 C.ar  184  TYR184      0.1957
     64  OH       -34.3870   29.4620   17.3360 O.3   184  TYR184     -0.2866
     65  N        -31.2250   28.5590    9.7930 N.3   217  THR217     -0.1218
     66  CA       -31.1600   27.7540   11.0020 C.3   217  THR217      0.1862
     67  C        -32.2680   26.7090   11.0180 C.2   217  THR217      0.2287
     68  O        -32.0300   25.5620   11.3920 O.2   217  THR217     -0.2866
     69  CB       -31.2080   28.6200   12.2810 C.3   217  THR217      0.1770
     70  OG1      -30.1070   29.5320   12.2790 O.3   217  THR217     -0.2211
     71  CG2      -31.1160   27.7400   13.5440 C.3   217  THR217      0.0375
     72  N        -31.2130   24.0210    8.7800 N.3   220  ASP220     -0.1225
     73  CA       -30.0500   23.3820    9.4140 C.3   220  ASP220      0.1805
     74  C        -30.4850   22.3720   10.4780 C.2   220  ASP220      0.2597
     75  O        -29.8620   21.3180   10.6480 O.2   220  ASP220     -0.2718
     76  CB       -29.1850   24.4530   10.0990 C.3   220  ASP220      0.1424
     77  CG       -27.7320   24.0510   10.2370 C.2   220  ASP220      0.3668
     78  OD1      -26.9140   24.9210   10.6030 O.co2 220  ASP220     -0.2456
     79  OD2      -27.3710   22.8920    9.9480 O.co2 220  ASP220     -0.2456
     80  N        -31.5380   22.7140   11.2160 N.am  221  LEU221     -0.1979
     81  CA       -31.9970   21.8690   12.3200 C.3   221  LEU221      0.1596
     82  C        -33.1230   20.9380   11.9020 C.2   221  LEU221      0.2287
     83  O        -33.6680   20.2200   12.7380 O.2   221  LEU221     -0.2864
     84  CB       -32.4720   22.7290   13.4980 C.3   221  LEU221      0.0297
     85  CG       -31.4310   23.6470   14.1400 C.3   221  LEU221      0.0022
     86  CD1      -32.0480   24.4630   15.2700 C.3   221  LEU221      0.0001
     87  CD2      -30.2570   22.8670   14.6550 C.3   221  LEU221      0.0001
     88  N        -33.7670   18.1210   10.7630 N.3   223  ALA223     -0.1231
     89  CA       -33.8400   16.7090   11.1660 C.3   223  ALA223      0.1694
     90  C        -34.7710   16.5130   12.3620 C.2   223  ALA223      0.2591
     91  O        -35.4370   15.4790   12.4840 O.2   223  ALA223     -0.2718
     92  CB       -32.4630   16.1620   11.4860 C.3   223  ALA223      0.0304
     93  N        -34.8340   17.5290   13.2170 N.am  224  ILE224     -0.1980
     94  CA       -35.6530   17.4900   14.4150 C.3   224  ILE224      0.1595
     95  C        -37.1560   17.5020   14.0750 C.2   224  ILE224      0.2287
     96  O        -38.0070   17.2690   14.9350 O.2   224  ILE224     -0.2864
     97  CB       -35.2760   18.6550   15.3760 C.3   224  ILE224      0.0276
     98  CG1      -35.5130   18.2520   16.8380 C.3   224  ILE224      0.0022
     99  CG2      -36.0090   19.9550   14.9930 C.3   224  ILE224      0.0022
    100  CD1      -34.6520   17.0570   17.3280 C.3   224  ILE224      0.0001
    101  N        -36.1630   10.7130   12.5090 N.3   231  GLN231     -0.1245
    102  CA       -35.5110   11.4490   13.6000 C.3   231  GLN231      0.1566
    103  C        -34.6830   10.5640   14.5550 C.2   231  GLN231      0.2260
    104  O        -33.5730   10.9400   14.9740 O.2   231  GLN231     -0.2867
    105  CB       -36.5410   12.2850   14.3730 C.3   231  GLN231      0.0367
    106  CG       -36.2090   12.5610   15.8440 C.3   231  GLN231      0.0905
    107  CD       -35.0000   13.4540   16.0530 C.2   231  GLN231      0.2608
    108  OE1      -34.4370   13.4920   17.1410 O.2   231  GLN231     -0.2717
    109  NE2      -34.5850   14.1580   15.0170 N.am  231  GLN231     -0.0878
    110  N        -31.4550    9.8630   12.7440 N.3   234  ILE234     -0.1231
    111  CA       -30.5530   11.0090   12.7210 C.3   234  ILE234      0.1692
    112  C        -30.0270   11.3180   14.1220 C.2   234  ILE234      0.2591
    113  O        -28.8420   11.6210   14.2920 O.2   234  ILE234     -0.2718
    114  CB       -31.1860   12.2250   12.0180 C.3   234  ILE234      0.0266
    115  CG1      -31.4130   11.8770   10.5460 C.3   234  ILE234      0.0019
    116  CG2      -30.2730   13.4460   12.1040 C.3   234  ILE234      0.0020
    117  CD1      -32.3400   12.8110    9.8290 C.3   234  ILE234      0.0001
    118  N        -30.8810   11.1870   15.1330 N.am  235  ALA235     -0.1980
    119  CA       -30.4130   11.3650   16.5130 C.3   235  ALA235      0.1597
    120  C        -29.2780   10.3850   16.8400 C.2   235  ALA235      0.2287
    121  O        -28.3340   10.7170   17.5640 O.2   235  ALA235     -0.2864
    122  CB       -31.5690   11.2140   17.4990 C.3   235  ALA235      0.0319
    123  N        -26.1540   11.9700   15.3580 N.3   238  VAL238     -0.1231
    124  CA       -25.7470   13.0920   16.1970 C.3   238  VAL238      0.1692
    125  C        -25.0530   12.5710   17.4500 C.2   238  VAL238      0.2591
    126  O        -23.9690   13.0430   17.8190 O.2   238  VAL238     -0.2718
    127  CB       -26.9440   13.9630   16.5840 C.3   238  VAL238      0.0266
    128  CG1      -26.5210   15.0430   17.5840 C.3   238  VAL238      0.0020
    129  CG2      -27.5650   14.5670   15.3390 C.3   238  VAL238      0.0020
    130  N        -25.6730   11.5690   18.0770 N.am  239  ALA239     -0.1980
    131  CA       -25.0920   10.9120   19.2480 C.3   239  ALA239      0.1597
    132  C        -23.6910   10.3510   18.9850 C.2   239  ALA239      0.2287
    133  O        -22.7970   10.5420   19.8140 O.2   239  ALA239     -0.2864
    134  CB       -26.0320    9.8110   19.7820 C.3   239  ALA239      0.0319
    135  N        -21.2320   13.2780   18.6730 N.3   242  PHE242     -0.1227
    136  CA       -21.0610   13.9850   19.9470 C.3   242  PHE242      0.1736
    137  C        -20.1850   13.2080   20.9400 C.2   242  PHE242      0.2595
    138  O        -19.3220   13.7780   21.6160 O.2   242  PHE242     -0.2718
    139  CB       -22.4180   14.2740   20.6080 C.3   242  PHE242      0.0547
    140  CG       -23.1650   15.4550   20.0220 C.ar  242  PHE242     -0.0202
    141  CD1      -24.2870   15.9590   20.6670 C.ar  242  PHE242     -0.0042
    142  CD2      -22.7630   16.0450   18.8320 C.ar  242  PHE242     -0.0042
    143  CE1      -24.9860   17.0380   20.1410 C.ar  242  PHE242     -0.0003
    144  CE2      -23.4610   17.1230   18.3000 C.ar  242  PHE242     -0.0003
    145  CZ       -24.5690   17.6200   18.9580 C.ar  242  PHE242     -0.0000
    146  N        -20.4180   11.9050   21.0270 N.am  243  PHE243     -0.1976
    147  CA       -19.7250   11.0720   22.0000 C.3   243  PHE243      0.1639
    148  C        -18.8330   10.0610   21.2750 C.2   243  PHE243      0.2290
    149  O        -18.7410    8.9060   21.6880 O.2   243  PHE243     -0.2864
    150  CB       -20.7600   10.3740   22.8980 C.3   243  PHE243      0.0560
    151  CG       -21.9730   11.2420   23.2260 C.ar  243  PHE243     -0.0200
    152  CD1      -21.8380   12.4160   23.9590 C.ar  243  PHE243     -0.0042
    153  CD2      -23.2410   10.8830   22.7990 C.ar  243  PHE243     -0.0042
    154  CE1      -22.9510   13.2190   24.2560 C.ar  243  PHE243     -0.0003
    155  CE2      -24.3600   11.6840   23.0900 C.ar  243  PHE243     -0.0003
    156  CZ       -24.2120   12.8470   23.8210 C.ar  243  PHE243     -0.0000
    157  N        -30.1900   10.4050   26.4560 N.3   247  ILE247     -0.1245
    158  CA       -30.4940   11.0350   25.1690 C.3   247  ILE247      0.1561
    159  C        -31.9420   11.5450   25.0270 C.2   247  ILE247      0.2260
    160  O        -32.1510   12.6220   24.5040 O.2   247  ILE247     -0.2867
    161  CB       -30.0700   10.1380   23.9730 C.3   247  ILE247      0.0252
    162  CG1      -28.5440   10.1250   23.8360 C.3   247  ILE247      0.0019
    163  CG2      -30.7050   10.6100   22.6640 C.3   247  ILE247      0.0019
    164  CD1      -28.0520    9.2050   22.7310 C.3   247  ILE247      0.0001
    165  N        -32.2750   14.8930   26.7880 N.3   250  MET250     -0.1230
    166  CA       -31.4490   15.8400   26.0460 C.3   250  MET250      0.1702
    167  C        -32.2040   16.3720   24.8360 C.2   250  MET250      0.2592
    168  O        -32.2200   17.5870   24.5830 O.2   250  MET250     -0.2718
    169  CB       -30.1480   15.1770   25.5840 C.3   250  MET250      0.0401
    170  CG       -29.1030   15.0360   26.6770 C.3   250  MET250      0.0596
    171  SD       -27.5740   14.2840   26.0680 S.3   250  MET250     -0.1393
    172  CE       -26.3750   15.3630   26.8390 C.3   250  MET250      0.0692
    173  N        -32.8320   15.4600   24.0920 N.am  251  GLN251     -0.1979
    174  CA       -33.5730   15.8320   22.8860 C.3   251  GLN251      0.1601
    175  C        -34.7610   16.7320   23.2180 C.2   251  GLN251      0.2287
    176  O        -35.0610   17.6850   22.4780 O.2   251  GLN251     -0.2864
    177  CB       -34.0450   14.5900   22.1180 C.3   251  GLN251      0.0394
    178  CG       -32.9320   13.8250   21.4100 C.3   251  GLN251      0.0908
    179  CD       -32.2170   14.6650   20.3780 C.2   251  GLN251      0.2608
    180  OE1      -31.2870   15.4100   20.7040 O.2   251  GLN251     -0.2717
    181  NE2      -32.6510   14.5600   19.1170 N.am  251  GLN251     -0.0878
    182  N        -34.9030   18.7930   25.8230 N.3   253  GLY253     -0.1210
    183  CA       -34.3220   20.0780   26.1890 C.3   253  GLY253      0.1956
    184  C        -33.9290   20.8830   24.9590 C.2   253  GLY253      0.2611
    185  O        -34.1700   22.0850   24.8800 O.2   253  GLY253     -0.2717
    186  N        -33.3330   20.1930   23.9890 N.am  254  PHE254     -0.1976
    187  CA       -32.9160   20.8000   22.7310 C.3   254  PHE254      0.1639
    188  C        -34.1230   21.3290   21.9680 C.2   254  PHE254      0.2290
    189  O        -34.1070   22.4490   21.4600 O.2   254  PHE254     -0.2864
    190  CB       -32.1290   19.7800   21.8950 C.3   254  PHE254      0.0560
    191  CG       -31.6680   20.3030   20.5620 C.ar  254  PHE254     -0.0200
    192  CD1      -30.6410   21.2300   20.4820 C.ar  254  PHE254     -0.0042
    193  CD2      -32.2440   19.8470   19.3910 C.ar  254  PHE254     -0.0042
    194  CE1      -30.2040   21.7100   19.2560 C.ar  254  PHE254     -0.0003
    195  CE2      -31.8080   20.3170   18.1590 C.ar  254  PHE254     -0.0003
    196  CZ       -30.7890   21.2630   18.0970 C.ar  254  PHE254     -0.0000
    197  N        -34.2680   25.4730   21.7850 N.3   258  ILE258     -0.1245
    198  CA       -33.7690   25.9590   20.5030 C.3   258  ILE258      0.1561
    199  C        -34.7550   25.8500   19.3350 C.2   258  ILE258      0.2260
    200  O        -34.8540   26.7610   18.5060 O.2   258  ILE258     -0.2867
    201  CB       -32.4570   25.2260   20.1520 C.3   258  ILE258      0.0252
    202  CG1      -31.3740   25.6110   21.1490 C.3   258  ILE258      0.0019
    203  CG2      -31.9940   25.5380   18.7350 C.3   258  ILE258      0.0019
    204  CD1      -30.2460   24.6430   21.1610 C.3   258  ILE258      0.0001
@<TRIPOS>BOND
     1    16    15    2
     2    15    14    1
     3    44    42    1
     4    72    73    1
     5     4     3    2
     6    73    76    1
     7    73    74    1
     8    43    42    1
     9    14    17    1
    10    14    13    1
    11    65    66    1
    12   117   115    1
    13    42    39    1
    14    79    77   ar
    15    76    77    1
    16    77    78   ar
    17     3    13   am
    18     3     2    1
    19    38    39    1
    20    74    75    2
    21    74    80   am
    22   115   114    1
    23    17    18    1
    24    88    89    1
    25    39    40    1
    26    66    67    1
    27    66    69    1
    28    67    68    2
    29    89    92    1
    30    89    90    1
    31     2     1    1
    32     2     5    1
    33    80    81    1
    34    20    18   ar
    35    20    22   ar
    36    18    19   ar
    37     9     7   ar
    38     9    11   ar
    39     7     6   ar
    40    12    11    1
    41    82    81    1
    42    82    83    2
    43    11    10   ar
    44   114   116    1
    45   114   111    1
    46    40    41    2
    47    70    69    1
    48    69    71    1
    49     6     5    1
    50     6     8   ar
    51    81    84    1
    52    90    91    2
    53    90    93   am
    54    10     8   ar
    55   101   102    1
    56    22    21   ar
    57   111   110    1
    58   111   112    1
    59    19    21   ar
    60    93    94    1
    61    84    85    1
    62   102   105    1
    63   102   103    1
    64    95    94    1
    65    95    96    2
    66   112   113    2
    67   112   118   am
    68    85    87    1
    69    85    86    1
    70   105   106    1
    71    94    97    1
    72   103   104    2
    73    99    97    1
    74   109   107   am
    75   118   119    1
    76   129   127    1
    77   123   124    1
    78    97    98    1
    79    60    62   ar
    80    60    58   ar
    81    57    54    1
    82    57    58    1
    83    23    24    1
    84    62    63   ar
    85   106   107    1
    86    45    46    1
    87    53    54    1
    88    54    55    1
    89   107   108    2
    90    58    59   ar
    91   124   127    1
    92   124   125    1
    93   119   120    1
    94   119   122    1
    95   127   128    1
    96    28    27    1
    97    24    27    1
    98    24    25    1
    99    98   100    1
   100   120   121    2
   101    46    49    1
   102    46    47    1
   103    63    64    1
   104    63    61   ar
   105    59    61   ar
   106    55    56    2
   107    52    50    1
   108   125   126    2
   109   125   130   am
   110    27    29    1
   111    49    50    1
   112    47    48    2
   113    25    30   am
   114    25    26    2
   115    30    31    1
   116   130   131    1
   117   196   195   ar
   118   196   194   ar
   119   195   193   ar
   120    32    33    2
   121    32    31    1
   122   144   142   ar
   123   144   145   ar
   124    50    51    1
   125   200   199    2
   126   135   136    1
   127   203   201    1
   128   142   140   ar
   129    31    34    1
   130   145   143   ar
   131   132   131    1
   132   132   133    2
   133   181   179   am
   134   131   134    1
   135   194   192   ar
   136   199   198    1
   137   193   191   ar
   138    34    35    1
   139   136   139    1
   140   136   137    1
   141   140   139    1
   142   140   141   ar
   143   143   141   ar
   144   201   198    1
   145   201   202    1
   146   179   180    2
   147   179   178    1
   148   192   191   ar
   149   198   197    1
   150    35    37   am
   151    35    36    2
   152   191   190    1
   153   137   146   am
   154   137   138    2
   155   146   147    1
   156   202   204    1
   157   148   149    2
   158   148   147    1
   159   178   177    1
   160   189   188    2
   161   190   187    1
   162   188   187    1
   163   147   150    1
   164   177   174    1
   165   176   175    2
   166   163   161    1
   167   187   186    1
   168   164   162    1
   169   153   155   ar
   170   153   151   ar
   171   174   175    1
   172   174   173    1
   173   150   151    1
   174   155   156   ar
   175   151   152   ar
   176   156   154   ar
   177   162   161    1
   178   152   154   ar
   179   161   158    1
   180   186   184   am
   181   173   167   am
   182   160   159    2
   183   168   167    2
   184   167   166    1
   185   185   184    2
   186   184   183    1
   187   159   158    1
   188   158   157    1
   189   169   166    1
   190   169   170    1
   191   182   183    1
   192   166   165    1
   193   171   170    1
   194   171   172    1
