@<TRIPOS>MOLECULE
tmp/4ia6A04.pdb
 132 123 0 0 0
SMALL
GASTEIGER

@<TRIPOS>ATOM
      1  N        -36.0340   23.3540    4.9240 N.3   135  ASN135     -0.1240
      2  CA       -37.0440   24.3950    5.0660 C.3   135  ASN135      0.1653
      3  C        -36.5530   25.7550    4.5700 C.2   135  ASN135      0.2266
      4  O        -37.3390   26.5570    4.0410 O.2   135  ASN135     -0.2867
      5  CB       -37.5020   24.5210    6.5100 C.3   135  ASN135      0.1155
      6  CG       -38.7900   25.2810    6.6240 C.2   135  ASN135      0.2627
      7  OD1      -39.8460   24.7930    6.2010 O.2   135  ASN135     -0.2716
      8  ND2      -38.7240   26.4900    7.1830 N.am  135  ASN135     -0.0877
      9  N        -34.6120   26.2760    2.0250 N.3   137  ILE137     -0.1231
     10  CA       -34.7120   26.3650    0.5780 C.3   137  ILE137      0.1692
     11  C        -36.1660   26.6700    0.2520 C.2   137  ILE137      0.2592
     12  O        -36.4530   27.5170   -0.6240 O.2   137  ILE137     -0.2718
     13  CB       -34.2310   25.0730   -0.1200 C.3   137  ILE137      0.0266
     14  CG1      -32.7270   24.8290    0.1480 C.3   137  ILE137      0.0019
     15  CG2      -34.4770   25.1350   -1.5990 C.3   137  ILE137      0.0020
     16  CD1      -32.3300   23.3280   -0.0110 C.3   137  ILE137      0.0001
     17  N        -37.0920   26.0770    1.0180 N.am  138  VAL138     -0.1966
     18  CA       -38.4980   26.2940    0.7180 C.3   138  VAL138      0.1727
     19  C        -38.8040   27.7640    0.9750 C.2   138  VAL138      0.2616
     20  O        -39.4850   28.4590    0.1570 O.2   138  VAL138     -0.2715
     21  CB       -39.4250   25.4050    1.5750 C.3   138  VAL138      0.0290
     22  CG1      -40.8780   25.8520    1.4170 C.3   138  VAL138      0.0023
     23  CG2      -39.2680   23.9420    1.1760 C.3   138  VAL138      0.0023
     24  N        -38.2330   28.2780    2.0670 N.am  139  LYS139     -0.1977
     25  CA       -38.5790   29.6330    2.4410 C.3   139  LYS139      0.1596
     26  C        -38.0090   30.5560    1.3630 C.2   139  LYS139      0.2287
     27  O        -38.6220   31.5920    1.0480 O.2   139  LYS139     -0.2864
     28  CB       -38.0170   29.9640    3.8270 C.3   139  LYS139      0.0298
     29  CG       -38.0560   31.4330    4.1950 C.3   139  LYS139      0.0038
     30  CD       -37.5480   31.6630    5.6310 C.3   139  LYS139      0.0206
     31  CE       -36.8580   33.0220    5.7730 C.3   139  LYS139      0.1093
     32  NZ       -36.0570   33.1060    7.0290 N.3   139  LYS139     -0.1314
     33  N        -37.7140   29.9310   -1.8030 N.3   141  ILE141     -0.1231
     34  CA       -38.5140   29.8710   -3.0230 C.3   141  ILE141      0.1692
     35  C        -39.7540   30.7370   -2.8160 C.2   141  ILE141      0.2591
     36  O        -40.2030   31.4360   -3.7180 O.2   141  ILE141     -0.2718
     37  CB       -38.8500   28.4190   -3.3880 C.3   141  ILE141      0.0266
     38  CG1      -37.5720   27.7670   -3.9720 C.3   141  ILE141      0.0019
     39  CG2      -40.0480   28.3670   -4.3690 C.3   141  ILE141      0.0020
     40  CD1      -37.6890   26.3170   -4.3270 C.3   141  ILE141      0.0001
     41  N        -40.2590   30.7470   -1.5910 N.am  142  MET142     -0.1979
     42  CA       -41.4760   31.4840   -1.2740 C.3   142  MET142      0.1605
     43  C        -41.2140   32.9670   -0.9750 C.2   142  MET142      0.2287
     44  O        -42.1350   33.7160   -0.6460 O.2   142  MET142     -0.2864
     45  CB       -42.1700   30.8160   -0.0890 C.3   142  MET142      0.0413
     46  CG       -42.6350   29.4020   -0.4060 C.3   142  MET142      0.0598
     47  SD       -43.7170   29.3650   -1.8900 S.3   142  MET142     -0.1393
     48  CE       -45.0950   30.2900   -1.2170 C.3   142  MET142      0.0692
     49  N        -25.7910   18.9590    0.5690 N.3   166  PHE166     -0.1241
     50  CA       -26.4780   19.7630   -0.4360 C.3   166  PHE166      0.1605
     51  C        -25.6220   20.9600   -0.8460 C.2   166  PHE166      0.2264
     52  O        -25.4220   21.2140   -2.0420 O.2   166  PHE166     -0.2867
     53  CB       -27.8470   20.2500    0.0790 C.3   166  PHE166      0.0534
     54  CG       -28.5460   21.1770   -0.8920 C.ar  166  PHE166     -0.0203
     55  CD1      -29.4350   20.6690   -1.8290 C.ar  166  PHE166     -0.0042
     56  CD2      -28.2820   22.5410   -0.8910 C.ar  166  PHE166     -0.0042
     57  CE1      -30.0630   21.5140   -2.7630 C.ar  166  PHE166     -0.0003
     58  CE2      -28.8970   23.3870   -1.8230 C.ar  166  PHE166     -0.0003
     59  CZ       -29.7800   22.8630   -2.7630 C.ar  166  PHE166     -0.0000
     60  N        -23.9930   21.7110   -4.5170 N.3   170  TRP170     -0.1241
     61  CA       -24.5830   22.8620   -5.2070 C.3   170  TRP170      0.1605
     62  C        -23.5340   23.9180   -5.5540 C.2   170  TRP170      0.2264
     63  O        -23.3950   24.3440   -6.7320 O.2   170  TRP170     -0.2867
     64  CB       -25.6590   23.4510   -4.2800 C.3   170  TRP170      0.0550
     65  CG       -26.4860   24.5370   -4.8850 C.ar  170  TRP170      0.0003
     66  CD1      -26.2070   25.8740   -4.8860 C.ar  170  TRP170      0.0946
     67  CD2      -27.7490   24.3880   -5.5490 C.ar  170  TRP170      0.0152
     68  NE1      -27.2050   26.5550   -5.5270 N.ar  170  TRP170     -0.2442
     69  CE2      -28.1660   25.6670   -5.9430 C.ar  170  TRP170      0.0810
     70  CE3      -28.5570   23.2850   -5.8640 C.ar  170  TRP170      0.0012
     71  CZ2      -29.3700   25.8960   -6.6160 C.ar  170  TRP170      0.0191
     72  CZ3      -29.7560   23.5070   -6.5600 C.ar  170  TRP170      0.0001
     73  CH2      -30.1430   24.8020   -6.9180 C.ar  170  TRP170      0.0015
     74  N        -32.7170   27.1660   -8.0390 N.3   189  ALA189     -0.1245
     75  CA       -33.5220   26.1940   -7.3110 C.3   189  ALA189      0.1562
     76  C        -34.8750   26.0590   -7.9970 C.2   189  ALA189      0.2260
     77  O        -35.4080   24.9710   -8.0800 O.2   189  ALA189     -0.2867
     78  CB       -33.6860   26.5930   -5.8520 C.3   189  ALA189      0.0290
     79  N        -35.6690   22.5100  -10.5900 N.3   193  ILE193     -0.1245
     80  CA       -36.3760   21.6760   -9.6100 C.3   193  ILE193      0.1561
     81  C        -36.6290   20.2420  -10.0920 C.2   193  ILE193      0.2260
     82  O        -36.5330   19.2660   -9.3030 O.2   193  ILE193     -0.2867
     83  CB       -37.6730   22.3740   -9.1360 C.3   193  ILE193      0.0252
     84  CG1      -38.2070   21.6910   -7.8690 C.3   193  ILE193      0.0019
     85  CG2      -38.7650   22.4080  -10.2410 C.3   193  ILE193      0.0019
     86  CD1      -39.4660   22.3540   -7.3430 C.3   193  ILE193      0.0001
     87  N        -33.9540   17.6160   -9.1320 N.3   196  ILE196     -0.1245
     88  CA       -33.4650   17.3380   -7.7640 C.3   196  ILE196      0.1561
     89  C        -33.0960   15.8520   -7.5580 C.2   196  ILE196      0.2260
     90  O        -32.1610   15.5160   -6.8010 O.2   196  ILE196     -0.2867
     91  CB       -34.4270   17.8780   -6.6560 C.3   196  ILE196      0.0252
     92  CG1      -34.5690   19.3840   -6.7980 C.3   196  ILE196      0.0019
     93  CG2      -33.8820   17.5950   -5.2370 C.3   196  ILE196      0.0019
     94  CD1      -33.2360   20.1310   -6.9330 C.3   196  ILE196      0.0001
     95  N        -43.0440   19.7850   -7.5760 N.3   531  LEU531     -0.1245
     96  CA       -42.9250   20.3240   -6.2210 C.3   531  LEU531      0.1561
     97  C        -42.8990   19.1820   -5.2040 C.2   531  LEU531      0.2260
     98  O        -42.0370   19.1400   -4.2760 O.2   531  LEU531     -0.2867
     99  CB       -44.0860   21.2830   -5.9340 C.3   531  LEU531      0.0270
    100  CG       -44.0380   22.5640   -6.8000 C.3   531  LEU531      0.0019
    101  CD1      -45.2920   23.3620   -6.5960 C.3   531  LEU531      0.0001
    102  CD2      -42.8400   23.4520   -6.5070 C.3   531  LEU531      0.0001
    103  N        -39.7370   17.0560   -5.5230 N.3   534  ALA534     -0.1231
    104  CA       -38.5640   17.7110   -4.9400 C.3   534  ALA534      0.1694
    105  C        -38.5860   17.5790   -3.4350 C.2   534  ALA534      0.2591
    106  O        -37.5320   17.3800   -2.8190 O.2   534  ALA534     -0.2718
    107  CB       -38.4650   19.2060   -5.3540 C.3   534  ALA534      0.0304
    108  N        -39.7740   17.7080   -2.8270 N.am  535  MET535     -0.1979
    109  CA       -39.8710   17.5200   -1.3700 C.3   535  MET535      0.1605
    110  C        -39.3470   16.1510   -0.9930 C.2   535  MET535      0.2287
    111  O        -38.6120   15.9970   -0.0110 O.2   535  MET535     -0.2864
    112  CB       -41.3180   17.5940   -0.8810 C.3   535  MET535      0.0413
    113  CG       -42.1030   18.7880   -1.3540 C.3   535  MET535      0.0598
    114  SD       -42.3850   20.0300   -0.0890 S.3   535  MET535     -0.1393
    115  CE       -40.7170   20.6110    0.1620 C.3   535  MET535      0.0692
    116  N        -35.3130   15.9230   -1.7720 N.3   538  MET538     -0.1245
    117  CA       -34.5020   16.8590   -0.9980 C.3   538  MET538      0.1570
    118  C        -34.3490   16.3610    0.4330 C.2   538  MET538      0.2261
    119  O        -33.3540   16.6340    1.1120 O.2   538  MET538     -0.2867
    120  CB       -35.1870   18.2310   -1.0210 C.3   538  MET538      0.0387
    121  CG       -34.3790   19.3900   -0.5640 C.3   538  MET538      0.0595
    122  SD       -35.3100   20.9330   -0.8200 S.3   538  MET538     -0.1393
    123  CE       -36.9920   20.3270   -0.5850 C.3   538  MET538      0.0692
    124  N        -45.1970   24.3370   11.2850 N.3   553  GLU553     -0.1245
    125  CA       -45.2360   23.7990    9.9350 C.3   553  GLU553      0.1567
    126  C        -45.6010   22.3170    9.9680 C.2   553  GLU553      0.2260
    127  O        -46.3410   21.8380    9.1140 O.2   553  GLU553     -0.2867
    128  CB       -43.8930   23.9710    9.2340 C.3   553  GLU553      0.0388
    129  CG       -43.6810   25.3160    8.5760 C.3   553  GLU553      0.1160
    130  CD       -42.9450   26.2840    9.4750 C.2   553  GLU553      0.3649
    131  OE1      -43.0220   26.1100   10.7150 O.co2 553  GLU553     -0.2457
    132  OE2      -42.2850   27.2060    8.9390 O.co2 553  GLU553     -0.2457
@<TRIPOS>BOND
     1    79    80    1
     2    85    83    1
     3    81    80    1
     4    81    82    2
     5    80    83    1
     6    83    84    1
     7    87    88    1
     8    77    76    2
     9    74    75    1
    10    76    75    1
    11    84    86    1
    12    88    89    1
    13    88    91    1
    14    95    96    1
    15    89    90    2
    16    75    78    1
    17    94    92    1
    18    73    71   ar
    19    73    72   ar
    20   100   101    1
    21   100   102    1
    22   100    99    1
    23    92    91    1
    24    63    62    2
    25    91    93    1
    26    71    69   ar
    27    72    70   ar
    28    96    99    1
    29    96    97    1
    30    69    67   ar
    31    69    68   ar
    32    70    67   ar
    33    62    61    1
    34    67    65   ar
    35    68    66   ar
    36   103   104    1
    37   107   104    1
    38    61    60    1
    39    61    64    1
    40    97    98    2
    41   104   105    1
    42    66    65   ar
    43    65    64    1
    44    39    37    1
    45    40    38    1
    46    38    37    1
    47    36    35    2
    48   105   108   am
    49   105   106    2
    50    37    34    1
    51    34    35    1
    52    34    33    1
    53   108   109    1
    54    35    41   am
    55    57    59   ar
    56    57    55   ar
    57    59    58   ar
    58    52    51    2
    59    47    48    1
    60    47    46    1
    61    55    54   ar
    62    58    56   ar
    63   116   117    1
    64    15    13    1
    65    41    42    1
    66   109   110    1
    67   109   112    1
    68   113   112    1
    69   113   114    1
    70    42    43    1
    71    42    45    1
    72   120   117    1
    73   120   121    1
    74   117   118    1
    75   110   111    2
    76    43    44    2
    77    54    56   ar
    78    54    53    1
    79    51    50    1
    80   122   123    1
    81   122   121    1
    82    12    11    2
    83    50    53    1
    84    50    49    1
    85    46    45    1
    86    13    14    1
    87    13    10    1
    88   114   115    1
    89    16    14    1
    90    20    19    2
    91    11    10    1
    92    11    17   am
    93   118   119    2
    94    10     9    1
    95    18    19    1
    96    18    17    1
    97    18    21    1
    98    19    24   am
    99    27    26    2
   100    23    21    1
   101    26    25    1
   102    22    21    1
   103    24    25    1
   104    25    28    1
   105    28    29    1
   106     4     3    2
   107    29    30    1
   108     3     2    1
   109     1     2    1
   110     2     5    1
   111    30    31    1
   112    31    32    1
   113     7     6    2
   114     5     6    1
   115     6     8   am
   116   129   128    1
   117   129   130    1
   118   132   130   ar
   119   127   126    2
   120   128   125    1
   121   130   131   ar
   122   125   126    1
   123   125   124    1
