@<TRIPOS>MOLECULE
tmp/4ia6A02.pdb
 110 107 0 0 0
SMALL
GASTEIGER

@<TRIPOS>ATOM
      1  N        -19.7030   23.9540  -20.6610 N.3    69  ARG69      -0.1245
      2  CA       -20.4570   23.4250  -19.5420 C.3    69  ARG69       0.1563
      3  C        -21.3980   22.3260  -20.0510 C.2    69  ARG69       0.2260
      4  O        -21.6680   22.2200  -21.2570 O.2    69  ARG69      -0.2867
      5  CB       -21.2830   24.5470  -18.8990 C.3    69  ARG69       0.0307
      6  CG       -20.4620   25.6780  -18.1790 C.3    69  ARG69       0.0489
      7  CD       -19.8750   25.2460  -16.8130 C.3    69  ARG69       0.2205
      8  NE       -20.9220   24.7400  -15.9230 N.pl3  69  ARG69      -0.0865
      9  CZ       -21.6170   25.4890  -15.0590 C.cat  69  ARG69       0.5346
     10  NH1      -21.3610   26.7930  -14.9130 N.pl3  69  ARG69       0.1354
     11  NH2      -22.5640   24.9270  -14.3180 N.pl3  69  ARG69       0.1354
     12  N        -22.7740   24.3220   -4.5340 N.3   171  SER171     -0.1202
     13  CA       -21.7410   25.3430   -4.7040 C.3   171  SER171      0.2020
     14  C        -20.7300   24.8560   -5.7180 C.2   171  SER171      0.2619
     15  O        -20.3490   25.6210   -6.6230 O.2   171  SER171     -0.2717
     16  CB       -21.0220   25.6700   -3.3900 C.3   171  SER171      0.2103
     17  OG       -20.4840   24.4930   -2.8300 O.3   171  SER171     -0.2182
     18  N        -20.3040   23.5880   -5.6130 N.am  172  THR172     -0.1938
     19  CA       -19.2690   23.1610   -6.5540 C.3   172  THR172      0.2028
     20  C        -19.7660   22.9270   -7.9710 C.2   172  THR172      0.2642
     21  O        -19.0800   23.2780   -8.9320 O.2   172  THR172     -0.2714
     22  CB       -18.4780   21.9190   -6.0530 C.3   172  THR172      0.1808
     23  OG1      -19.3770   20.8230   -5.8030 O.3   172  THR172     -0.2208
     24  CG2      -17.6940   22.2660   -4.7730 C.3   172  THR172      0.0379
     25  N        -20.9390   22.3230   -8.1380 N.am  173  MET173     -0.1962
     26  CA       -21.3450   22.0060   -9.5040 C.3   173  MET173      0.1736
     27  C        -21.7670   23.2530  -10.2400 C.2   173  MET173      0.2616
     28  O        -21.6980   23.2750  -11.4760 O.2   173  MET173     -0.2715
     29  CB       -22.4670   20.9600   -9.5590 C.3   173  MET173      0.0427
     30  CG       -23.8410   21.5210   -9.1420 C.3   173  MET173      0.0599
     31  SD       -25.0400   20.2140   -8.8870 S.3   173  MET173     -0.1393
     32  CE       -25.4310   19.8540  -10.6020 C.3   173  MET173      0.0692
     33  N        -22.2140   24.2790   -9.5060 N.am  174  PHE174     -0.1960
     34  CA       -22.6990   25.5010  -10.1800 C.3   174  PHE174      0.1771
     35  C        -21.7440   26.6980  -10.0860 C.2   174  PHE174      0.2619
     36  O        -21.9870   27.7310  -10.7250 O.2   174  PHE174     -0.2715
     37  CB       -24.0540   25.9200   -9.6210 C.3   174  PHE174      0.0574
     38  CG       -25.1530   24.9610   -9.9160 C.ar  174  PHE174     -0.0200
     39  CD1      -25.3350   24.4720  -11.2140 C.ar  174  PHE174     -0.0042
     40  CD2      -26.0380   24.5690   -8.9120 C.ar  174  PHE174     -0.0042
     41  CE1      -26.3890   23.6030  -11.5080 C.ar  174  PHE174     -0.0003
     42  CE2      -27.0720   23.6740   -9.1920 C.ar  174  PHE174     -0.0003
     43  CZ       -27.2450   23.1910  -10.4910 C.ar  174  PHE174     -0.0000
     44  N        -20.7020   26.5620   -9.2650 N.am  175  ALA175     -0.1977
     45  CA       -19.7920   27.6530   -8.9360 C.3   175  ALA175      0.1597
     46  C        -20.4940   28.8310   -8.2350 C.2   175  ALA175      0.2287
     47  O        -20.2410   30.0120   -8.5330 O.2   175  ALA175     -0.2864
     48  CB       -19.0110   28.1010  -10.1900 C.3   175  ALA175      0.0319
     49  N        -13.2560   31.8380   -7.3130 N.3   331  TRP331     -0.1241
     50  CA       -12.7120   30.9420   -8.3320 C.3   331  TRP331      0.1605
     51  C        -12.0580   31.8180   -9.3830 C.2   331  TRP331      0.2264
     52  O        -12.6700   32.7680   -9.8620 O.2   331  TRP331     -0.2867
     53  CB       -13.8720   30.1690   -8.9690 C.3   331  TRP331      0.0550
     54  CG       -13.5110   29.3590  -10.1730 C.ar  331  TRP331      0.0003
     55  CD1      -12.2890   28.8450  -10.5020 C.ar  331  TRP331      0.0946
     56  CD2      -14.4260   28.9250  -11.1700 C.ar  331  TRP331      0.0152
     57  NE1      -12.3980   28.1080  -11.6750 N.ar  331  TRP331     -0.2442
     58  CE2      -13.6870   28.1520  -12.0940 C.ar  331  TRP331      0.0810
     59  CE3      -15.7920   29.0930  -11.3520 C.ar  331  TRP331      0.0012
     60  CZ2      -14.3010   27.5840  -13.2140 C.ar  331  TRP331      0.0191
     61  CZ3      -16.3970   28.5210  -12.4610 C.ar  331  TRP331      0.0001
     62  CH2      -15.6530   27.7770  -13.3770 C.ar  331  TRP331      0.0015
     63  N        -17.9090   16.6760  -12.2240 N.3   366  ILE366     -0.1245
     64  CA       -16.8500   16.8650  -11.2220 C.3   366  ILE366      0.1561
     65  C        -16.9050   15.8780  -10.0630 C.2   366  ILE366      0.2260
     66  O        -17.9760   15.4550   -9.6040 O.2   366  ILE366     -0.2867
     67  CB       -16.7910   18.3080  -10.6660 C.3   366  ILE366      0.0252
     68  CG1      -18.1810   18.7320  -10.1500 C.3   366  ILE366      0.0019
     69  CG2      -16.2330   19.2600  -11.7560 C.3   366  ILE366      0.0019
     70  CD1      -18.1500   19.8960   -9.1360 C.3   366  ILE366      0.0001
     71  N        -10.9120   23.6050   -2.0710 N.3   375  GLU375     -0.1245
     72  CA       -12.1760   23.0760   -2.5900 C.3   375  GLU375      0.1567
     73  C        -11.9670   22.7060   -4.0510 C.2   375  GLU375      0.2260
     74  O        -12.6000   23.2340   -4.9700 O.2   375  GLU375     -0.2867
     75  CB       -13.3630   24.0320   -2.3990 C.3   375  GLU375      0.0388
     76  CG       -14.7230   23.3280   -2.5780 C.3   375  GLU375      0.1160
     77  CD       -15.1410   22.4680   -1.3660 C.2   375  GLU375      0.3649
     78  OE1      -14.3690   22.3560   -0.3980 O.co2 375  GLU375     -0.2457
     79  OE2      -16.2510   21.8980   -1.3780 O.co2 375  GLU375     -0.2457
     80  N        -11.9420   20.5310   -7.3630 N.3   377  SER377     -0.1217
     81  CA       -12.7960   19.5690   -8.0560 C.3   377  SER377      0.1889
     82  C        -12.1420   19.2410   -9.3920 C.2   377  SER377      0.2288
     83  O        -11.3960   20.0590   -9.9340 O.2   377  SER377     -0.2866
     84  CB       -14.2160   20.1100   -8.2940 C.3   377  SER377      0.2089
     85  OG       -14.9190   20.3240   -7.0820 O.3   377  SER377     -0.2183
     86  N        -10.3490   22.4500  -11.1620 N.3   399  TYR399     -0.1227
     87  CA       -10.7380   23.7950  -10.7330 C.3   399  TYR399      0.1736
     88  C        -10.7350   23.9480   -9.2140 C.2   399  TYR399      0.2595
     89  O        -10.9220   22.9660   -8.4830 O.2   399  TYR399     -0.2718
     90  CB       -12.1260   24.1550  -11.2270 C.3   399  TYR399      0.0548
     91  CG       -12.6010   23.5000  -12.5010 C.ar  399  TYR399     -0.0200
     92  CD1      -13.1710   22.2250  -12.4800 C.ar  399  TYR399     -0.0009
     93  CD2      -12.5730   24.1940  -13.7170 C.ar  399  TYR399     -0.0009
     94  CE1      -13.6710   21.6370  -13.6520 C.ar  399  TYR399      0.0417
     95  CE2      -13.0610   23.6100  -14.8860 C.ar  399  TYR399      0.0417
     96  CZ       -13.5940   22.3300  -14.8360 C.ar  399  TYR399      0.1957
     97  OH       -14.0750   21.7590  -15.9890 O.3   399  TYR399     -0.2866
     98  N        -10.5420   25.1780   -8.7330 N.am  400  ALA400     -0.1966
     99  CA       -10.5600   25.4390   -7.2830 C.3   400  ALA400      0.1728
    100  C        -11.6320   26.4770   -6.9770 C.2   400  ALA400      0.2616
    101  O        -11.5780   27.5950   -7.4970 O.2   400  ALA400     -0.2715
    102  CB        -9.1930   25.9500   -6.7950 C.3   400  ALA400      0.0334
    103  N        -12.5750   26.1390   -6.1070 N.am  401  LEU401     -0.1977
    104  CA       -13.5940   27.1110   -5.7400 C.3   401  LEU401      0.1596
    105  C        -13.0300   28.2210   -4.8530 C.2   401  LEU401      0.2287
    106  O        -13.5550   29.3430   -4.8820 O.2   401  LEU401     -0.2864
    107  CB       -14.7790   26.4330   -5.0460 C.3   401  LEU401      0.0297
    108  CG       -16.0160   27.2980   -4.8140 C.3   401  LEU401      0.0022
    109  CD1      -16.6580   27.6330   -6.1520 C.3   401  LEU401      0.0001
    110  CD2      -17.0390   26.5680   -3.9240 C.3   401  LEU401      0.0001
@<TRIPOS>BOND
     1     4     3    2
     2     1     2    1
     3     3     2    1
     4     2     5    1
     5     5     6    1
     6     6     7    1
     7     7     8    1
     8    97    96    1
     9     8     9    2
    10     9    10    1
    11     9    11    1
    12    95    96   ar
    13    95    93   ar
    14    96    94   ar
    15    93    91   ar
    16    94    92   ar
    17    62    60   ar
    18    62    61   ar
    19    60    58   ar
    20    91    92   ar
    21    91    90    1
    22    61    59   ar
    23    63    64    1
    24    58    57   ar
    25    58    56   ar
    26    69    67    1
    27    57    55   ar
    28    41    39   ar
    29    41    43   ar
    30    28    27    2
    31    59    56   ar
    32    90    87    1
    33    64    67    1
    34    64    65    1
    35    39    38   ar
    36    56    54   ar
    37    86    87    1
    38    87    88    1
    39    36    35    2
    40    67    68    1
    41    32    31    1
    42    55    54   ar
    43    43    42   ar
    44    27    33   am
    45    27    26    1
    46    48    45    1
    47    34    35    1
    48    34    37    1
    49    34    33    1
    50    54    53    1
    51    68    70    1
    52    35    44   am
    53    65    66    2
    54    83    82    2
    55    38    37    1
    56    38    40   ar
    57    52    51    2
    58    29    26    1
    59    29    30    1
    60    26    25    1
    61    82    81    1
    62    51    50    1
    63    44    45    1
    64    88    98   am
    65    88    89    2
    66    42    40   ar
    67    30    31    1
    68    53    50    1
    69    45    46    1
    70    21    20    2
    71    98    99    1
    72    47    46    2
    73    50    49    1
    74    84    81    1
    75    84    85    1
    76    25    20   am
    77    81    80    1
    78    20    19    1
    79   101   100    2
    80    99   100    1
    81    99   102    1
    82   100   103   am
    83    15    14    2
    84    19    22    1
    85    19    18    1
    86   109   108    1
    87   103   104    1
    88    22    23    1
    89    22    24    1
    90   104   107    1
    91   104   105    1
    92    14    18   am
    93    14    13    1
    94   107   108    1
    95    74    73    2
    96   106   105    2
    97   108   110    1
    98    13    12    1
    99    13    16    1
   100    73    72    1
   101    16    17    1
   102    72    75    1
   103    72    71    1
   104    76    75    1
   105    76    77    1
   106    79    77   ar
   107    77    78   ar
