@<TRIPOS>MOLECULE
tmp/4ia6B03.pdb
 102 98 0 0 0
SMALL
GASTEIGER

@<TRIPOS>ATOM
      1  N        -68.8670   11.4910  -41.2950 N.3    61  VAL61      -0.1245
      2  CA       -68.6690   11.0380  -42.6740 C.3    61  VAL61       0.1561
      3  C        -67.4750   11.7410  -43.3520 C.2    61  VAL61       0.2260
      4  O        -66.3970   11.1500  -43.4700 O.2    61  VAL61      -0.2867
      5  CB       -70.0020   11.0990  -43.4930 C.3    61  VAL61       0.0252
      6  CG1      -70.9580   12.0990  -42.8720 C.3    61  VAL61       0.0019
      7  CG2      -69.7790   11.3700  -45.0100 C.3    61  VAL61       0.0019
      8  N        -67.0580   14.8410  -42.2600 N.3    63  GLY63      -0.1210
      9  CA       -67.0110   15.8750  -41.2480 C.3    63  GLY63       0.1956
     10  C        -66.2500   15.4570  -40.0150 C.2    63  GLY63       0.2612
     11  O        -66.3020   14.3010  -39.5890 O.2    63  GLY63      -0.2717
     12  N        -65.5340   16.4130  -39.4380 N.am   64  GLY64      -0.1942
     13  CA       -64.7730   16.1610  -38.2340 C.3    64  GLY64       0.2014
     14  C        -65.0580   17.1990  -37.1690 C.2    64  GLY64       0.2638
     15  O        -66.1180   17.8330  -37.1510 O.2    64  GLY64      -0.2714
     16  N        -64.0930   17.3830  -36.2810 N.am   65  ARG65      -0.1977
     17  CA       -64.2740   18.2400  -35.1330 C.3    65  ARG65       0.1597
     18  C        -63.2060   19.3350  -35.1450 C.2    65  ARG65       0.2287
     19  O        -62.3040   19.3660  -36.0010 O.2    65  ARG65      -0.2864
     20  CB       -64.1570   17.4100  -33.8450 C.3    65  ARG65       0.0334
     21  CG       -65.2010   16.2890  -33.6870 C.3    65  ARG65       0.0492
     22  CD       -66.5230   16.8330  -33.1360 C.3    65  ARG65       0.2205
     23  NE       -66.2910   17.5840  -31.9050 N.pl3  65  ARG65      -0.0865
     24  CZ       -66.3900   17.0810  -30.6740 C.cat  65  ARG65       0.5346
     25  NH1      -66.7550   15.8090  -30.4840 N.pl3  65  ARG65       0.1354
     26  NH2      -66.1250   17.8560  -29.6250 N.pl3  65  ARG65       0.1354
     27  N        -67.6900    4.8700  -34.4040 N.3   276  ILE276     -0.1231
     28  CA       -68.8750    5.7140  -34.1710 C.3   276  ILE276      0.1692
     29  C        -69.6160    6.0480  -35.4570 C.2   276  ILE276      0.2592
     30  O        -70.7280    6.5740  -35.4050 O.2   276  ILE276     -0.2718
     31  CB       -68.5800    7.0610  -33.4130 C.3   276  ILE276      0.0266
     32  CG1      -67.5570    7.9410  -34.1570 C.3   276  ILE276      0.0019
     33  CG2      -68.1470    6.7940  -31.9800 C.3   276  ILE276      0.0020
     34  CD1      -67.4960    9.4320  -33.6250 C.3   276  ILE276      0.0001
     35  N        -69.0090    5.7610  -36.6090 N.am  277  THR277     -0.1953
     36  CA       -69.6180    6.1240  -37.8990 C.3   277  THR277      0.1897
     37  C        -70.2530    4.9460  -38.6240 C.2   277  THR277      0.2313
     38  O        -71.0230    5.1340  -39.5570 O.2   277  THR277     -0.2863
     39  CB       -68.5730    6.7740  -38.8540 C.3   277  THR277      0.1794
     40  OG1      -67.4960    5.8510  -39.0650 O.3   277  THR277     -0.2208
     41  CG2      -68.0340    8.0770  -38.2620 C.3   277  THR277      0.0378
     42  N        -78.2470   11.4680  -29.1730 N.3   327  TRP327     -0.1241
     43  CA       -77.9320   12.1000  -30.4480 C.3   327  TRP327      0.1605
     44  C        -77.7830   11.0040  -31.4880 C.2   327  TRP327      0.2264
     45  O        -77.0360   10.0560  -31.2740 O.2   327  TRP327     -0.2867
     46  CB       -76.5980   12.8260  -30.3210 C.3   327  TRP327      0.0550
     47  CG       -76.0530   13.4220  -31.6000 C.ar  327  TRP327      0.0003
     48  CD1      -76.7540   13.7920  -32.7150 C.ar  327  TRP327      0.0946
     49  CD2      -74.6710   13.7490  -31.8580 C.ar  327  TRP327      0.0152
     50  NE1      -75.8780   14.3260  -33.6630 N.ar  327  TRP327     -0.2442
     51  CE2      -74.6080   14.3180  -33.1550 C.ar  327  TRP327      0.0810
     52  CE3      -73.4930   13.6210  -31.1130 C.ar  327  TRP327      0.0012
     53  CZ2      -73.3910   14.7530  -33.7300 C.ar  327  TRP327      0.0191
     54  CZ3      -72.2830   14.0380  -31.6840 C.ar  327  TRP327      0.0001
     55  CH2      -72.2430   14.5940  -32.9840 C.ar  327  TRP327      0.0015
     56  N        -77.4720   14.1530  -37.6580 N.3   330  SER330     -0.1217
     57  CA       -76.7890   15.3900  -38.0330 C.3   330  SER330      0.1889
     58  C        -77.2900   15.7100  -39.4380 C.2   330  SER330      0.2288
     59  O        -77.7490   14.8200  -40.1350 O.2   330  SER330     -0.2866
     60  CB       -75.2870   15.1760  -38.0650 C.3   330  SER330      0.2089
     61  OG       -74.8220   14.8840  -36.7510 O.3   330  SER330     -0.2183
     62  N        -74.1320   23.2200  -40.6750 N.3   393  TRP393     -0.1241
     63  CA       -74.2340   21.8960  -40.0820 C.3   393  TRP393      0.1605
     64  C        -75.1510   21.9480  -38.8650 C.2   393  TRP393      0.2264
     65  O        -75.0220   22.8390  -38.0420 O.2   393  TRP393     -0.2867
     66  CB       -72.8530   21.4030  -39.6840 C.3   393  TRP393      0.0550
     67  CG       -72.8680   20.0230  -39.1840 C.ar  393  TRP393      0.0003
     68  CD1      -72.9480   18.8810  -39.9280 C.ar  393  TRP393      0.0946
     69  CD2      -72.8050   19.6140  -37.8210 C.ar  393  TRP393      0.0152
     70  NE1      -72.9360   17.7850  -39.1060 N.ar  393  TRP393     -0.2442
     71  CE2      -72.8510   18.2100  -37.7990 C.ar  393  TRP393      0.0810
     72  CE3      -72.7190   20.3040  -36.6020 C.ar  393  TRP393      0.0012
     73  CZ2      -72.8070   17.4770  -36.6100 C.ar  393  TRP393      0.0191
     74  CZ3      -72.6790   19.5770  -35.4190 C.ar  393  TRP393      0.0001
     75  CH2      -72.7230   18.1820  -35.4320 C.ar  393  TRP393      0.0015
     76  N        -76.7680    8.2930  -37.4860 N.3   449  MET449     -0.1245
     77  CA       -75.5880    7.5490  -37.0300 C.3   449  MET449      0.1570
     78  C        -75.8530    6.8500  -35.6850 C.2   449  MET449      0.2261
     79  O        -75.8230    7.4970  -34.6230 O.2   449  MET449     -0.2867
     80  CB       -74.4260    8.5310  -36.8780 C.3   449  MET449      0.0387
     81  CG       -74.3330    9.4960  -38.0180 C.3   449  MET449      0.0595
     82  SD       -72.8870   10.5870  -37.8500 S.3   449  MET449     -0.1393
     83  CE       -71.6480    9.3000  -37.9700 C.3   449  MET449      0.0692
     84  N        -72.9950    7.3390  -32.9030 N.3   452  ILE452     -0.1245
     85  CA       -72.2820    8.6220  -32.7340 C.3   452  ILE452      0.1561
     86  C        -71.9470    8.9680  -31.2650 C.2   452  ILE452      0.2260
     87  O        -70.9520    9.6590  -31.0060 O.2   452  ILE452     -0.2867
     88  CB       -73.0170    9.7860  -33.4620 C.3   452  ILE452      0.0252
     89  CG1      -72.1580   11.0670  -33.5330 C.3   452  ILE452      0.0019
     90  CG2      -74.3370   10.0930  -32.7980 C.3   452  ILE452      0.0019
     91  CD1      -70.8680   10.8790  -34.3420 C.3   452  ILE452      0.0001
     92  N        -63.2630   10.9670  -28.0880 N.3   491  PHE491     -0.1241
     93  CA       -63.9400   11.8430  -29.0430 C.3   491  PHE491      0.1605
     94  C        -63.0250   13.0120  -29.4540 C.2   491  PHE491      0.2264
     95  O        -63.4860   14.1420  -29.6590 O.2   491  PHE491     -0.2867
     96  CB       -65.2720   12.3730  -28.4670 C.3   491  PHE491      0.0534
     97  CG       -66.3920   12.4650  -29.4790 C.ar  491  PHE491     -0.0203
     98  CD1      -66.1300   12.4930  -30.8420 C.ar  491  PHE491     -0.0042
     99  CD2      -67.7290   12.4840  -29.0480 C.ar  491  PHE491     -0.0042
    100  CE1      -67.2030   12.5610  -31.7860 C.ar  491  PHE491     -0.0003
    101  CE2      -68.7910   12.5540  -29.9700 C.ar  491  PHE491     -0.0003
    102  CZ       -68.5140   12.5930  -31.3460 C.ar  491  PHE491     -0.0000
@<TRIPOS>BOND
     1     7     5    1
     2     5     6    1
     3     5     2    1
     4     4     3    2
     5     3     2    1
     6     2     1    1
     7     8     9    1
     8     9    10    1
     9    62    63    1
    10    59    58    2
    11    63    66    1
    12    63    64    1
    13    10    11    2
    14    10    12   am
    15    68    67   ar
    16    68    70   ar
    17    66    67    1
    18    38    37    2
    19    12    13    1
    20    58    57    1
    21    67    69   ar
    22    70    71   ar
    23    40    39    1
    24    64    65    2
    25    39    41    1
    26    39    36    1
    27    37    36    1
    28    13    14    1
    29    60    57    1
    30    60    61    1
    31    57    56    1
    32    81    82    1
    33    81    80    1
    34    83    82    1
    35    36    35    1
    36    69    71   ar
    37    69    72   ar
    38    71    73   ar
    39    76    77    1
    40    14    15    2
    41    14    16   am
    42    77    80    1
    43    77    78    1
    44    73    75   ar
    45    35    29   am
    46    72    74   ar
    47    16    17    1
    48    19    18    2
    49    78    79    2
    50    29    30    2
    51    29    28    1
    52    75    74   ar
    53    18    17    1
    54    17    20    1
    55    27    28    1
    56    91    89    1
    57    28    31    1
    58    32    34    1
    59    32    31    1
    60    20    21    1
    61    53    51   ar
    62    53    55   ar
    63    21    22    1
    64    50    51   ar
    65    50    48   ar
    66    89    88    1
    67    88    90    1
    68    88    85    1
    69    31    33    1
    70    51    49   ar
    71    22    23    1
    72    55    54   ar
    73    84    85    1
    74    85    86    1
    75    48    47   ar
    76    23    24    2
    77    49    47   ar
    78    49    52   ar
    79   100   102   ar
    80   100    98   ar
    81    54    52   ar
    82    47    46    1
    83    44    45    2
    84    44    43    1
    85   102   101   ar
    86    86    87    2
    87    98    97   ar
    88    24    25    1
    89    24    26    1
    90    43    46    1
    91    43    42    1
    92   101    99   ar
    93    95    94    2
    94    97    99   ar
    95    97    96    1
    96    94    93    1
    97    93    96    1
    98    93    92    1
