@<TRIPOS>MOLECULE
tmp/4ia6A03.pdb
 139 136 0 0 0
SMALL
GASTEIGER

@<TRIPOS>ATOM
      1  N        -19.7030   23.9540  -20.6610 N.3    69  ARG69      -0.1231
      2  CA       -20.4570   23.4250  -19.5420 C.3    69  ARG69       0.1694
      3  C        -21.3980   22.3260  -20.0510 C.2    69  ARG69       0.2592
      4  O        -21.6680   22.2200  -21.2570 O.2    69  ARG69      -0.2718
      5  CB       -21.2830   24.5470  -18.8990 C.3    69  ARG69       0.0321
      6  CG       -20.4620   25.6780  -18.1790 C.3    69  ARG69       0.0489
      7  CD       -19.8750   25.2460  -16.8130 C.3    69  ARG69       0.2205
      8  NE       -20.9220   24.7400  -15.9230 N.pl3  69  ARG69      -0.0865
      9  CZ       -21.6170   25.4890  -15.0590 C.cat  69  ARG69       0.5346
     10  NH1      -21.3610   26.7930  -14.9130 N.pl3  69  ARG69       0.1354
     11  NH2      -22.5640   24.9270  -14.3180 N.pl3  69  ARG69       0.1354
     12  N        -21.8870   21.5190  -19.1190 N.am   70  GLU70      -0.1966
     13  CA       -22.9720   20.5770  -19.3610 C.3    70  GLU70       0.1733
     14  C        -24.2760   21.2720  -19.7940 C.2    70  GLU70       0.2616
     15  O        -24.3910   22.5080  -19.7250 O.2    70  GLU70      -0.2715
     16  CB       -23.1930   19.7520  -18.0740 C.3    70  GLU70       0.0429
     17  CG       -23.8250   20.5320  -16.8860 C.3    70  GLU70       0.1163
     18  CD       -23.0250   21.7380  -16.4000 C.2    70  GLU70       0.3649
     19  OE1      -21.7670   21.7090  -16.4700 O.co2  70  GLU70      -0.2457
     20  OE2      -23.6610   22.7200  -15.9420 O.co2  70  GLU70      -0.2457
     21  N        -25.2450   20.4910  -20.2930 N.am   71  MET71      -0.1963
     22  CA       -26.5880   20.9910  -20.5400 C.3    71  MET71       0.1736
     23  C        -27.5950   20.0650  -19.8630 C.2    71  MET71       0.2616
     24  O        -27.2070   19.1410  -19.1540 O.2    71  MET71      -0.2715
     25  CB       -26.8730   21.1120  -22.0520 C.3    71  MET71       0.0427
     26  CG       -25.8990   22.0900  -22.7460 C.3    71  MET71       0.0599
     27  SD       -24.6890   21.2060  -23.7670 S.3    71  MET71      -0.1393
     28  CE       -25.4430   21.4370  -25.3800 C.3    71  MET71       0.0692
     29  N        -28.8830   20.3320  -20.0460 N.am   72  GLU72      -0.1977
     30  CA       -29.9120   19.4350  -19.5240 C.3    72  GLU72       0.1602
     31  C        -31.0440   19.3690  -20.5280 C.2    72  GLU72       0.2287
     32  O        -31.0440   20.1420  -21.5130 O.2    72  GLU72      -0.2864
     33  CB       -30.4010   19.8680  -18.1300 C.3    72  GLU72       0.0415
     34  CG       -30.8940   21.3200  -18.0310 C.3    72  GLU72       0.1163
     35  CD       -32.3990   21.4890  -17.9530 C.2    72  GLU72       0.3649
     36  OE1      -32.8650   22.6420  -18.2230 O.co2  72  GLU72      -0.2457
     37  OE2      -33.1420   20.5150  -17.5980 O.co2  72  GLU72      -0.2457
     38  N        -33.2740   22.7380  -21.7590 N.3    75  PHE75      -0.1241
     39  CA       -32.7530   23.9170  -22.4350 C.3    75  PHE75       0.1605
     40  C        -33.6470   24.1660  -23.6550 C.2    75  PHE75       0.2264
     41  O        -33.2470   23.8940  -24.7840 O.2    75  PHE75      -0.2867
     42  CB       -31.3030   23.6500  -22.8900 C.3    75  PHE75       0.0534
     43  CG       -30.2640   23.9560  -21.8390 C.ar   75  PHE75      -0.0203
     44  CD1      -30.5880   23.9690  -20.4840 C.ar   75  PHE75      -0.0042
     45  CD2      -28.9540   24.2350  -22.2100 C.ar   75  PHE75      -0.0042
     46  CE1      -29.6120   24.2680  -19.5130 C.ar   75  PHE75      -0.0003
     47  CE2      -27.9770   24.5470  -21.2570 C.ar   75  PHE75      -0.0003
     48  CZ       -28.3030   24.5590  -19.9030 C.ar   75  PHE75      -0.0000
     49  N        -20.9390   22.3230   -8.1380 N.3   173  MET173     -0.1230
     50  CA       -21.3450   22.0060   -9.5040 C.3   173  MET173      0.1702
     51  C        -21.7670   23.2530  -10.2400 C.2   173  MET173      0.2592
     52  O        -21.6980   23.2750  -11.4760 O.2   173  MET173     -0.2718
     53  CB       -22.4670   20.9600   -9.5590 C.3   173  MET173      0.0401
     54  CG       -23.8410   21.5210   -9.1420 C.3   173  MET173      0.0596
     55  SD       -25.0400   20.2140   -8.8870 S.3   173  MET173     -0.1393
     56  CE       -25.4310   19.8540  -10.6020 C.3   173  MET173      0.0692
     57  N        -22.2140   24.2790   -9.5060 N.am  174  PHE174     -0.1976
     58  CA       -22.6990   25.5010  -10.1800 C.3   174  PHE174      0.1639
     59  C        -21.7440   26.6980  -10.0860 C.2   174  PHE174      0.2290
     60  O        -21.9870   27.7310  -10.7250 O.2   174  PHE174     -0.2864
     61  CB       -24.0540   25.9200   -9.6210 C.3   174  PHE174      0.0560
     62  CG       -25.1530   24.9610   -9.9160 C.ar  174  PHE174     -0.0200
     63  CD1      -25.3350   24.4720  -11.2140 C.ar  174  PHE174     -0.0042
     64  CD2      -26.0380   24.5690   -8.9120 C.ar  174  PHE174     -0.0042
     65  CE1      -26.3890   23.6030  -11.5080 C.ar  174  PHE174     -0.0003
     66  CE2      -27.0720   23.6740   -9.1920 C.ar  174  PHE174     -0.0003
     67  CZ       -27.2450   23.1910  -10.4910 C.ar  174  PHE174     -0.0000
     68  N        -31.9560   29.3280   -9.6970 N.3   188  TYR188     -0.1241
     69  CA       -31.5010   27.9650   -9.9850 C.3   188  TYR188      0.1605
     70  C        -32.3570   26.9060   -9.2880 C.2   188  TYR188      0.2264
     71  O        -32.6510   25.8340   -9.8490 O.2   188  TYR188     -0.2867
     72  CB       -30.0450   27.7960   -9.5370 C.3   188  TYR188      0.0534
     73  CG       -29.0100   27.9920  -10.6260 C.ar  188  TYR188     -0.0201
     74  CD1      -28.7720   29.2430  -11.1770 C.ar  188  TYR188     -0.0009
     75  CD2      -28.2480   26.9200  -11.0870 C.ar  188  TYR188     -0.0009
     76  CE1      -27.8110   29.4170  -12.1580 C.ar  188  TYR188      0.0417
     77  CE2      -27.2810   27.0980  -12.0630 C.ar  188  TYR188      0.0417
     78  CZ       -27.0680   28.3480  -12.5940 C.ar  188  TYR188      0.1957
     79  OH       -26.0960   28.5500  -13.5740 O.3   188  TYR188     -0.2866
     80  N        -34.2800   24.4630  -11.9030 N.3   192  PHE192     -0.1241
     81  CA       -33.8420   23.0640  -12.0450 C.3   192  PHE192      0.1605
     82  C        -34.4890   22.1270  -11.0640 C.2   192  PHE192      0.2264
     83  O        -33.9680   21.0430  -10.7780 O.2   192  PHE192     -0.2867
     84  CB       -32.3000   22.9630  -12.0230 C.3   192  PHE192      0.0534
     85  CG       -31.6530   23.7580  -13.1250 C.ar  192  PHE192     -0.0203
     86  CD1      -31.8670   23.4050  -14.4620 C.ar  192  PHE192     -0.0042
     87  CD2      -30.8540   24.8770  -12.8400 C.ar  192  PHE192     -0.0042
     88  CE1      -31.3090   24.1600  -15.4980 C.ar  192  PHE192     -0.0003
     89  CE2      -30.2870   25.6340  -13.8780 C.ar  192  PHE192     -0.0003
     90  CZ       -30.5240   25.2710  -15.2060 C.ar  192  PHE192     -0.0000
     91  N        -34.7990   18.3500  -11.5530 N.3   195  HIS195     -0.1241
     92  CA       -33.6150   17.5150  -11.5480 C.3   195  HIS195      0.1621
     93  C        -33.1180   17.3170  -10.1360 C.2   195  HIS195      0.2264
     94  O        -31.9800   16.8700   -9.9590 O.2   195  HIS195     -0.2867
     95  CB       -32.4920   18.1160  -12.4170 C.3   195  HIS195      0.0745
     96  CG       -32.7350   17.9520  -13.8870 C.ar  195  HIS195      0.0817
     97  ND1      -33.1520   16.7760  -14.4570 N.ar  195  HIS195     -0.2268
     98  CD2      -32.6260   18.8540  -14.9100 C.ar  195  HIS195      0.1154
     99  CE1      -33.2930   16.9410  -15.7700 C.ar  195  HIS195      0.1986
    100  NE2      -32.9710   18.1860  -16.0550 N.ar  195  HIS195     -0.2212
    101  N        -29.1370   15.3500   -8.9960 N.3   199  LEU199     -0.1245
    102  CA       -27.9890   16.2230   -8.7610 C.3   199  LEU199      0.1561
    103  C        -26.7710   15.4950   -8.1710 C.2   199  LEU199      0.2260
    104  O        -25.6710   15.6380   -8.7210 O.2   199  LEU199     -0.2867
    105  CB       -28.3500   17.4620   -7.9390 C.3   199  LEU199      0.0270
    106  CG       -29.4140   18.4320   -8.5060 C.3   199  LEU199      0.0019
    107  CD1      -29.4480   19.7150   -7.6080 C.3   199  LEU199      0.0001
    108  CD2      -29.1810   18.7430   -9.9960 C.3   199  LEU199      0.0001
    109  N        -28.7920   13.9600  -14.1900 N.3   204  ALA204     -0.1231
    110  CA       -29.5120   15.0550  -14.8520 C.3   204  ALA204      0.1694
    111  C        -28.6920   15.7690  -15.9220 C.2   204  ALA204      0.2591
    112  O        -29.2550   16.5470  -16.6970 O.2   204  ALA204     -0.2718
    113  CB       -29.9630   16.0730  -13.8340 C.3   204  ALA204      0.0304
    114  N        -27.3720   15.5450  -15.9430 N.am  205  LEU205     -0.1980
    115  CA       -26.4990   16.2460  -16.9000 C.3   205  LEU205      0.1596
    116  C        -26.3980   15.5750  -18.2680 C.2   205  LEU205      0.2287
    117  O        -26.4600   14.3320  -18.3900 O.2   205  LEU205     -0.2864
    118  CB       -25.0600   16.3670  -16.3650 C.3   205  LEU205      0.0297
    119  CG       -24.8150   16.9420  -14.9870 C.3   205  LEU205      0.0022
    120  CD1      -23.3420   17.3500  -14.8440 C.3   205  LEU205      0.0001
    121  CD2      -25.7540   18.0980  -14.7770 C.3   205  LEU205      0.0001
    122  N        -25.0950   31.8320  -16.3920 N.3   495  PHE495     -0.1227
    123  CA       -24.0580   30.7900  -16.4650 C.3   495  PHE495      0.1736
    124  C        -24.5830   29.5240  -17.1500 C.2   495  PHE495      0.2596
    125  O        -24.1860   28.4090  -16.8020 O.2   495  PHE495     -0.2718
    126  CB       -23.4400   30.4770  -15.0800 C.3   495  PHE495      0.0547
    127  CG       -21.9300   30.2360  -15.0990 C.ar  495  PHE495     -0.0202
    128  CD1      -21.2470   29.9080  -16.2790 C.ar  495  PHE495     -0.0042
    129  CD2      -21.1930   30.3690  -13.9250 C.ar  495  PHE495     -0.0042
    130  CE1      -19.8530   29.7000  -16.2700 C.ar  495  PHE495     -0.0003
    131  CE2      -19.8150   30.1760  -13.9120 C.ar  495  PHE495     -0.0003
    132  CZ       -19.1420   29.8450  -15.0810 C.ar  495  PHE495     -0.0000
    133  N        -25.4720   29.7000  -18.1350 N.am  496  THR496     -0.1953
    134  CA       -25.9160   28.5880  -18.9760 C.3   496  THR496      0.1897
    135  C        -25.9550   28.9780  -20.4510 C.2   496  THR496      0.2313
    136  O        -26.2060   30.1450  -20.7930 O.2   496  THR496     -0.2863
    137  CB       -27.3180   28.0870  -18.5910 C.3   496  THR496      0.1794
    138  OG1      -28.2810   29.1070  -18.8640 O.3   496  THR496     -0.2208
    139  CG2      -27.4110   27.6790  -17.1160 C.3   496  THR496      0.0378
@<TRIPOS>BOND
     1    28    27    1
     2    41    40    2
     3    27    26    1
     4    40    39    1
     5    42    39    1
     6    42    43    1
     7    26    25    1
     8    39    38    1
     9    45    43   ar
    10    45    47   ar
    11    25    22    1
    12    43    44   ar
    13    32    31    2
    14    47    48   ar
    15     4     3    2
    16   136   135    2
    17     1     2    1
    18    22    21    1
    19    22    23    1
    20    31    30    1
    21    44    46   ar
    22   135   134    1
    23    21    14   am
    24     3     2    1
    25     3    12   am
    26    29    23   am
    27    29    30    1
    28    48    46   ar
    29    23    24    2
    30    14    15    2
    31    14    13    1
    32     2     5    1
    33    30    33    1
    34    13    12    1
    35    13    16    1
    36   134   137    1
    37   134   133    1
    38     5     6    1
    39   138   137    1
    40   137   139    1
    41   117   116    2
    42   116   115    1
    43    36    35   ar
    44     6     7    1
    45   133   124   am
    46    33    34    1
    47    16    17    1
    48    34    35    1
    49    35    37   ar
    50   124   125    2
    51   124   123    1
    52   115   118    1
    53   115   114    1
    54    17    18    1
    55     7     8    1
    56   112   111    2
    57    19    18   ar
    58   123   122    1
    59   123   126    1
    60    18    20   ar
    61   118   119    1
    62   128   130   ar
    63   128   127   ar
    64   130   132   ar
    65   100    99   ar
    66   100    98   ar
    67   114   111   am
    68     8     9    2
    69   111   110    1
    70    99    97   ar
    71    88    90   ar
    72    88    86   ar
    73    90    89   ar
    74   127   126    1
    75   127   129   ar
    76   132   131   ar
    77     9    10    1
    78     9    11    1
    79   119   120    1
    80   119   121    1
    81    98    96   ar
    82   110   109    1
    83   110   113    1
    84    86    85   ar
    85    97    96   ar
    86   129   131   ar
    87    96    95    1
    88    89    87   ar
    89    79    78    1
    90    85    87   ar
    91    85    84    1
    92    78    76   ar
    93    78    77   ar
    94    95    92    1
    95    76    74   ar
    96    77    75   ar
    97    81    84    1
    98    81    80    1
    99    81    82    1
   100    91    92    1
   101    92    93    1
   102    65    63   ar
   103    65    67   ar
   104    52    51    2
   105    63    62   ar
   106    74    73   ar
   107    75    73   ar
   108    82    83    2
   109    60    59    2
   110    73    72    1
   111    56    55    1
   112    67    66   ar
   113    51    57   am
   114    51    50    1
   115    58    59    1
   116    58    61    1
   117    58    57    1
   118    93    94    2
   119   108   106    1
   120    69    68    1
   121    69    72    1
   122    69    70    1
   123    62    61    1
   124    62    64   ar
   125    71    70    2
   126    53    50    1
   127    53    54    1
   128    50    49    1
   129    66    64   ar
   130    54    55    1
   131   101   102    1
   132   102   103    1
   133   102   105    1
   134   104   103    2
   135   106   105    1
   136   106   107    1
