@<TRIPOS>MOLECULE
tmp/4iaaA00.pdb
 166 154 0 0 0
SMALL
GASTEIGER

@<TRIPOS>ATOM
      1  N         82.0340   38.9580    6.3380 N.3    12  LEU12      -0.1231
      2  CA        80.6310   38.7520    6.7470 C.3    12  LEU12       0.1693
      3  C         80.3720   37.3940    7.4130 C.2    12  LEU12       0.2593
      4  O         79.2870   37.1460    7.9320 O.2    12  LEU12      -0.2718
      5  CB        79.6980   38.9130    5.5460 C.3    12  LEU12       0.0284
      6  CG        79.7580   40.2750    4.8530 C.3    12  LEU12       0.0019
      7  CD1       78.9010   40.2740    3.6010 C.3    12  LEU12       0.0001
      8  CD2       79.3160   41.3920    5.7810 C.3    12  LEU12       0.0001
      9  N         81.3630   36.5160    7.3950 N.am   13  GLY13      -0.1942
     10  CA        81.2600   35.2490    8.0950 C.3    13  GLY13       0.2014
     11  C         81.8730   34.1390    7.2770 C.2    13  GLY13       0.2639
     12  O         82.3030   34.3430    6.1370 O.2    13  GLY13      -0.2714
     13  N         81.8990   32.9560    7.8730 N.am   14  SER14      -0.1949
     14  CA        82.4790   31.7800    7.2480 C.3    14  SER14       0.1924
     15  C         81.9060   30.5220    7.8910 C.2    14  SER14       0.2314
     16  O         81.2040   30.5900    8.9090 O.2    14  SER14      -0.2863
     17  CB        84.0180   31.8080    7.3530 C.3    14  SER14       0.2116
     18  OG        84.4710   32.4040    8.5570 O.3    14  SER14      -0.2180
     19  N         81.0200   26.7260    3.9010 N.3    17  PHE17      -0.1241
     20  CA        80.7020   27.3620    2.6260 C.3    17  PHE17       0.1605
     21  C         81.8160   28.3350    2.1830 C.2    17  PHE17       0.2264
     22  O         81.6580   29.0450    1.1950 O.2    17  PHE17      -0.2867
     23  CB        79.3540   28.1110    2.7440 C.3    17  PHE17       0.0534
     24  CG        79.3190   29.1770    3.8290 C.ar   17  PHE17      -0.0203
     25  CD1       79.8570   30.4570    3.6020 C.ar   17  PHE17      -0.0042
     26  CD2       78.7230   28.9120    5.0700 C.ar   17  PHE17      -0.0042
     27  CE1       79.8200   31.4310    4.5900 C.ar   17  PHE17      -0.0003
     28  CE2       78.6820   29.8830    6.0610 C.ar   17  PHE17      -0.0003
     29  CZ        79.2330   31.1420    5.8200 C.ar   17  PHE17      -0.0000
     30  N         83.1350   34.8330    3.2380 N.3    20  VAL20      -0.1245
     31  CA        82.5260   35.8510    2.4000 C.3    20  VAL20       0.1561
     32  C         82.9650   37.2260    2.8670 C.2    20  VAL20       0.2260
     33  O         82.9890   37.4850    4.0520 O.2    20  VAL20      -0.2867
     34  CB        80.9800   35.7760    2.4670 C.3    20  VAL20       0.0252
     35  CG1       80.3360   36.9410    1.7090 C.3    20  VAL20       0.0019
     36  CG2       80.4720   34.4360    1.9270 C.3    20  VAL20       0.0019
     37  N         78.9710   40.4060   -3.0230 N.3    33  ALA33      -0.1245
     38  CA        79.5460   39.5690   -1.9920 C.3    33  ALA33       0.1562
     39  C         80.5960   38.6950   -2.6360 C.2    33  ALA33       0.2260
     40  O         80.3450   38.1290   -3.6920 O.2    33  ALA33      -0.2867
     41  CB        78.4730   38.7100   -1.3680 C.3    33  ALA33       0.0290
     42  N         83.0480   35.4590   -2.3040 N.3    35  LYS35      -0.1245
     43  CA        83.0580   34.2190   -1.5740 C.3    35  LYS35       0.1561
     44  C         84.2090   33.3710   -2.0190 C.2    35  LYS35       0.2260
     45  O         84.2200   32.8360   -3.1180 O.2    35  LYS35      -0.2867
     46  CB        81.7740   33.4610   -1.8110 C.3    35  LYS35       0.0271
     47  CG        81.6690   32.2230   -0.9430 C.3    35  LYS35       0.0035
     48  CD        80.6290   31.2870   -1.5040 C.3    35  LYS35       0.0206
     49  CE        79.9410   30.5540   -0.3860 C.3    35  LYS35       0.1093
     50  NZ        79.2830   29.3230   -0.9020 N.3    35  LYS35      -0.1314
     51  N         78.9210   23.9340   -7.1450 N.3    57  GLU57      -0.1245
     52  CA        78.2970   25.1850   -6.7400 C.3    57  GLU57       0.1567
     53  C         78.2060   26.2050   -7.8930 C.2    57  GLU57       0.2260
     54  O         77.1560   26.8230   -8.1120 O.2    57  GLU57      -0.2867
     55  CB        79.0720   25.7670   -5.5630 C.3    57  GLU57       0.0388
     56  CG        78.3900   26.9310   -4.8910 C.3    57  GLU57       0.1160
     57  CD        79.0830   27.3690   -3.6240 C.2    57  GLU57       0.3649
     58  OE1       80.0080   26.6770   -3.1770 O.co2  57  GLU57      -0.2457
     59  OE2       78.6940   28.4160   -3.0740 O.co2  57  GLU57      -0.2457
     60  N         69.8890   34.3080   -4.8670 N.3    72  ILE72      -0.1245
     61  CA        71.0690   35.1410   -5.0230 C.3    72  ILE72       0.1561
     62  C         71.9400   34.6470   -6.1710 C.2    72  ILE72       0.2260
     63  O         72.4690   33.5170   -6.1420 O.2    72  ILE72      -0.2867
     64  CB        71.8460   35.3000   -3.7020 C.3    72  ILE72       0.0252
     65  CG1       71.3970   36.6030   -3.0470 C.3    72  ILE72       0.0019
     66  CG2       73.3450   35.3920   -3.9040 C.3    72  ILE72       0.0019
     67  CD1       70.9950   36.4130   -1.6130 C.3    72  ILE72       0.0001
     68  N         78.7980   37.5490   -5.8980 N.3    88  LEU88      -0.1231
     69  CA        77.3700   37.3380   -5.7770 C.3    88  LEU88       0.1693
     70  C         76.6830   38.6670   -5.5080 C.2    88  LEU88       0.2592
     71  O         77.3330   39.6390   -5.1190 O.2    88  LEU88      -0.2718
     72  CB        77.1190   36.3660   -4.6370 C.3    88  LEU88       0.0284
     73  CG        77.6620   34.9670   -4.9360 C.3    88  LEU88       0.0019
     74  CD1       78.2210   34.2920   -3.6960 C.3    88  LEU88       0.0001
     75  CD2       76.5920   34.0920   -5.5830 C.3    88  LEU88       0.0001
     76  N         75.3720   38.7130   -5.7100 N.am   89  GLU89      -0.1966
     77  CA        74.5980   39.8820   -5.3030 C.3    89  GLU89       0.1733
     78  C         74.7500   40.1230   -3.8140 C.2    89  GLU89       0.2616
     79  O         75.0640   39.2000   -3.0530 O.2    89  GLU89      -0.2715
     80  CB        73.1210   39.7010   -5.6040 C.3    89  GLU89       0.0429
     81  CG        72.7820   39.6430   -7.0780 C.3    89  GLU89       0.1163
     82  CD        71.3090   39.3900   -7.2890 C.2    89  GLU89       0.3649
     83  OE1       70.8520   38.2640   -6.9980 O.co2  89  GLU89      -0.2457
     84  OE2       70.6130   40.3240   -7.7250 O.co2  89  GLU89      -0.2457
     85  N         74.5420   41.3740   -3.4150 N.am   90  ARG90      -0.1964
     86  CA        74.4330   41.7210   -2.0030 C.3    90  ARG90       0.1714
     87  C         73.2780   42.6890   -1.8390 C.2    90  ARG90       0.2458
     88  O         73.4060   43.8830   -2.0750 O.2    90  ARG90      -0.2730
     89  CB        75.7340   42.3070   -1.4520 C.3    90  ARG90       0.0347
     90  CG        75.6540   42.6500    0.0310 C.3    90  ARG90       0.0492
     91  CD        77.0300   42.7830    0.6800 C.3    90  ARG90       0.2205
     92  NE        77.8550   43.8060    0.0340 N.pl3  90  ARG90      -0.0865
     93  CZ        77.7220   45.1200    0.1980 C.cat  90  ARG90       0.5346
     94  NH1       76.7830   45.6190    1.0000 N.pl3  90  ARG90       0.1354
     95  NH2       78.5280   45.9460   -0.4680 N.pl3  90  ARG90       0.1354
     96  N         72.1160   42.1590   -1.4830 N.am   91  PRO91      -0.2727
     97  CA        70.9960   43.0060   -1.1090 C.3    91  PRO91       0.1402
     98  C         71.3200   43.7960    0.1570 C.2    91  PRO91       0.2269
     99  O         72.0550   43.3080    1.0270 O.2    91  PRO91      -0.2865
    100  CB        69.8720   42.0000   -0.8330 C.3    91  PRO91       0.0296
    101  CG        70.2880   40.7400   -1.5110 C.3    91  PRO91       0.0237
    102  CD        71.7770   40.7270   -1.4560 C.3    91  PRO91       0.0939
    103  N         69.7790   43.6070    4.8080 N.3    94  VAL94      -0.1245
    104  CA        69.4450   42.2130    4.6850 C.3    94  VAL94       0.1561
    105  C         69.5660   41.5250    6.0340 C.2    94  VAL94       0.2260
    106  O         70.1350   42.0740    6.9640 O.2    94  VAL94      -0.2867
    107  CB        70.3700   41.5570    3.6280 C.3    94  VAL94       0.0252
    108  CG1       71.6510   41.0410    4.2630 C.3    94  VAL94       0.0019
    109  CG2       69.6380   40.4710    2.8580 C.3    94  VAL94       0.0019
    110  N         69.3940   37.0740    7.5060 N.3    96  ASP96      -0.1239
    111  CA        69.0720   35.6960    7.2300 C.3    96  ASP96       0.1674
    112  C         67.9220   35.2920    8.1550 C.2    96  ASP96       0.2266
    113  O         67.6360   35.9630    9.1430 O.2    96  ASP96      -0.2867
    114  CB        70.3280   34.7970    7.3060 C.3    96  ASP96       0.1410
    115  CG        70.7100   34.4030    8.7080 C.2    96  ASP96       0.3668
    116  OD1       69.8790   34.5010    9.6200 O.co2  96  ASP96      -0.2456
    117  OD2       71.8540   33.9450    8.8980 O.co2  96  ASP96      -0.2456
    118  N         68.5430   34.4960   12.0040 N.3    99  ASP99      -0.1239
    119  CA        68.7390   35.6250   12.9020 C.3    99  ASP99       0.1674
    120  C         67.4120   36.2800   13.1630 C.2    99  ASP99       0.2266
    121  O         67.0950   36.6460   14.2900 O.2    99  ASP99      -0.2867
    122  CB        69.7020   36.6480   12.3000 C.3    99  ASP99       0.1410
    123  CG        71.1230   36.1170   12.1880 C.2    99  ASP99       0.3668
    124  OD1       71.4980   35.2430   13.0050 O.co2  99  ASP99      -0.2456
    125  OD2       71.8520   36.5730   11.2740 O.co2  99  ASP99      -0.2456
    126  N         68.9640   29.6480    7.7320 N.3   139  GLU139     -0.1231
    127  CA        70.2000   30.3830    7.4780 C.3   139  GLU139      0.1699
    128  C         70.6680   30.3560    6.0260 C.2   139  GLU139      0.2592
    129  O         71.6500   31.0210    5.6970 O.2   139  GLU139     -0.2718
    130  CB        71.3250   29.9800    8.4430 C.3   139  GLU139      0.0402
    131  CG        71.7270   28.5230    8.4980 C.3   139  GLU139      0.1161
    132  CD        72.8640   28.2820    9.4860 C.2   139  GLU139      0.3649
    133  OE1       73.9610   28.8670    9.2930 O.co2 139  GLU139     -0.2457
    134  OE2       72.6630   27.5130   10.4540 O.co2 139  GLU139     -0.2457
    135  N         69.9640   29.6330    5.1530 N.am  140  ASN140     -0.1974
    136  CA        70.2420   29.7040    3.7160 C.3   140  ASN140      0.1688
    137  C         69.1970   30.5050    2.9590 C.2   140  ASN140      0.2292
    138  O         69.1100   30.4270    1.7350 O.2   140  ASN140     -0.2864
    139  CB        70.4220   28.3050    3.1410 C.3   140  ASN140      0.1181
    140  CG        71.6990   27.6560    3.6260 C.2   140  ASN140      0.2629
    141  OD1       72.6570   28.3510    3.9650 O.2   140  ASN140     -0.2716
    142  ND2       71.7210   26.3250    3.6860 N.am  140  ASN140     -0.0877
    143  N         67.8280   34.5320    2.8060 N.3   142  LEU142     -0.1245
    144  CA        68.0290   35.9100    3.1850 C.3   142  LEU142      0.1561
    145  C         66.7800   36.6540    2.8900 C.2   142  LEU142      0.2260
    146  O         66.0650   36.3260    1.9470 O.2   142  LEU142     -0.2867
    147  CB        69.1200   36.5850    2.3740 C.3   142  LEU142      0.0270
    148  CG        70.4930   35.9570    2.3400 C.3   142  LEU142      0.0019
    149  CD1       71.4560   36.9060    1.6460 C.3   142  LEU142      0.0001
    150  CD2       70.9810   35.6310    3.7410 C.3   142  LEU142      0.0001
    151  N         70.5140   31.0910   -0.6740 N.3   153  ILE153     -0.1231
    152  CA        71.9410   30.9170   -0.7360 C.3   153  ILE153      0.1692
    153  C         72.2530   29.4640   -0.4750 C.2   153  ILE153      0.2592
    154  O         71.5070   28.6210   -0.8660 O.2   153  ILE153     -0.2718
    155  CB        72.6410   31.8650    0.2210 C.3   153  ILE153      0.0266
    156  CG1       72.2210   31.6010    1.6350 C.3   153  ILE153      0.0019
    157  CG2       72.2490   33.2840   -0.0800 C.3   153  ILE153      0.0020
    158  CD1       72.8400   32.5400    2.6130 C.3   153  ILE153      0.0001
    159  N         73.3240   29.1360    0.2030 N.am  154  ASP154     -0.1974
    160  CA        74.4470   28.4660   -0.3920 C.3   154  ASP154      0.1709
    161  C         74.1270   27.1230   -1.0490 C.2   154  ASP154      0.2293
    162  O         73.3560   26.3290   -0.5760 O.2   154  ASP154     -0.2864
    163  CB        75.6140   28.4300    0.6330 C.3   154  ASP154      0.1436
    164  CG        76.0480   27.0460    1.0400 C.2   154  ASP154      0.3671
    165  OD1       75.3690   26.4210    1.8400 O.co2 154  ASP154     -0.2456
    166  OD2       77.0870   26.5890    0.5680 O.co2 154  ASP154     -0.2456
@<TRIPOS>BOND
     1    54    53    2
     2    53    52    1
     3    84    82   ar
     4    82    81    1
     5    82    83   ar
     6    51    52    1
     7    81    80    1
     8    52    55    1
     9    62    63    2
    10    62    61    1
    11    68    69    1
    12    69    70    1
    13    69    72    1
    14    76    70   am
    15    76    77    1
    16    80    77    1
    17    75    73    1
    18    55    56    1
    19    70    71    2
    20    77    78    1
    21    61    60    1
    22    61    64    1
    23    73    72    1
    24    73    74    1
    25    56    57    1
    26    66    64    1
    27    78    85   am
    28    78    79    2
    29    64    65    1
    30    40    39    2
    31    57    58   ar
    32    57    59   ar
    33    85    86    1
    34    45    44    2
    35    65    67    1
    36    37    38    1
    37    39    38    1
    38    42    43    1
    39    88    87    2
    40    44    43    1
    41    86    87    1
    42    86    89    1
    43    38    41    1
    44    87    96   am
    45    46    43    1
    46    46    47    1
    47   101   102    1
    48   101   100    1
    49    48    47    1
    50    48    49    1
    51    96   102    1
    52    96    97    1
    53    89    90    1
    54    97   100    1
    55    97    98    1
    56   161   162    2
    57   161   160    1
    58    50    49    1
    59   154   153    2
    60   152   151    1
    61   152   153    1
    62   152   155    1
    63   153   159   am
    64    95    93    1
    65   160   159    1
    66   160   163    1
    67   157   155    1
    68    90    91    1
    69    92    93    2
    70    92    91    1
    71    98    99    2
    72    93    94    1
    73   155   156    1
    74   166   164   ar
    75   163   164    1
    76   164   165   ar
    77    22    21    2
    78   156   158    1
    79   149   148    1
    80    35    34    1
    81   138   137    2
    82    36    34    1
    83   146   145    2
    84    21    20    1
    85   148   147    1
    86   148   150    1
    87   147   144    1
    88    31    34    1
    89    31    32    1
    90    31    30    1
    91    20    23    1
    92    20    19    1
    93    23    24    1
    94   143   144    1
    95   109   107    1
    96    32    33    2
    97   145   144    1
    98   137   136    1
    99   139   140    1
   100   139   136    1
   101     7     6    1
   102    25    24   ar
   103    25    27   ar
   104   140   142   am
   105   140   141    2
   106   107   108    1
   107   107   104    1
   108   136   135    1
   109    24    26   ar
   110    27    29   ar
   111   104   103    1
   112   104   105    1
   113     6     5    1
   114     6     8    1
   115    26    28   ar
   116   135   128   am
   117     5     2    1
   118   129   128    2
   119    29    28   ar
   120   128   127    1
   121   105   106    2
   122    12    11    2
   123     1     2    1
   124     2     3    1
   125   111   114    1
   126   111   110    1
   127   111   112    1
   128    14    17    1
   129    14    13    1
   130    14    15    1
   131    11    13   am
   132    11    10    1
   133   114   115    1
   134    17    18    1
   135     9     3   am
   136     9    10    1
   137     3     4    2
   138   127   126    1
   139   127   130    1
   140    15    16    2
   141   112   113    2
   142   130   131    1
   143   131   132    1
   144   115   117   ar
   145   115   116   ar
   146   133   132   ar
   147   132   134   ar
   148   125   123   ar
   149   118   119    1
   150   123   122    1
   151   123   124   ar
   152   122   119    1
   153   119   120    1
   154   120   121    2
