@<TRIPOS>MOLECULE
tmp/4iacA00.pdb
 208 197 0 0 0
SMALL
GASTEIGER

@<TRIPOS>ATOM
      1  N         -6.4110    3.0240   -7.9010 N.3    35  LEU35      -0.1231
      2  CA        -6.8360    2.7820   -9.2760 C.3    35  LEU35       0.1693
      3  C         -5.7410    3.2100  -10.2500 C.2    35  LEU35       0.2593
      4  O         -5.7440    2.8170  -11.4160 O.2    35  LEU35      -0.2718
      5  CB        -8.1310    3.5410   -9.5800 C.3    35  LEU35       0.0284
      6  CG        -9.3440    3.1870   -8.7170 C.3    35  LEU35       0.0019
      7  CD1      -10.4840    4.1520   -9.0000 C.3    35  LEU35       0.0001
      8  CD2       -9.7800    1.7470   -8.9660 C.3    35  LEU35       0.0001
      9  N         -4.8080    4.0180   -9.7580 N.am   36  GLY36      -0.1942
     10  CA        -3.7110    4.4920  -10.5840 C.3    36  GLY36       0.2014
     11  C         -2.8170    5.4650   -9.8340 C.2    36  GLY36       0.2640
     12  O         -3.2590    6.1270   -8.8910 O.2    36  GLY36      -0.2714
     13  N         -1.5580    5.5560  -10.2480 N.am   37  THR37      -0.1936
     14  CA        -0.6120    6.4600   -9.6040 C.3    37  THR37       0.2028
     15  C         -0.1020    7.5190  -10.5810 C.2    37  THR37       0.2643
     16  O         -0.0860    7.3040  -11.7950 O.2    37  THR37      -0.2714
     17  CB         0.5560    5.6790   -8.9950 C.3    37  THR37       0.1808
     18  OG1        1.2680    4.9620   -9.9890 O.3    37  THR37      -0.2208
     19  CG2        0.1340    4.6950   -7.9220 C.3    37  THR37       0.0379
     20  N          0.3080    8.6650  -10.0420 N.am   38  GLY38      -0.1939
     21  CA         0.8050    9.7430  -10.8750 C.3    38  GLY38       0.2014
     22  C          2.0540   10.3780  -10.3020 C.2    38  GLY38       0.2640
     23  O          2.5890    9.9120   -9.2970 O.2    38  GLY38      -0.2714
     24  N          2.5220   11.4420  -10.9470 N.am   39  SER39      -0.1935
     25  CA         3.7260   12.1480  -10.5150 C.3    39  SER39       0.2055
     26  C          3.6040   12.8190   -9.1520 C.2    39  SER39       0.2643
     27  O          4.5920   12.9380   -8.4250 O.2    39  SER39      -0.2714
     28  CB         4.1460   13.1890  -11.5590 C.3    39  SER39       0.2130
     29  OG         4.3470   12.5950  -12.8320 O.3    39  SER39      -0.2179
     30  N          2.4050   13.2790   -8.8130 N.am   40  PHE40      -0.1959
     31  CA         2.2070   13.9630   -7.5400 C.3    40  PHE40       0.1771
     32  C          1.3140   13.2270   -6.5640 C.2    40  PHE40       0.2620
     33  O          0.9280   13.7790   -5.5350 O.2    40  PHE40      -0.2715
     34  CB         1.6980   15.3880   -7.7670 C.3    40  PHE40       0.0574
     35  CG         2.5610   16.1850   -8.6930 C.ar   40  PHE40      -0.0200
     36  CD1        3.8860   16.4390   -8.3760 C.ar   40  PHE40      -0.0042
     37  CD2        2.0620   16.6530   -9.8930 C.ar   40  PHE40      -0.0042
     38  CE1        4.7000   17.1470   -9.2390 C.ar   40  PHE40      -0.0003
     39  CE2        2.8620   17.3650  -10.7620 C.ar   40  PHE40      -0.0003
     40  CZ         4.1870   17.6110  -10.4350 C.ar   40  PHE40      -0.0000
     41  N          0.9930   11.9770   -6.8740 N.am   41  GLY41      -0.1954
     42  CA         0.1460   11.2210   -5.9730 C.3    41  GLY41       0.1869
     43  C         -0.5030   10.0080   -6.5990 C.2    41  GLY41       0.2309
     44  O          0.1580    9.2110   -7.2570 O.2    41  GLY41      -0.2863
     45  N         -4.7280    7.9590   -7.4930 N.3    43  VAL43      -0.1245
     46  CA        -6.1810    7.9800   -7.5630 C.3    43  VAL43       0.1561
     47  C         -6.6410    6.7090   -6.8730 C.2    43  VAL43       0.2260
     48  O         -6.1690    5.6170   -7.1900 O.2    43  VAL43      -0.2867
     49  CB        -6.6790    7.9830   -9.0100 C.3    43  VAL43       0.0252
     50  CG1       -8.2020    7.8650   -9.0470 C.3    43  VAL43       0.0019
     51  CG2       -6.2130    9.2450   -9.7190 C.3    43  VAL43       0.0019
     52  N        -13.8520    8.1190   -7.0410 N.3    56  ALA56      -0.1245
     53  CA       -12.4290    7.9870   -7.3200 C.3    56  ALA56       0.1562
     54  C        -11.7850    9.2460   -6.7580 C.2    56  ALA56       0.2260
     55  O        -12.1130   10.3610   -7.1710 O.2    56  ALA56      -0.2867
     56  CB       -12.1730    7.8730   -8.8120 C.3    56  ALA56       0.0290
     57  N         -8.5720   11.5320   -6.3050 N.3    58  LYS58      -0.1245
     58  CA        -7.2400   11.8400   -6.8050 C.3    58  LYS58       0.1561
     59  C         -6.5380   12.6230   -5.7100 C.2    58  LYS58       0.2260
     60  O         -7.0500   13.6310   -5.2190 O.2    58  LYS58      -0.2867
     61  CB        -7.3040   12.6690   -8.0870 C.3    58  LYS58       0.0271
     62  CG        -5.9490   12.8560   -8.7770 C.3    58  LYS58       0.0035
     63  CD        -6.1030   13.5630  -10.1210 C.3    58  LYS58       0.0206
     64  CE        -4.8200   13.5110  -10.9430 C.3    58  LYS58       0.1093
     65  NZ        -5.0220   14.0780  -12.3120 N.3    58  LYS58      -0.1314
     66  N         -3.1850   14.7100   -4.4190 N.3    60  LEU60      -0.1245
     67  CA        -2.0090   15.4720   -4.8350 C.3    60  LEU60       0.1561
     68  C         -1.2120   15.9760   -3.6340 C.2    60  LEU60       0.2260
     69  O         -1.7720   16.5750   -2.7110 O.2    60  LEU60      -0.2867
     70  CB        -2.4040   16.6760   -5.6950 C.3    60  LEU60       0.0270
     71  CG        -3.2340   16.4790   -6.9630 C.3    60  LEU60       0.0019
     72  CD1       -2.6320   15.4100   -7.8490 C.3    60  LEU60       0.0001
     73  CD2       -4.6980   16.1900   -6.6460 C.3    60  LEU60       0.0001
     74  N        -16.0740   13.3260  -16.8270 N.3    90  VAL90      -0.1245
     75  CA       -16.2830   12.8080  -15.4870 C.3    90  VAL90       0.1561
     76  C        -16.6410   13.9850  -14.5900 C.2    90  VAL90       0.2260
     77  O        -16.1300   15.0880  -14.7660 O.2    90  VAL90      -0.2867
     78  CB       -15.0440   12.0730  -14.9470 C.3    90  VAL90       0.0252
     79  CG1      -13.8750   13.0310  -14.7850 C.3    90  VAL90       0.0019
     80  CG2      -15.3650   11.3810  -13.6310 C.3    90  VAL90       0.0019
     81  N        -13.9880   12.4340   -7.6920 N.3   106  MET106     -0.1230
     82  CA       -14.7940   12.2650   -8.8950 C.3   106  MET106      0.1702
     83  C        -15.7320   11.0660   -8.8170 C.2   106  MET106      0.2592
     84  O        -15.5490   10.1530   -8.0030 O.2   106  MET106     -0.2718
     85  CB       -13.8800   12.0280  -10.0960 C.3   106  MET106      0.0401
     86  CG       -12.8300   13.0910  -10.3180 C.3   106  MET106      0.0596
     87  SD       -11.6020   12.5020  -11.4870 S.3   106  MET106     -0.1393
     88  CE       -10.4070   11.7420  -10.3550 C.3   106  MET106      0.0692
     89  N        -16.6980   11.0490   -9.7260 N.am  107  GLU107     -0.1966
     90  CA       -17.6310    9.9420   -9.8270 C.3   107  GLU107      0.1733
     91  C        -16.7700    8.7600  -10.2610 C.2   107  GLU107      0.2616
     92  O        -15.8490    8.9260  -11.0690 O.2   107  GLU107     -0.2715
     93  CB       -18.6470   10.2480  -10.9250 C.3   107  GLU107      0.0429
     94  CG       -19.9080    9.4090  -10.8800 C.3   107  GLU107      0.1163
     95  CD       -20.9300    9.8820  -11.8950 C.2   107  GLU107      0.3649
     96  OE1      -21.0200    9.2710  -12.9830 O.co2 107  GLU107     -0.2457
     97  OE2      -21.6140   10.8910  -11.6160 O.co2 107  GLU107     -0.2457
     98  N        -17.0570    7.5780   -9.7220 N.am  108  TYR108     -0.1960
     99  CA       -16.2910    6.3770  -10.0510 C.3   108  TYR108      0.1771
    100  C        -16.7340    5.7000  -11.3520 C.2   108  TYR108      0.2619
    101  O        -17.8820    5.2730  -11.4800 O.2   108  TYR108     -0.2715
    102  CB       -16.3590    5.3860   -8.8870 C.3   108  TYR108      0.0574
    103  CG       -15.6660    4.0670   -9.1460 C.ar  108  TYR108     -0.0198
    104  CD1      -14.3230    4.0240   -9.5030 C.ar  108  TYR108     -0.0009
    105  CD2      -16.3520    2.8660   -9.0230 C.ar  108  TYR108     -0.0009
    106  CE1      -13.6800    2.8210   -9.7330 C.ar  108  TYR108      0.0417
    107  CE2      -15.7180    1.6530   -9.2510 C.ar  108  TYR108      0.0417
    108  CZ       -14.3800    1.6410   -9.6060 C.ar  108  TYR108      0.1957
    109  OH       -13.7410    0.4480   -9.8310 O.3   108  TYR108     -0.2866
    110  N        -15.8200    5.5900  -12.3120 N.am  109  VAL109     -0.1977
    111  CA       -16.1280    4.9430  -13.5850 C.3   109  VAL109      0.1596
    112  C        -15.5510    3.5280  -13.5410 C.2   109  VAL109      0.2287
    113  O        -14.3730    3.3150  -13.8220 O.2   109  VAL109     -0.2864
    114  CB       -15.5470    5.7240  -14.7800 C.3   109  VAL109      0.0276
    115  CG1      -16.0880    5.1720  -16.0870 C.3   109  VAL109      0.0022
    116  CG2      -15.8690    7.2060  -14.6450 C.3   109  VAL109      0.0022
    117  N        -10.1100    1.7430  -17.9360 N.3   113  GLU113     -0.1245
    118  CA        -9.5650    2.5640  -19.0130 C.3   113  GLU113      0.1567
    119  C         -9.8370    1.9470  -20.3810 C.2   113  GLU113      0.2260
    120  O         -9.8260    0.7200  -20.5360 O.2   113  GLU113     -0.2867
    121  CB        -8.0390    2.6760  -18.8660 C.3   113  GLU113      0.0388
    122  CG        -7.5310    3.3770  -17.6170 C.3   113  GLU113      0.1160
    123  CD        -6.0240    3.2210  -17.4470 C.2   113  GLU113      0.3649
    124  OE1       -5.3790    2.6610  -18.3610 O.co2 113  GLU113     -0.2457
    125  OE2       -5.4800    3.6590  -16.4080 O.co2 113  GLU113     -0.2457
    126  N         -4.2990   16.2700  -23.0960 N.3   151  ASP151     -0.1239
    127  CA        -3.7780   14.9690  -22.7100 C.3   151  ASP151      0.1674
    128  C         -4.6660   13.8210  -23.1500 C.2   151  ASP151      0.2266
    129  O         -4.9030   12.8730  -22.3970 O.2   151  ASP151     -0.2867
    130  CB        -3.3800   14.8910  -21.2320 C.3   151  ASP151      0.1410
    131  CG        -2.4220   13.7300  -20.9500 C.2   151  ASP151      0.3668
    132  OD1       -1.7030   13.3000  -21.8820 O.co2 151  ASP151     -0.2456
    133  OD2       -2.3670   13.2600  -19.8010 O.co2 151  ASP151     -0.2456
    134  N         -5.7020   10.4890  -24.5550 N.3   153  LYS153     -0.1245
    135  CA        -5.0720    9.1790  -24.6560 C.3   153  LYS153      0.1561
    136  C         -6.0070    8.1530  -24.0270 C.2   153  LYS153      0.2260
    137  O         -6.8170    8.4960  -23.1610 O.2   153  LYS153     -0.2867
    138  CB        -3.7000    9.1570  -23.9730 C.3   153  LYS153      0.0271
    139  CG        -3.7350    9.4230  -22.4830 C.3   153  LYS153      0.0035
    140  CD        -2.3330    9.4880  -21.9020 C.3   153  LYS153      0.0206
    141  CE        -2.3700    9.8130  -20.4080 C.3   153  LYS153      0.1093
    142  NZ        -1.0110   10.0780  -19.8690 N.3   153  LYS153     -0.1314
    143  N         -5.5740    5.9660  -21.8510 N.3   155  GLU155     -0.1231
    144  CA        -5.3960    5.8850  -20.4010 C.3   155  GLU155      0.1699
    145  C         -6.2600    6.8910  -19.6190 C.2   155  GLU155      0.2592
    146  O         -6.5280    6.7010  -18.4240 O.2   155  GLU155     -0.2718
    147  CB        -3.9150    6.0530  -20.0270 C.3   155  GLU155      0.0402
    148  CG        -2.9830    4.9690  -20.5930 C.3   155  GLU155      0.1161
    149  CD        -2.3350    5.3550  -21.9150 C.2   155  GLU155      0.3649
    150  OE1       -3.0430    5.8800  -22.8040 O.co2 155  GLU155     -0.2457
    151  OE2       -1.1160    5.1100  -22.0730 O.co2 155  GLU155     -0.2457
    152  N         -6.6870    7.9600  -20.2880 N.am  156  ASN156     -0.1974
    153  CA        -7.5150    8.9920  -19.6550 C.3   156  ASN156      0.1688
    154  C         -8.9810    8.8540  -20.0260 C.2   156  ASN156      0.2292
    155  O         -9.8170    9.6570  -19.6020 O.2   156  ASN156     -0.2864
    156  CB        -7.0340   10.4040  -20.0230 C.3   156  ASN156      0.1181
    157  CG        -5.7230   10.7520  -19.3670 C.2   156  ASN156      0.2629
    158  OD1       -5.3580   10.1390  -18.3790 O.2   156  ASN156     -0.2716
    159  ND2       -5.0210   11.7500  -19.8950 N.am  156  ASN156     -0.0877
    160  N        -12.2750    6.6090  -19.7720 N.3   158  LEU158     -0.1245
    161  CA       -12.9170    5.5360  -19.0250 C.3   158  LEU158      0.1561
    162  C        -14.2400    5.1320  -19.6570 C.2   158  LEU158      0.2260
    163  O        -14.9360    5.9590  -20.2370 O.2   158  LEU158     -0.2867
    164  CB       -13.1520    5.9860  -17.5840 C.3   158  LEU158      0.0270
    165  CG       -11.8830    6.5030  -16.9020 C.3   158  LEU158      0.0019
    166  CD1      -12.1870    7.1290  -15.5630 C.3   158  LEU158      0.0001
    167  CD2      -10.8650    5.3960  -16.7500 C.3   158  LEU158      0.0001
    168  N        -11.3040   11.7960  -18.0890 N.3   168  THR168     -0.1203
    169  CA       -10.7670   12.1550  -16.7860 C.3   168  THR168      0.1994
    170  C         -9.4120   12.8060  -17.0350 C.2   168  THR168      0.2617
    171  O         -9.0020   12.9790  -18.1890 O.2   168  THR168     -0.2717
    172  CB       -10.6170   10.9030  -15.9030 C.3   168  THR168      0.1784
    173  OG1      -10.3600   11.2470  -14.5490 O.3   168  THR168     -0.2211
    174  CG2       -9.5250    9.9600  -16.3550 C.3   168  THR168      0.0376
    175  N         -8.7230   13.1580  -15.9560 N.am  169  ASP169     -0.1973
    176  CA        -7.4090   13.7830  -16.0290 C.3   169  ASP169      0.1709
    177  C         -7.3330   15.1200  -16.7770 C.2   169  ASP169      0.2293
    178  O         -6.8700   15.1910  -17.9170 O.2   169  ASP169     -0.2864
    179  CB        -6.3620   12.8040  -16.5610 C.3   169  ASP169      0.1436
    180  CG        -4.9480   13.3000  -16.3410 C.2   169  ASP169      0.3671
    181  OD1       -4.7840   14.3980  -15.7700 O.co2 169  ASP169     -0.2456
    182  OD2       -3.9950   12.5980  -16.7280 O.co2 169  ASP169     -0.2456
    183  N         -5.4430   17.3620  -15.8900 N.3   171  GLY171     -0.1210
    184  CA        -4.1610   17.8670  -15.4320 C.3   171  GLY171      0.1956
    185  C         -3.5600   18.9720  -16.2760 C.2   171  GLY171      0.2611
    186  O         -2.9520   19.8940  -15.7410 O.2   171  GLY171     -0.2717
    187  N         -3.7120   18.8860  -17.5930 N.am  172  PHE172     -0.1976
    188  CA        -3.1460   19.9030  -18.4700 C.3   172  PHE172      0.1639
    189  C         -4.1860   20.8020  -19.1250 C.2   172  PHE172      0.2290
    190  O         -3.8560   21.5870  -20.0170 O.2   172  PHE172     -0.2864
    191  CB        -2.2390   19.2740  -19.5330 C.3   172  PHE172      0.0560
    192  CG        -1.0660   18.5100  -18.9670 C.ar  172  PHE172     -0.0200
    193  CD1       -0.3960   18.9640  -17.8420 C.ar  172  PHE172     -0.0042
    194  CD2       -0.6230   17.3470  -19.5750 C.ar  172  PHE172     -0.0042
    195  CE1        0.6920   18.2680  -17.3320 C.ar  172  PHE172     -0.0003
    196  CE2        0.4630   16.6470  -19.0700 C.ar  172  PHE172     -0.0003
    197  CZ         1.1200   17.1110  -17.9450 C.ar  172  PHE172     -0.0000
    198  N         -9.5010   -2.7200  -13.5570 N.3   311  PHE311     -0.1241
    199  CA        -8.2890   -1.9140  -13.3740 C.3   311  PHE311      0.1605
    200  C         -7.1240   -2.7900  -12.9140 C.2   311  PHE311      0.2264
    201  O         -7.3230   -3.7370  -12.1510 O.2   311  PHE311     -0.2867
    202  CB        -8.5330   -0.8550  -12.2870 C.3   311  PHE311      0.0534
    203  CG        -9.5410    0.1900  -12.6660 C.ar  311  PHE311     -0.0203
    204  CD1       -9.1430    1.3650  -13.2920 C.ar  311  PHE311     -0.0042
    205  CD2      -10.8910   -0.0090  -12.4160 C.ar  311  PHE311     -0.0042
    206  CE1      -10.0720    2.3200  -13.6600 C.ar  311  PHE311     -0.0003
    207  CE2      -11.8250    0.9420  -12.7780 C.ar  311  PHE311     -0.0003
    208  CZ       -11.4170    2.1070  -13.4020 C.ar  311  PHE311     -0.0000
@<TRIPOS>BOND
     1   135   134    1
     2   135   136    1
     3   135   138    1
     4   136   137    2
     5   138   139    1
     6   128   127    1
     7   128   129    2
     8   126   127    1
     9   150   149   ar
    10   127   130    1
    11   139   140    1
    12   151   149   ar
    13   149   148    1
    14   140   141    1
    15   132   131   ar
    16   143   144    1
    17   130   131    1
    18   131   133   ar
    19   148   147    1
    20   120   119    2
    21   141   142    1
    22   144   147    1
    23   144   145    1
    24   119   118    1
    25   152   153    1
    26   152   145   am
    27   163   162    2
    28   154   153    1
    29   154   155    2
    30   156   153    1
    31   156   157    1
    32   190   189    2
    33   159   157   am
    34   160   161    1
    35   162   161    1
    36   145   146    2
    37   194   196   ar
    38   194   192   ar
    39   191   192    1
    40   191   188    1
    41   157   158    2
    42   189   188    1
    43   196   197   ar
    44   161   164    1
    45   118   121    1
    46   118   117    1
    47   192   193   ar
    48   121   122    1
    49   188   187    1
    50   124   123   ar
    51   171   170    2
    52   168   169    1
    53   197   195   ar
    54   178   177    2
    55   193   195   ar
    56   122   123    1
    57   187   185   am
    58   164   165    1
    59   123   125   ar
    60   170   169    1
    61   170   175   am
    62   165   167    1
    63   165   166    1
    64    74    75    1
    65   169   172    1
    66   177   176    1
    67   182   180   ar
    68   179   180    1
    69   179   176    1
    70   174   172    1
    71   180   181   ar
    72   185   186    2
    73   185   184    1
    74   115   114    1
    75   176   175    1
    76   172   173    1
    77   183   184    1
    78    75    78    1
    79    75    76    1
    80    78    79    1
    81    78    80    1
    82   114   116    1
    83   114   111    1
    84    77    76    2
    85   113   112    2
    86   206   208   ar
    87   206   204   ar
    88   111   112    1
    89   111   110    1
    90   198   199    1
    91   208   207   ar
    92   199   200    1
    93   199   202    1
    94   204   203   ar
    95    96    95   ar
    96   200   201    2
    97    29    28    1
    98   207   205   ar
    99   203   205   ar
   100   203   202    1
   101    65    64    1
   102   110   100   am
   103    95    97   ar
   104    95    94    1
   105    16    15    2
   106    28    25    1
   107    87    88    1
   108    87    86    1
   109   101   100    2
   110     4     3    2
   111   100    99    1
   112    92    91    2
   113    24    25    1
   114    24    22   am
   115    64    63    1
   116    93    94    1
   117    93    90    1
   118    21    22    1
   119    21    20    1
   120    39    40   ar
   121    39    37   ar
   122    10    11    1
   123    10     9    1
   124    15    20   am
   125    15    14    1
   126    25    26    1
   127    40    38   ar
   128    86    85    1
   129    22    23    2
   130    91    90    1
   131    91    98   am
   132     3     9   am
   133     3     2    1
   134    13    11   am
   135    13    14    1
   136    63    62    1
   137    85    82    1
   138    99    98    1
   139    99   102    1
   140    18    17    1
   141    37    35   ar
   142    11    12    2
   143   109   108    1
   144    90    89    1
   145   106   108   ar
   146   106   104   ar
   147    89    83   am
   148    51    49    1
   149   108   107   ar
   150    14    17    1
   151     5     2    1
   152     5     6    1
   153   104   103   ar
   154     2     1    1
   155   107   105   ar
   156    38    36   ar
   157    26    30   am
   158    26    27    2
   159   103   105   ar
   160   103   102    1
   161    50    49    1
   162    49    46    1
   163     7     6    1
   164    17    19    1
   165     8     6    1
   166    82    83    1
   167    82    81    1
   168    83    84    2
   169    30    31    1
   170    56    53    1
   171    62    61    1
   172    35    36   ar
   173    35    34    1
   174    61    58    1
   175    72    71    1
   176    34    31    1
   177    46    45    1
   178    46    47    1
   179    31    32    1
   180    53    52    1
   181    53    54    1
   182    44    43    2
   183    48    47    2
   184    55    54    2
   185    71    73    1
   186    71    70    1
   187    41    32   am
   188    41    42    1
   189    58    57    1
   190    58    59    1
   191    43    42    1
   192    32    33    2
   193    59    60    2
   194    70    67    1
   195    67    66    1
   196    67    68    1
   197    68    69    2
