@<TRIPOS>MOLECULE
tmp/4iaqA00.pdb
 247 239 0 0 0
SMALL
GASTEIGER

@<TRIPOS>ATOM
      1  N        -20.2790   13.4430    8.9780 N.3    72  TYR72      -0.1241
      2  CA       -20.0680   14.3040   10.1420 C.3    72  TYR72       0.1605
      3  C        -18.6030   14.2940   10.6290 C.2    72  TYR72       0.2264
      4  O        -18.0830   15.3590   10.9490 O.2    72  TYR72      -0.2867
      5  CB       -21.0390   13.9040   11.2730 C.3    72  TYR72       0.0534
      6  CG       -21.1360   14.8770   12.4350 C.ar   72  TYR72      -0.0201
      7  CD1      -21.4120   16.2260   12.2230 C.ar   72  TYR72      -0.0009
      8  CD2      -21.0390   14.4320   13.7540 C.ar   72  TYR72      -0.0009
      9  CE1      -21.5280   17.1160   13.2890 C.ar   72  TYR72       0.0417
     10  CE2      -21.1580   15.3130   14.8280 C.ar   72  TYR72       0.0417
     11  CZ       -21.4120   16.6530   14.5910 C.ar   72  TYR72       0.1957
     12  OH       -21.5330   17.5260   15.6460 O.3    72  TYR72      -0.2866
     13  N        -30.8340    9.8890   14.7670 N.3    88  TRP88      -0.1227
     14  CA       -29.4790    9.3350   14.6140 C.3    88  TRP88       0.1737
     15  C        -28.7670    9.1620   15.9730 C.2    88  TRP88       0.2595
     16  O        -28.1250    8.1340   16.1820 O.2    88  TRP88      -0.2718
     17  CB       -28.6270   10.2030   13.6700 C.3    88  TRP88       0.0564
     18  CG       -27.1930    9.7670   13.5220 C.ar   88  TRP88       0.0003
     19  CD1      -26.7280    8.6970   12.8140 C.ar   88  TRP88       0.0946
     20  CD2      -26.0330   10.4440   14.0360 C.ar   88  TRP88       0.0152
     21  NE1      -25.3510    8.6610   12.8560 N.ar   88  TRP88      -0.2442
     22  CE2      -24.8990    9.7060   13.6220 C.ar   88  TRP88       0.0810
     23  CE3      -25.8410   11.6020   14.8160 C.ar   88  TRP88       0.0012
     24  CZ2      -23.5930   10.0900   13.9550 C.ar   88  TRP88       0.0191
     25  CZ3      -24.5480   11.9790   15.1450 C.ar   88  TRP88       0.0001
     26  CH2      -23.4420   11.2290   14.7170 C.ar   88  TRP88       0.0015
     27  N        -28.8610   10.1560   16.8760 N.am   89  LEU89      -0.1980
     28  CA       -28.2160   10.0690   18.1840 C.3    89  LEU89       0.1596
     29  C        -28.8120    8.9370   19.0170 C.2    89  LEU89       0.2287
     30  O        -28.0660    8.1890   19.6550 O.2    89  LEU89      -0.2864
     31  CB       -28.3270   11.3890   18.9590 C.3    89  LEU89       0.0297
     32  CG       -27.4590   12.5540   18.5120 C.3    89  LEU89       0.0022
     33  CD1      -27.9380   13.8260   19.1680 C.3    89  LEU89       0.0001
     34  CD2      -25.9820   12.3320   18.8410 C.3    89  LEU89       0.0001
     35  N        -28.0030    5.5830   17.5700 N.3    92  ASP92      -0.1225
     36  CA       -26.6020    5.2770   17.8980 C.3    92  ASP92       0.1805
     37  C        -26.5370    4.6070   19.2610 C.2    92  ASP92       0.2597
     38  O        -25.9990    3.5050   19.3760 O.2    92  ASP92      -0.2718
     39  CB       -25.7280    6.5500   17.8960 C.3    92  ASP92       0.1424
     40  CG       -24.2160    6.3570   18.0080 C.2    92  ASP92       0.3668
     41  OD1      -23.4720    7.1990   17.4710 O.co2  92  ASP92      -0.2456
     42  OD2      -23.7790    5.3850   18.6590 O.co2  92  ASP92      -0.2456
     43  N        -27.1090    5.2660   20.2780 N.am   93  ILE93      -0.1980
     44  CA       -27.0990    4.7980   21.6550 C.3    93  ILE93       0.1595
     45  C        -27.7670    3.4140   21.7660 C.2    93  ILE93       0.2287
     46  O        -27.1350    2.5230   22.3260 O.2    93  ILE93      -0.2864
     47  CB       -27.7200    5.8480   22.6320 C.3    93  ILE93       0.0276
     48  CG1      -26.8640    7.1190   22.6700 C.3    93  ILE93       0.0022
     49  CG2      -27.8670    5.2790   24.0390 C.3    93  ILE93       0.0022
     50  CD1      -27.5810    8.4000   23.0870 C.3    93  ILE93       0.0001
     51  N        -25.6760    0.4480   19.7250 N.3    96  CYS96      -0.1221
     52  CA       -24.3580    0.1780   20.2880 C.3    96  CYS96       0.1808
     53  C        -24.4640   -0.4620   21.6550 C.2    96  CYS96       0.2601
     54  O        -23.6610   -1.3500   21.9270 O.2    96  CYS96      -0.2717
     55  CB       -23.4920    1.4310   20.3180 C.3    96  CYS96       0.0970
     56  SG       -23.0580    2.0750   18.6740 S.3    96  CYS96      -0.0800
     57  N        -25.4750   -0.0730   22.4850 N.am   97  THR97      -0.1953
     58  CA       -25.7320   -0.6600   23.8190 C.3    97  THR97       0.1897
     59  C        -26.2390   -2.1250   23.6770 C.2    97  THR97       0.2313
     60  O        -25.8110   -2.9980   24.4360 O.2    97  THR97      -0.2863
     61  CB       -26.7380    0.2030   24.6030 C.3    97  THR97       0.1794
     62  OG1      -26.2800    1.5520   24.6170 O.3    97  THR97      -0.2208
     63  CG2      -26.9600   -0.2810   26.0380 C.3    97  THR97       0.0378
     64  N        -23.4580   -4.5160   22.7560 N.3   100  ILE100     -0.1245
     65  CA       -22.7150   -4.7920   23.9830 C.3   100  ILE100      0.1561
     66  C        -23.5270   -5.7450   24.8570 C.2   100  ILE100      0.2260
     67  O        -22.9670   -6.7220   25.3360 O.2   100  ILE100     -0.2867
     68  CB       -22.3530   -3.4820   24.7420 C.3   100  ILE100      0.0252
     69  CG1      -21.2690   -2.6600   24.0020 C.3   100  ILE100      0.0019
     70  CG2      -21.9380   -3.7770   26.1820 C.3   100  ILE100      0.0019
     71  CD1      -21.2830   -1.1260   24.3170 C.3   100  ILE100      0.0001
     72  N        -32.5150    3.7520   27.1360 N.3   143  ILE143     -0.1245
     73  CA       -31.3330    4.5300   27.5120 C.3   143  ILE143      0.1561
     74  C        -31.3210    5.8380   26.7190 C.2   143  ILE143      0.2260
     75  O        -31.1550    6.8900   27.3120 O.2   143  ILE143     -0.2867
     76  CB       -30.0060    3.7180   27.4020 C.3   143  ILE143      0.0252
     77  CG1      -29.9580    2.5780   28.4430 C.3   143  ILE143      0.0019
     78  CG2      -28.7500    4.5920   27.5240 C.3   143  ILE143      0.0019
     79  CD1      -30.4200    2.9230   29.9130 C.3   143  ILE143      0.0001
     80  N        -24.3770   18.2410   16.1380 N.3   156  CYS156     -0.1221
     81  CA       -25.2230   17.1660   16.6370 C.3   156  CYS156      0.1808
     82  C        -24.4500   16.3740   17.7050 C.2   156  CYS156      0.2601
     83  O        -23.5180   15.6430   17.3690 O.2   156  CYS156     -0.2717
     84  CB       -25.6890   16.2800   15.4880 C.3   156  CYS156      0.0970
     85  SG       -26.9710   15.0780   15.9290 S.3   156  CYS156     -0.0800
     86  N        -24.7890   16.5960   18.9940 N.am  157  VAL157     -0.1965
     87  CA       -24.1720   15.9310   20.1510 C.3   157  VAL157      0.1727
     88  C        -25.2440   15.5370   21.1810 C.2   157  VAL157      0.2616
     89  O        -26.2960   16.1790   21.2540 O.2   157  VAL157     -0.2715
     90  CB       -23.0350   16.7480   20.8290 C.3   157  VAL157      0.0290
     91  CG1      -21.7370   16.6650   20.0400 C.3   157  VAL157      0.0023
     92  CG2      -23.4390   18.1980   21.0670 C.3   157  VAL157      0.0023
     93  N        -24.9670   14.4780   21.9760 N.am  158  VAL158     -0.1963
     94  CA       -25.8590   13.9920   23.0470 C.3   158  VAL158      0.1727
     95  C        -25.8410   15.0110   24.2110 C.2   158  VAL158      0.2616
     96  O        -24.8030   15.6170   24.5030 O.2   158  VAL158     -0.2715
     97  CB       -25.5230   12.5480   23.5370 C.3   158  VAL158      0.0290
     98  CG1      -26.6650   11.9500   24.3540 C.3   158  VAL158      0.0023
     99  CG2      -25.1620   11.6280   22.3750 C.3   158  VAL158      0.0023
    100  N        -27.0130   15.2160   24.8340 N.am  159  ASN159     -0.1958
    101  CA       -27.2240   16.1270   25.9620 C.3   159  ASN159      0.1819
    102  C        -26.3960   15.6730   27.1930 C.2   159  ASN159      0.2621
    103  O        -26.5170   14.5340   27.6600 O.2   159  ASN159     -0.2715
    104  CB       -28.7200   16.2000   26.2800 C.3   159  ASN159      0.1195
    105  CG       -29.0680   17.0500   27.4590 C.2   159  ASN159      0.2630
    106  OD1      -29.1820   16.5690   28.5880 O.2   159  ASN159     -0.2716
    107  ND2      -29.2870   18.3220   27.2110 N.am  159  ASN159     -0.0877
    108  N        -25.5300   16.5670   27.6750 N.am  160  THR160     -0.1951
    109  CA       -24.6360   16.3090   28.8080 C.3   160  THR160      0.1897
    110  C        -25.0800   17.1060   30.0860 C.2   160  THR160      0.2313
    111  O        -24.4510   16.9620   31.1400 O.2   160  THR160     -0.2863
    112  CB       -23.1650   16.5940   28.3880 C.3   160  THR160      0.1794
    113  OG1      -22.2970   16.5580   29.5280 O.3   160  THR160     -0.2208
    114  CG2      -22.9890   17.9180   27.6400 C.3   160  THR160      0.0378
    115  N        -27.3990   11.3910   34.6680 N.3   165  TYR165     -0.1227
    116  CA       -27.8010   10.5180   33.5690 C.3   165  TYR165      0.1736
    117  C        -26.5640   10.1130   32.7440 C.2   165  TYR165      0.2596
    118  O        -26.4490    8.9340   32.3990 O.2   165  TYR165     -0.2718
    119  CB       -28.9080   11.1170   32.6770 C.3   165  TYR165      0.0548
    120  CG       -29.0100   10.4140   31.3370 C.ar  165  TYR165     -0.0200
    121  CD1      -28.4240   10.9600   30.1970 C.ar  165  TYR165     -0.0009
    122  CD2      -29.5820    9.1460   31.2320 C.ar  165  TYR165     -0.0009
    123  CE1      -28.4430   10.2850   28.9780 C.ar  165  TYR165      0.0417
    124  CE2      -29.6020    8.4580   30.0190 C.ar  165  TYR165      0.0417
    125  CZ       -29.0290    9.0340   28.8940 C.ar  165  TYR165      0.1957
    126  OH       -29.0350    8.3910   27.6800 O.3   165  TYR165     -0.2866
    127  N        -25.6480   11.0690   32.4400 N.am  166  THR166     -0.1953
    128  CA       -24.4100   10.8070   31.6880 C.3   166  THR166      0.1897
    129  C        -23.6860    9.5580   32.2750 C.2   166  THR166      0.2313
    130  O        -23.3680    8.6320   31.5290 O.2   166  THR166     -0.2863
    131  CB       -23.4960   12.0560   31.6820 C.3   166  THR166      0.1794
    132  OG1      -24.2370   13.2170   31.2990 O.3   166  THR166     -0.2208
    133  CG2      -22.2880   11.9060   30.7670 C.3   166  THR166      0.0378
    134  N        -26.0500    6.2910   32.1150 N.3   169  SER169     -0.1202
    135  CA       -26.0120    5.7690   30.7490 C.3   169  SER169      0.2020
    136  C        -24.6760    5.0480   30.4470 C.2   169  SER169      0.2619
    137  O        -24.6520    4.0920   29.6700 O.2   169  SER169     -0.2717
    138  CB       -26.2350    6.8890   29.7420 C.3   169  SER169      0.2103
    139  OG       -25.0290    7.5970   29.5230 O.3   169  SER169     -0.2182
    140  N        -23.5790    5.5200   31.0620 N.am  170  THR170     -0.1952
    141  CA       -22.2310    4.9800   30.8970 C.3   170  THR170      0.1897
    142  C        -22.1220    3.6290   31.6590 C.2   170  THR170      0.2313
    143  O        -21.4060    2.7280   31.2200 O.2   170  THR170     -0.2863
    144  CB       -21.2190    6.0740   31.3220 C.3   170  THR170      0.1794
    145  OG1      -20.2640    6.3060   30.2920 O.3   170  THR170     -0.2208
    146  CG2      -20.5410    5.8140   32.6420 C.3   170  THR170      0.0378
    147  N        -24.7770    0.8740   29.8900 N.3   173  ALA173     -0.1245
    148  CA       -24.2940    0.5010   28.5670 C.3   173  ALA173      0.1562
    149  C        -22.8950   -0.1200   28.5580 C.2   173  ALA173      0.2260
    150  O        -22.5940   -0.8270   27.6040 O.2   173  ALA173     -0.2867
    151  CB       -24.3020    1.7100   27.6590 C.3   173  ALA173      0.0290
    152  N        -14.3490   -0.6400   23.0280 N.3   314  TRP314     -0.1241
    153  CA       -15.2790    0.1770   23.8170 C.3   314  TRP314      0.1605
    154  C        -14.7370    0.7790   25.1360 C.2   314  TRP314      0.2264
    155  O        -15.4040    1.6630   25.6700 O.2   314  TRP314     -0.2867
    156  CB       -16.5420   -0.6400   24.1470 C.3   314  TRP314      0.0550
    157  CG       -17.5080   -0.8080   23.0100 C.ar  314  TRP314      0.0003
    158  CD1      -17.9860   -1.9830   22.5040 C.ar  314  TRP314      0.0946
    159  CD2      -18.1410    0.2400   22.2610 C.ar  314  TRP314      0.0152
    160  NE1      -18.8710   -1.7320   21.4770 N.ar  314  TRP314     -0.2442
    161  CE2      -18.9810   -0.3760   21.3050 C.ar  314  TRP314      0.0810
    162  CE3      -18.0740    1.6450   22.2990 C.ar  314  TRP314      0.0012
    163  CZ2      -19.7670    0.3630   20.4190 C.ar  314  TRP314      0.0191
    164  CZ3      -18.8320    2.3700   21.3960 C.ar  314  TRP314      0.0001
    165  CH2      -19.6630    1.7300   20.4670 C.ar  314  TRP314      0.0015
    166  N        -13.4130    4.7660   24.6380 N.3   317  PHE317     -0.1227
    167  CA       -14.5770    5.6230   24.4550 C.3   317  PHE317      0.1736
    168  C        -15.3030    5.8760   25.7770 C.2   317  PHE317      0.2595
    169  O        -15.5370    7.0410   26.1150 O.2   317  PHE317     -0.2718
    170  CB       -15.5580    5.0630   23.4030 C.3   317  PHE317      0.0547
    171  CG       -16.7930    5.9320   23.2660 C.ar  317  PHE317     -0.0202
    172  CD1      -16.8130    7.0070   22.3870 C.ar  317  PHE317     -0.0042
    173  CD2      -17.9140    5.7140   24.0710 C.ar  317  PHE317     -0.0042
    174  CE1      -17.9370    7.8340   22.2990 C.ar  317  PHE317     -0.0003
    175  CE2      -19.0330    6.5530   23.9870 C.ar  317  PHE317     -0.0003
    176  CZ       -19.0360    7.6030   23.1020 C.ar  317  PHE317     -0.0000
    177  N        -15.6680    4.8080   26.5110 N.am  318  PHE318     -0.1976
    178  CA       -16.3930    4.9670   27.7730 C.3   318  PHE318      0.1639
    179  C        -15.5210    5.5110   28.8870 C.2   318  PHE318      0.2290
    180  O        -16.0720    6.1630   29.7700 O.2   318  PHE318     -0.2864
    181  CB       -17.1200    3.6960   28.2000 C.3   318  PHE318      0.0560
    182  CG       -18.3550    3.4920   27.3530 C.ar  318  PHE318     -0.0200
    183  CD1      -19.5120    4.2220   27.5960 C.ar  318  PHE318     -0.0042
    184  CD2      -18.3500    2.5960   26.2940 C.ar  318  PHE318     -0.0042
    185  CE1      -20.6400    4.0570   26.7940 C.ar  318  PHE318     -0.0003
    186  CE2      -19.4850    2.4180   25.5040 C.ar  318  PHE318     -0.0003
    187  CZ       -20.6170    3.1630   25.7460 C.ar  318  PHE318     -0.0000
    188  N        -15.6840    9.4410   27.8580 N.3   321  SER321     -0.1217
    189  CA       -17.0280   10.0170   28.0500 C.3   321  SER321      0.1889
    190  C        -17.4100   10.1840   29.5210 C.2   321  SER321      0.2288
    191  O        -18.4080   10.8450   29.8020 O.2   321  SER321     -0.2866
    192  CB       -18.0850    9.1770   27.3400 C.3   321  SER321      0.2089
    193  OG       -18.1670    7.8740   27.8850 O.3   321  SER321     -0.2183
    194  N        -14.7210   13.2790   30.3210 N.3   324  MET324     -0.1245
    195  CA       -15.3210   14.4360   29.6390 C.3   324  MET324      0.1570
    196  C        -16.0540   15.3540   30.6550 C.2   324  MET324      0.2261
    197  O        -15.6130   16.4950   30.7890 O.2   324  MET324     -0.2867
    198  CB       -16.2440   13.9370   28.5020 C.3   324  MET324      0.0387
    199  CG       -17.2940   14.9090   28.0260 C.3   324  MET324      0.0595
    200  SD       -18.7970   14.0000   27.6030 S.3   324  MET324     -0.1393
    201  CE       -19.8540   15.3480   27.2340 C.3   324  MET324      0.0692
    202  N        -11.1310   16.9870   20.1780 N.3   328  LEU328     -0.1245
    203  CA       -12.3080   16.4240   19.5110 C.3   328  LEU328      0.1561
    204  C        -11.9650   15.2490   18.5970 C.2   328  LEU328      0.2260
    205  O        -12.8270   14.3870   18.4070 O.2   328  LEU328     -0.2867
    206  CB       -13.0490   17.5050   18.7130 C.3   328  LEU328      0.0270
    207  CG       -13.6620   18.6390   19.5320 C.3   328  LEU328      0.0019
    208  CD1      -12.8000   19.8790   19.4540 C.3   328  LEU328      0.0001
    209  CD2      -15.0530   18.9720   19.0410 C.3   328  LEU328      0.0001
    210  N        -12.0180   11.9020   20.5200 N.3   331  PHE331     -0.1227
    211  CA       -13.4120   11.4680   20.6330 C.3   331  PHE331      0.1736
    212  C        -13.9340   10.8920   19.2900 C.2   331  PHE331      0.2595
    213  O        -14.5860    9.8420   19.2910 O.2   331  PHE331     -0.2718
    214  CB       -14.3220   12.6110   21.1250 C.3   331  PHE331      0.0547
    215  CG       -15.0710   12.3170   22.4080 C.ar  331  PHE331     -0.0202
    216  CD1      -15.8340   11.1570   22.5420 C.ar  331  PHE331     -0.0042
    217  CD2      -15.0350   13.2090   23.4710 C.ar  331  PHE331     -0.0042
    218  CE1      -16.5110   10.8760   23.7300 C.ar  331  PHE331     -0.0003
    219  CE2      -15.7290   12.9390   24.6530 C.ar  331  PHE331     -0.0003
    220  CZ       -16.4500   11.7670   24.7790 C.ar  331  PHE331     -0.0000
    221  N        -13.6160   11.5500   18.1560 N.am  332  ASP332     -0.1974
    222  CA       -14.0270   11.0630   16.8370 C.3   332  ASP332      0.1709
    223  C        -13.3650    9.7170   16.5130 C.2   332  ASP332      0.2293
    224  O        -13.9960    8.8640   15.8840 O.2   332  ASP332     -0.2864
    225  CB       -13.7010   12.0920   15.7340 C.3   332  ASP332      0.1436
    226  CG       -14.7970   13.1090   15.4470 C.2   332  ASP332      0.3671
    227  OD1      -15.9920   12.7260   15.4890 O.co2 332  ASP332     -0.2456
    228  OD2      -14.4600   14.2670   15.1060 O.co2 332  ASP332     -0.2456
    229  N        -15.0250    6.8270   18.8200 N.3   335  THR335     -0.1218
    230  CA       -16.4030    6.4410   18.4320 C.3   335  THR335      0.1862
    231  C        -16.3060    5.3840   17.3280 C.2   335  THR335      0.2287
    232  O        -16.9810    4.3580   17.3980 O.2   335  THR335     -0.2866
    233  CB       -17.2700    7.6410   17.9640 C.3   335  THR335      0.1770
    234  OG1      -16.6990    8.1960   16.7830 O.3   335  THR335     -0.2211
    235  CG2      -17.4510    8.7250   19.0180 C.3   335  THR335      0.0375
    236  N        -17.3110    1.6560   16.7480 N.3   339  TYR339     -0.1241
    237  CA       -18.0280    1.2870   15.5300 C.3   339  TYR339      0.1605
    238  C        -17.3440    0.0990   14.8740 C.2   339  TYR339      0.2264
    239  O        -18.0320   -0.7960   14.3880 O.2   339  TYR339     -0.2867
    240  CB       -18.0890    2.4620   14.5400 C.3   339  TYR339      0.0534
    241  CG       -18.9880    3.6280   14.9070 C.ar  339  TYR339     -0.0201
    242  CD1      -18.8520    4.8580   14.2730 C.ar  339  TYR339     -0.0009
    243  CD2      -20.0290    3.4770   15.8230 C.ar  339  TYR339     -0.0009
    244  CE1      -19.7060    5.9220   14.5600 C.ar  339  TYR339      0.0417
    245  CE2      -20.8820    4.5370   16.1290 C.ar  339  TYR339      0.0417
    246  CZ       -20.7130    5.7630   15.4950 C.ar  339  TYR339      0.1957
    247  OH       -21.5280    6.8350   15.7750 O.3   339  TYR339     -0.2866
@<TRIPOS>BOND
     1     1     2    1
     2     2     3    1
     3     2     5    1
     4     3     4    2
     5     5     6    1
     6     7     6   ar
     7     7     9   ar
     8     6     8   ar
     9    19    21   ar
    10    19    18   ar
    11    21    22   ar
    12     9    11   ar
    13    18    17    1
    14    18    20   ar
    15    22    24   ar
    16    22    20   ar
    17    17    14    1
    18     8    10   ar
    19    24    26   ar
    20    20    23   ar
    21   242   244   ar
    22   242   241   ar
    23   239   238    2
    24   240   241    1
    25   240   237    1
    26   244   246   ar
    27    11    10   ar
    28    11    12    1
    29    14    13    1
    30    14    15    1
    31    26    25   ar
    32    23    25   ar
    33   238   237    1
    34   241   243   ar
    35   228   226   ar
    36   226   227   ar
    37   226   225    1
    38    84    85    1
    39    84    81    1
    40   246   247    1
    41   246   245   ar
    42   237   236    1
    43   225   222    1
    44   243   245   ar
    45   224   223    2
    46    15    16    2
    47    15    27   am
    48    80    81    1
    49   223   222    1
    50    81    82    1
    51   234   233    1
    52   222   221    1
    53    27    28    1
    54   231   232    2
    55   231   230    1
    56    83    82    2
    57    41    40   ar
    58    35    36    1
    59    82    86   am
    60    39    36    1
    61    39    40    1
    62    36    37    1
    63   233   230    1
    64   233   235    1
    65    40    42   ar
    66   221   212   am
    67    28    31    1
    68    28    29    1
    69   205   204    2
    70   230   229    1
    71    32    34    1
    72    32    31    1
    73    32    33    1
    74   204   203    1
    75    56    55    1
    76   206   203    1
    77   206   207    1
    78    86    87    1
    79    29    30    2
    80   209   207    1
    81    37    38    2
    82    37    43   am
    83   212   213    2
    84   212   211    1
    85   208   207    1
    86   203   202    1
    87    51    52    1
    88    91    90    1
    89    87    90    1
    90    87    88    1
    91    43    44    1
    92    52    55    1
    93    52    53    1
    94   163   165   ar
    95   163   161   ar
    96   165   164   ar
    97   210   211    1
    98   211   214    1
    99    90    92    1
   100   214   215    1
   101    88    89    2
   102    88    93   am
   103   161   160   ar
   104   161   159   ar
   105   164   162   ar
   106   160   158   ar
   107    44    45    1
   108    44    47    1
   109    53    54    2
   110    53    57   am
   111    45    46    2
   112    93    94    1
   113   159   162   ar
   114   159   157   ar
   115   174   172   ar
   116   174   176   ar
   117    99    97    1
   118   172   171   ar
   119   215   216   ar
   120   215   217   ar
   121    57    58    1
   122   158   157   ar
   123   216   218   ar
   124    47    48    1
   125    47    49    1
   126    48    50    1
   127    64    65    1
   128   157   156    1
   129   152   153    1
   130    94    97    1
   131    94    95    1
   132   176   175   ar
   133   171   170    1
   134   171   173   ar
   135   170   167    1
   136   217   219   ar
   137    97    98    1
   138    59    58    1
   139    59    60    2
   140   218   220   ar
   141   153   156    1
   142   153   154    1
   143    58    61    1
   144    65    68    1
   145    65    66    1
   146   175   173   ar
   147    69    71    1
   148    69    68    1
   149    95    96    2
   150    95   100   am
   151   167   166    1
   152   167   168    1
   153    61    62    1
   154    61    63    1
   155   219   220   ar
   156    68    70    1
   157   100   101    1
   158    66    67    2
   159   154   155    2
   160   186   187   ar
   161   186   184   ar
   162   187   185   ar
   163   168   169    2
   164   168   177   am
   165   101   104    1
   166   101   102    1
   167   104   105    1
   168   184   182   ar
   169   177   178    1
   170    74    75    2
   171    74    73    1
   172   185   183   ar
   173    72    73    1
   174   102   103    2
   175   102   108   am
   176   107   105   am
   177   201   200    1
   178   192   193    1
   179   192   189    1
   180   182   183   ar
   181   182   181    1
   182    76    73    1
   183    76    78    1
   184    76    77    1
   185   105   106    2
   186   200   199    1
   187   150   149    2
   188   114   112    1
   189   151   148    1
   190   108   109    1
   191   126   125    1
   192   178   181    1
   193   178   179    1
   194   188   189    1
   195   199   198    1
   196   189   190    1
   197   112   109    1
   198   112   113    1
   199    77    79    1
   200   198   195    1
   201   149   148    1
   202   148   147    1
   203   109   110    1
   204   179   180    2
   205   125   123   ar
   206   125   124   ar
   207   123   121   ar
   208   190   191    2
   209   139   138    1
   210   195   194    1
   211   195   196    1
   212   137   136    2
   213   138   135    1
   214   124   122   ar
   215   110   111    2
   216   121   120   ar
   217   145   144    1
   218   136   135    1
   219   136   140   am
   220   196   197    2
   221   135   134    1
   222   133   131    1
   223   141   140    1
   224   141   144    1
   225   141   142    1
   226   143   142    2
   227   122   120   ar
   228   132   131    1
   229   144   146    1
   230   120   119    1
   231   130   129    2
   232   131   128    1
   233   128   129    1
   234   128   127    1
   235   118   117    2
   236   127   117   am
   237   119   116    1
   238   117   116    1
   239   116   115    1
