@<TRIPOS>MOLECULE
tmp/4iarA01.pdb
 86 79 0 0 0
SMALL
GASTEIGER

@<TRIPOS>ATOM
      1  N         -0.9280  -11.9940    5.6480 N.3    22  ILE22      -0.1245
      2  CA        -0.4490  -12.2540    7.0180 C.3    22  ILE22       0.1561
      3  C         -0.2130  -13.7730    7.1910 C.2    22  ILE22       0.2260
      4  O          0.8380  -14.1780    7.6820 O.2    22  ILE22      -0.2867
      5  CB        -1.4250  -11.6890    8.1230 C.3    22  ILE22       0.0252
      6  CG1       -1.5690  -10.1390    8.0850 C.3    22  ILE22       0.0019
      7  CG2       -1.0850  -12.1890    9.5550 C.3    22  ILE22       0.0019
      8  CD1       -0.2780   -9.2690    8.4840 C.3    22  ILE22       0.0001
      9  N         17.7150   -8.2480   26.3150 N.3   311  LYS311     -0.1231
     10  CA        17.0670   -7.1890   25.5340 C.3   311  LYS311      0.1693
     11  C         16.0470   -7.7890   24.5730 C.2   311  LYS311      0.2592
     12  O         14.8960   -7.3490   24.5690 O.2   311  LYS311     -0.2718
     13  CB        18.0800   -6.3270   24.7650 C.3   311  LYS311      0.0285
     14  CG        17.4980   -5.1060   24.0580 C.3   311  LYS311      0.0035
     15  CD        18.5950   -4.1500   23.5640 C.3   311  LYS311      0.0206
     16  CE        19.4650   -4.7790   22.5040 C.3   311  LYS311      0.1093
     17  NZ        18.6970   -4.9550   21.2460 N.3   311  LYS311     -0.1314
     18  N         16.4380   -8.8460   23.8380 N.am  312  THR312     -0.1953
     19  CA        15.5550   -9.4900   22.8580 C.3   312  THR312      0.1897
     20  C         14.4520  -10.3210   23.5410 C.2   312  THR312      0.2313
     21  O         13.3320  -10.3540   23.0190 O.2   312  THR312     -0.2863
     22  CB        16.3460  -10.2760   21.8230 C.3   312  THR312      0.1794
     23  OG1       17.1090  -11.2750   22.4880 O.3   312  THR312     -0.2208
     24  CG2       17.2760   -9.3730   21.0190 C.3   312  THR312      0.0378
     25  N         11.7500   -7.8690   24.2780 N.3   315  ILE315     -0.1245
     26  CA        10.9740   -7.5340   23.0680 C.3   315  ILE315      0.1561
     27  C          9.9370   -8.6450   22.8020 C.2   315  ILE315      0.2260
     28  O          8.8000   -8.3280   22.4850 O.2   315  ILE315     -0.2867
     29  CB        11.8870   -7.2530   21.8350 C.3   315  ILE315      0.0252
     30  CG1       12.9020   -6.1300   22.1440 C.3   315  ILE315      0.0019
     31  CG2       11.0570   -6.8750   20.6040 C.3   315  ILE315      0.0019
     32  CD1       14.1590   -6.2120   21.3930 C.3   315  ILE315      0.0001
     33  N         -1.0860  -12.7490   14.8630 N.3   352  LEU352     -0.1245
     34  CA         0.0400  -11.9240   14.4080 C.3   352  LEU352      0.1561
     35  C          1.3320  -12.2210   15.1960 C.2   352  LEU352      0.2260
     36  O          2.4280  -12.0740   14.6520 O.2   352  LEU352     -0.2867
     37  CB        -0.3470  -10.4430   14.5630 C.3   352  LEU352      0.0270
     38  CG         0.4860   -9.3970   13.8250 C.3   352  LEU352      0.0019
     39  CD1        0.1900   -9.4040   12.3350 C.3   352  LEU352      0.0001
     40  CD2        0.2010   -8.0150   14.3730 C.3   352  LEU352      0.0001
     41  N          3.9000  -14.4030   13.6700 N.3   355  LEU355     -0.1231
     42  CA         4.6780  -13.7650   12.6140 C.3   355  LEU355      0.1693
     43  C          5.7380  -12.8440   13.2220 C.2   355  LEU355      0.2591
     44  O          6.8650  -12.8090   12.7240 O.2   355  LEU355     -0.2718
     45  CB         3.7490  -12.9840   11.6490 C.3   355  LEU355      0.0284
     46  CG         4.4140  -12.0070   10.6700 C.3   355  LEU355      0.0019
     47  CD1        5.1650  -12.7320    9.5640 C.3   355  LEU355      0.0001
     48  CD2        3.4190  -11.0300   10.1110 C.3   355  LEU355      0.0001
     49  N          5.3800  -12.0990   14.2870 N.am  356  ILE356     -0.1980
     50  CA         6.2720  -11.1520   14.9670 C.3   356  ILE356      0.1595
     51  C          7.4930  -11.8980   15.5480 C.2   356  ILE356      0.2287
     52  O          8.6260  -11.5060   15.2600 O.2   356  ILE356     -0.2864
     53  CB         5.5030  -10.3210   16.0390 C.3   356  ILE356      0.0276
     54  CG1        4.4140   -9.4450   15.3710 C.3   356  ILE356      0.0022
     55  CG2        6.4510   -9.4400   16.8410 C.3   356  ILE356      0.0022
     56  CD1        3.3620   -8.8710   16.3170 C.3   356  ILE356      0.0001
     57  N         10.2430  -12.9210   13.1290 N.3   359  ILE359     -0.1231
     58  CA        10.9640  -11.7740   12.5580 C.3   359  ILE359      0.1692
     59  C         11.8730  -11.1480   13.6350 C.2   359  ILE359      0.2591
     60  O         12.9270  -10.6390   13.2730 O.2   359  ILE359     -0.2718
     61  CB        10.1050  -10.7110   11.8000 C.3   359  ILE359      0.0266
     62  CG1        9.5310   -9.6110   12.7080 C.3   359  ILE359      0.0019
     63  CG2        9.0530  -11.3450   10.8610 C.3   359  ILE359      0.0020
     64  CD1        9.0980   -8.3910   11.9520 C.3   359  ILE359      0.0001
     65  N         11.4940  -11.2220   14.9380 N.am  360  ILE360     -0.1980
     66  CA        12.3000  -10.6880   16.0500 C.3   360  ILE360      0.1595
     67  C         13.6000  -11.5070   16.1700 C.2   360  ILE360      0.2287
     68  O         14.6600  -10.9170   16.3430 O.2   360  ILE360     -0.2864
     69  CB        11.5180  -10.6210   17.4110 C.3   360  ILE360      0.0276
     70  CG1       10.3190   -9.6260   17.3350 C.3   360  ILE360      0.0022
     71  CG2       12.4450  -10.2800   18.6000 C.3   360  ILE360      0.0022
     72  CD1        9.4120   -9.5410   18.6230 C.3   360  ILE360      0.0001
     73  N         16.0480  -10.9450   13.2020 N.3   363  MET363     -0.1230
     74  CA        16.6260   -9.6060   13.1440 C.3   363  MET363      0.1702
     75  C         17.6750   -9.4310   14.2450 C.2   363  MET363      0.2593
     76  O         18.6330   -8.6710   14.0750 O.2   363  MET363     -0.2718
     77  CB        15.5360   -8.5330   13.2590 C.3   363  MET363      0.0401
     78  CG        14.7830   -8.3170   11.9710 C.3   363  MET363      0.0596
     79  SD        13.9620   -6.7110   11.8790 S.3   363  MET363     -0.1393
     80  CE        12.4190   -7.0900   12.6280 C.3   363  MET363      0.0692
     81  N         17.4970  -10.1710   15.3600 N.am  364  SER364     -0.1952
     82  CA        18.3090  -10.1320   16.5660 C.3   364  SER364      0.1924
     83  C         19.4080  -11.1980   16.5990 C.2   364  SER364      0.2314
     84  O         20.5580  -10.8550   16.8760 O.2   364  SER364     -0.2863
     85  CB        17.4100  -10.2950   17.7760 C.3   364  SER364      0.2116
     86  OG        16.3580   -9.3480   17.7220 O.3   364  SER364     -0.2180
@<TRIPOS>BOND
     1     1     2    1
     2     2     3    1
     3     2     5    1
     4     3     4    2
     5     6     5    1
     6     6     8    1
     7     5     7    1
     8    47    46    1
     9    48    46    1
    10    46    45    1
    11    63    61    1
    12    45    42    1
    13    61    58    1
    14    61    62    1
    15    79    78    1
    16    79    80    1
    17    64    62    1
    18    78    77    1
    19    39    38    1
    20    58    57    1
    21    58    59    1
    22    42    43    1
    23    42    41    1
    24    44    43    2
    25    74    73    1
    26    74    77    1
    27    74    75    1
    28    43    49   am
    29    60    59    2
    30    59    65   am
    31    38    40    1
    32    38    37    1
    33    76    75    2
    34    75    81   am
    35    49    50    1
    36    34    37    1
    37    34    33    1
    38    34    35    1
    39    36    35    2
    40    65    66    1
    41    50    51    1
    42    50    53    1
    43    52    51    2
    44    81    82    1
    45    54    53    1
    46    54    56    1
    47    53    55    1
    48    66    67    1
    49    66    69    1
    50    67    68    2
    51    82    83    1
    52    82    85    1
    53    83    84    2
    54    70    69    1
    55    70    72    1
    56    69    71    1
    57    86    85    1
    58    31    29    1
    59    24    22    1
    60    17    16    1
    61    32    30    1
    62    22    23    1
    63    22    19    1
    64    29    30    1
    65    29    26    1
    66    28    27    2
    67    16    15    1
    68    27    26    1
    69    19    20    1
    70    19    18    1
    71    21    20    2
    72    26    25    1
    73    15    14    1
    74    18    11   am
    75    14    13    1
    76    12    11    2
    77    11    10    1
    78    13    10    1
    79    10     9    1
