@<TRIPOS>MOLECULE
tmp/4iawA00.pdb
 171 159 0 0 0
SMALL
GASTEIGER

@<TRIPOS>ATOM
      1  N         13.5850   -9.1450   -5.7380 N.3    33  GLN33      -0.1245
      2  CA        12.1770   -8.9830   -6.0590 C.3    33  GLN33       0.1566
      3  C         11.4850   -8.4050   -4.8050 C.2    33  GLN33       0.2260
      4  O         11.0580   -9.1620   -3.9080 O.2    33  GLN33      -0.2867
      5  CB        11.5930  -10.3260   -6.4870 C.3    33  GLN33       0.0367
      6  CG        10.1960  -10.2920   -7.1500 C.3    33  GLN33       0.0905
      7  CD         9.5360  -11.7020   -7.2300 C.2    33  GLN33       0.2608
      8  OE1        9.6440  -12.5060   -6.3010 O.2    33  GLN33      -0.2717
      9  NE2        8.8790  -11.9860   -8.3210 N.am   33  GLN33      -0.0878
     10  N          5.7670   -8.2190   -5.8500 N.3    36  ARG36      -0.1245
     11  CA         5.2790   -9.1650   -6.8730 C.3    36  ARG36       0.1563
     12  C          3.8150   -8.9490   -7.0470 C.2    36  ARG36       0.2260
     13  O          3.1120   -8.7700   -6.0670 O.2    36  ARG36      -0.2867
     14  CB         5.4050  -10.6360   -6.4410 C.3    36  ARG36       0.0307
     15  CG         6.5840  -11.0050   -5.6140 C.3    36  ARG36       0.0489
     16  CD         6.8230  -12.5190   -5.5940 C.3    36  ARG36       0.2205
     17  NE         6.1520  -13.1670   -4.5100 N.pl3  36  ARG36      -0.0865
     18  CZ         6.7270  -13.7710   -3.4700 C.cat  36  ARG36       0.5346
     19  NH1        8.0600  -13.8500   -3.3250 N.pl3  36  ARG36       0.1354
     20  NH2        5.9120  -14.2960   -2.5520 N.pl3  36  ARG36       0.1354
     21  N         13.0080  -13.1550   -2.7270 N.3    52  THR52      -0.1218
     22  CA        13.9210  -13.9400   -3.5500 C.3    52  THR52       0.1862
     23  C         14.9390  -13.0350   -4.2170 C.2    52  THR52       0.2287
     24  O         14.8430  -11.8300   -4.1200 O.2    52  THR52      -0.2866
     25  CB        13.1910  -14.5580   -4.6670 C.3    52  THR52       0.1770
     26  OG1       12.7070  -13.4950   -5.4940 O.3    52  THR52      -0.2211
     27  CG2       12.0310  -15.3970   -4.1410 C.3    52  THR52       0.0375
     28  N         17.5750  -12.4770   -7.9440 N.3    54  GLN54      -0.1245
     29  CA        17.8060  -12.8390   -9.3370 C.3    54  GLN54       0.1566
     30  C         19.1450  -12.2670   -9.7970 C.2    54  GLN54       0.2260
     31  O         19.5620  -11.1870   -9.3540 O.2    54  GLN54      -0.2867
     32  CB        16.7380  -12.1950  -10.2260 C.3    54  GLN54       0.0367
     33  CG        15.2940  -12.4860   -9.8200 C.3    54  GLN54       0.0905
     34  CD        14.3010  -11.5530  -10.4940 C.2    54  GLN54       0.2608
     35  OE1       14.6910  -10.6190  -11.2110 O.2    54  GLN54      -0.2717
     36  NE2       13.0110  -11.8000  -10.2710 N.am   54  GLN54      -0.0878
     37  N         20.8930  -11.4120  -13.5090 N.3    56  TYR56      -0.1241
     38  CA        20.8500  -11.2330  -14.9530 C.3    56  TYR56       0.1605
     39  C         22.3060  -11.1440  -15.4760 C.2    56  TYR56       0.2264
     40  O         22.9970  -10.1170  -15.3470 O.2    56  TYR56      -0.2867
     41  CB        20.0780   -9.9170  -15.2910 C.3    56  TYR56       0.0534
     42  CG        18.5530  -10.0360  -15.3110 C.ar   56  TYR56      -0.0201
     43  CD1       17.8610  -10.1090  -16.5290 C.ar   56  TYR56      -0.0009
     44  CD2       17.8140  -10.0980  -14.1170 C.ar   56  TYR56      -0.0009
     45  CE1       16.4860  -10.2270  -16.5710 C.ar   56  TYR56       0.0417
     46  CE2       16.4290  -10.2380  -14.1410 C.ar   56  TYR56       0.0417
     47  CZ        15.7750  -10.2820  -15.3660 C.ar   56  TYR56       0.1957
     48  OH        14.4050  -10.3930  -15.4040 O.3    56  TYR56      -0.2866
     49  N         19.3280  -15.9520  -16.5930 N.3    66  VAL66      -0.1245
     50  CA        18.7200  -15.3740  -15.4030 C.3    66  VAL66       0.1561
     51  C         18.5810  -16.4430  -14.3370 C.2    66  VAL66       0.2260
     52  O         17.8520  -17.4080  -14.5210 O.2    66  VAL66      -0.2867
     53  CB        17.3540  -14.7370  -15.7340 C.3    66  VAL66       0.0252
     54  CG1       16.7550  -14.0590  -14.5050 C.3    66  VAL66       0.0019
     55  CG2       17.4970  -13.7400  -16.9350 C.3    66  VAL66       0.0019
     56  N         17.2690  -17.2300  -10.4890 N.3    68  ALA68      -0.1245
     57  CA        16.6150  -16.8550   -9.2400 C.3    68  ALA68       0.1562
     58  C         16.9120  -17.8280   -8.1060 C.2    68  ALA68       0.2260
     59  O         16.9460  -19.0620   -8.2900 O.2    68  ALA68      -0.2867
     60  CB        15.0960  -16.7160   -9.4090 C.3    68  ALA68       0.0290
     61  N         15.5710  -18.7030   -3.9890 N.3    70  ARG70      -0.1245
     62  CA        14.6890  -18.5150   -2.8570 C.3    70  ARG70       0.1563
     63  C         15.0430  -19.5300   -1.7540 C.2    70  ARG70       0.2260
     64  O         15.5830  -20.6450   -2.0330 O.2    70  ARG70      -0.2867
     65  CB        13.2220  -18.6950   -3.2710 C.3    70  ARG70       0.0307
     66  CG        12.8790  -20.0880   -3.7470 C.3    70  ARG70       0.0489
     67  CD        11.3830  -20.2200   -4.0350 C.3    70  ARG70       0.2205
     68  NE        11.0290  -21.5530   -4.5360 N.pl3  70  ARG70      -0.0865
     69  CZ         9.8050  -21.9000   -4.9410 C.cat  70  ARG70       0.5346
     70  NH1        8.8250  -20.9920   -4.9520 N.pl3  70  ARG70       0.1354
     71  NH2        9.5640  -23.1400   -5.3670 N.pl3  70  ARG70       0.1354
     72  N         16.8160  -22.9010   -3.1950 N.3    77  GLU77      -0.1231
     73  CA        16.3790  -23.4230   -4.5040 C.3    77  GLU77       0.1699
     74  C         16.7240  -22.4340   -5.6070 C.2    77  GLU77       0.2592
     75  O         16.4980  -21.2230   -5.4710 O.2    77  GLU77      -0.2718
     76  CB        14.8830  -23.6930   -4.5490 C.3    77  GLU77       0.0402
     77  CG        14.3610  -24.6610   -3.5250 C.3    77  GLU77       0.1161
     78  CD        12.8800  -24.8280   -3.6480 C.2    77  GLU77       0.3649
     79  OE1       12.2630  -24.1070   -4.4570 O.co2  77  GLU77      -0.2457
     80  OE2       12.3180  -25.6890   -2.9550 O.co2  77  GLU77      -0.2457
     81  N         17.2670  -22.9600   -6.6990 N.am   78  TYR78      -0.1962
     82  CA        17.8530  -22.1570   -7.7620 C.3    78  TYR78       0.1771
     83  C         17.1910  -22.5430   -9.0520 C.2    78  TYR78       0.2619
     84  O         16.9620  -23.7240   -9.3010 O.2    78  TYR78      -0.2715
     85  CB        19.3150  -22.4680   -7.9010 C.3    78  TYR78       0.0574
     86  CG        20.1720  -22.0120   -6.7490 C.ar   78  TYR78      -0.0198
     87  CD1       20.8130  -20.7840   -6.7860 C.ar   78  TYR78      -0.0009
     88  CD2       20.3880  -22.8340   -5.6400 C.ar   78  TYR78      -0.0009
     89  CE1       21.6160  -20.3730   -5.7410 C.ar   78  TYR78       0.0417
     90  CE2       21.2210  -22.4270   -4.5810 C.ar   78  TYR78       0.0417
     91  CZ        21.8110  -21.1960   -4.6340 C.ar   78  TYR78       0.1957
     92  OH        22.6200  -20.7520   -3.5980 O.3    78  TYR78      -0.2866
     93  N         16.8850  -21.5580   -9.8770 N.am   79  LEU79      -0.1977
     94  CA        16.2950  -21.8290  -11.1830 C.3    79  LEU79       0.1596
     95  C         16.8860  -20.8170  -12.1570 C.2    79  LEU79       0.2287
     96  O         16.8640  -19.6000  -11.8970 O.2    79  LEU79      -0.2864
     97  CB        14.7520  -21.7150  -11.1120 C.3    79  LEU79       0.0297
     98  CG        13.9330  -21.6560  -12.4030 C.3    79  LEU79       0.0022
     99  CD1       14.1970  -22.8480  -13.3300 C.3    79  LEU79       0.0001
    100  CD2       12.4370  -21.5720  -12.0690 C.3    79  LEU79       0.0001
    101  N         16.8950  -19.5830  -16.1600 N.3    81  MET81      -0.1245
    102  CA        16.1810  -19.5730  -17.4430 C.3    81  MET81       0.1570
    103  C         16.9500  -18.6620  -18.3870 C.2    81  MET81       0.2261
    104  O         17.6620  -17.7640  -17.9340 O.2    81  MET81      -0.2867
    105  CB        14.7190  -19.0550  -17.2350 C.3    81  MET81       0.0387
    106  CG        13.8670  -19.9490  -16.3120 C.3    81  MET81       0.0595
    107  SD        12.1540  -19.4220  -15.8740 S.3    81  MET81      -0.1393
    108  CE        11.4630  -18.9750  -17.4680 C.3    81  MET81       0.0692
    109  N         16.8490  -15.8010  -21.2990 N.3    83  PHE83      -0.1241
    110  CA        16.0690  -14.7210  -21.9240 C.3    83  PHE83       0.1605
    111  C         16.7680  -14.2840  -23.2040 C.2    83  PHE83       0.2264
    112  O         17.8840  -13.7490  -23.1630 O.2    83  PHE83      -0.2867
    113  CB        15.9850  -13.4830  -20.9990 C.3    83  PHE83       0.0534
    114  CG        15.0540  -13.6270  -19.8110 C.ar   83  PHE83      -0.0203
    115  CD1       14.7600  -12.5100  -19.0260 C.ar   83  PHE83      -0.0042
    116  CD2       14.4780  -14.8500  -19.4720 C.ar   83  PHE83      -0.0042
    117  CE1       13.9350  -12.6180  -17.9290 C.ar   83  PHE83      -0.0003
    118  CE2       13.6160  -14.9660  -18.3530 C.ar   83  PHE83      -0.0003
    119  CZ        13.3530  -13.8630  -17.5800 C.ar   83  PHE83      -0.0000
    120  N          5.8490  -17.2030  -23.8540 N.3   106  TYR106     -0.1241
    121  CA         6.5130  -16.5470  -22.7320 C.3   106  TYR106      0.1605
    122  C          7.0820  -15.2410  -23.2280 C.2   106  TYR106      0.2264
    123  O          7.7630  -15.2120  -24.2460 O.2   106  TYR106     -0.2867
    124  CB         7.6390  -17.4450  -22.2400 C.3   106  TYR106      0.0534
    125  CG         8.2590  -17.0170  -20.9550 C.ar  106  TYR106     -0.0201
    126  CD1        9.3070  -16.0970  -20.9330 C.ar  106  TYR106     -0.0009
    127  CD2        7.8230  -17.5580  -19.7580 C.ar  106  TYR106     -0.0009
    128  CE1        9.8790  -15.7000  -19.7250 C.ar  106  TYR106      0.0417
    129  CE2        8.3970  -17.1730  -18.5570 C.ar  106  TYR106      0.0417
    130  CZ         9.4250  -16.2410  -18.5600 C.ar  106  TYR106      0.1957
    131  OH         9.9650  -15.8780  -17.3540 O.3   106  TYR106     -0.2866
    132  N          5.7660   -9.7610  -17.1210 N.3   123  PHE123     -0.1241
    133  CA         5.8450  -11.1400  -17.6510 C.3   123  PHE123      0.1605
    134  C          4.4770  -11.6070  -18.1470 C.2   123  PHE123      0.2264
    135  O          3.4620  -11.3850  -17.4850 O.2   123  PHE123     -0.2867
    136  CB         6.3140  -12.0660  -16.5290 C.3   123  PHE123      0.0534
    137  CG         7.7480  -11.7510  -16.0540 C.ar  123  PHE123     -0.0203
    138  CD1        8.8580  -12.2700  -16.7390 C.ar  123  PHE123     -0.0042
    139  CD2        7.9770  -10.8710  -14.9990 C.ar  123  PHE123     -0.0042
    140  CE1       10.1800  -11.9660  -16.3130 C.ar  123  PHE123     -0.0003
    141  CE2        9.2710  -10.5830  -14.5750 C.ar  123  PHE123     -0.0003
    142  CZ        10.3790  -11.1170  -15.2510 C.ar  123  PHE123     -0.0000
    143  N          2.7230  -15.2260  -20.0840 N.3   125  LYS125     -0.1245
    144  CA         3.0080  -16.5730  -20.5460 C.3   125  LYS125      0.1561
    145  C          1.7350  -17.4180  -20.6710 C.2   125  LYS125      0.2260
    146  O          0.6840  -17.0700  -20.1030 O.2   125  LYS125     -0.2867
    147  CB         3.9960  -17.2360  -19.5860 C.3   125  LYS125      0.0271
    148  CG         3.4590  -17.4550  -18.2060 C.3   125  LYS125      0.0035
    149  CD         4.3240  -18.4200  -17.4310 C.3   125  LYS125      0.0206
    150  CE         3.8550  -18.4670  -16.0260 C.3   125  LYS125      0.1093
    151  NZ         4.3880  -19.6710  -15.2980 N.3   125  LYS125     -0.1314
    152  N          2.3850  -11.3080  -14.7510 N.3   134  SER134     -0.1217
    153  CA         2.8670  -10.8690  -13.4450 C.3   134  SER134      0.1889
    154  C          3.6960   -9.6150  -13.6400 C.2   134  SER134      0.2288
    155  O          4.1120   -9.2870  -14.7490 O.2   134  SER134     -0.2866
    156  CB         3.7170  -11.9690  -12.7700 C.3   134  SER134      0.2089
    157  OG         4.9950  -12.0500  -13.3910 O.3   134  SER134     -0.2183
    158  N          6.9990   -7.5390  -11.6310 N.3   136  SER136     -0.1217
    159  CA         7.9220   -7.5380  -10.5280 C.3   136  SER136      0.1889
    160  C          8.4640   -6.1580  -10.3030 C.2   136  SER136      0.2288
    161  O          8.7470   -5.4380  -11.2590 O.2   136  SER136     -0.2866
    162  CB         9.0760   -8.5130  -10.8030 C.3   136  SER136      0.2089
    163  OG         8.5740   -9.8220  -10.6050 O.3   136  SER136     -0.2183
    164  N         11.6990   -4.6170   -8.8590 N.3   138  LEU138     -0.1245
    165  CA        13.0280   -5.0730   -8.5420 C.3   138  LEU138      0.1561
    166  C         13.7990   -3.9630   -7.8530 C.2   138  LEU138      0.2260
    167  O         13.6910   -2.7730   -8.2160 O.2   138  LEU138     -0.2867
    168  CB        13.7540   -5.5350   -9.8120 C.3   138  LEU138      0.0270
    169  CG        13.1040   -6.6900  -10.6080 C.3   138  LEU138      0.0019
    170  CD1       13.9470   -7.0330  -11.8610 C.3   138  LEU138      0.0001
    171  CD2       12.9350   -7.9710   -9.6990 C.3   138  LEU138      0.0001
@<TRIPOS>BOND
     1   123   122    2
     2   120   121    1
     3   122   121    1
     4   111   112    2
     5   111   110    1
     6   121   124    1
     7   124   125    1
     8   110   109    1
     9   110   113    1
    10   113   114    1
    11   125   126   ar
    12   125   127   ar
    13   126   128   ar
    14   145   144    1
    15   145   146    2
    16   144   143    1
    17   144   147    1
    18   114   116   ar
    19   114   115   ar
    20   127   129   ar
    21   128   130   ar
    22   147   148    1
    23   116   118   ar
    24   115   117   ar
    25   130   129   ar
    26   130   131    1
    27   103   104    2
    28   103   102    1
    29   118   119   ar
    30   148   149    1
    31   134   133    1
    32   134   135    2
    33   117   119   ar
    34   133   132    1
    35   133   136    1
    36   108   107    1
    37   102   105    1
    38   102   101    1
    39   149   150    1
    40   105   106    1
    41    55    53    1
    42   138   140   ar
    43   138   137   ar
    44    49    50    1
    45    45    43   ar
    46    45    47   ar
    47    43    42   ar
    48   136   137    1
    49   140   142   ar
    50   106   107    1
    51   137   139   ar
    52   150   151    1
    53    53    50    1
    54    53    54    1
    55    39    40    2
    56    39    38    1
    57    48    47    1
    58    50    51    1
    59    47    46   ar
    60    42    41    1
    61    42    44   ar
    62    41    38    1
    63   142   141   ar
    64   139   141   ar
    65    38    37    1
    66   152   153    1
    67   155   154    2
    68    52    51    2
    69    46    44   ar
    70   154   153    1
    71   153   156    1
    72   157   156    1
    73    99    98    1
    74    98   100    1
    75    98    97    1
    76    95    96    2
    77    95    94    1
    78   170   169    1
    79   158   159    1
    80   161   160    2
    81    35    34    2
    82    94    97    1
    83    94    93    1
    84   162   163    1
    85   162   159    1
    86   169   168    1
    87   169   171    1
    88   159   160    1
    89    34    36   am
    90    34    33    1
    91    56    57    1
    92    32    33    1
    93    32    29    1
    94    93    83   am
    95   168   165    1
    96    30    31    2
    97    30    29    1
    98    60    57    1
    99    29    28    1
   100    84    83    2
   101    57    58    1
   102    83    82    1
   103   164   165    1
   104   165   166    1
   105     9     7   am
   106    59    58    2
   107   167   166    2
   108    85    82    1
   109    85    86    1
   110    82    81    1
   111     7     6    1
   112     7     8    2
   113     6     5    1
   114    12    11    1
   115    12    13    2
   116    11    14    1
   117    11    10    1
   118    87    86   ar
   119    87    89   ar
   120    86    88   ar
   121    81    74   am
   122     5     2    1
   123    14    15    1
   124     2     1    1
   125     2     3    1
   126    89    91   ar
   127    88    90   ar
   128    15    16    1
   129    74    75    2
   130    74    73    1
   131    16    17    1
   132    26    25    1
   133    71    69    1
   134    70    69    1
   135    69    68    2
   136     3     4    2
   137    25    27    1
   138    25    22    1
   139    91    90   ar
   140    91    92    1
   141    76    73    1
   142    76    77    1
   143    68    67    1
   144    17    18    2
   145    73    72    1
   146    79    78   ar
   147    23    24    2
   148    23    22    1
   149    67    66    1
   150    61    62    1
   151    66    65    1
   152    78    77    1
   153    78    80   ar
   154    22    21    1
   155    18    19    1
   156    18    20    1
   157    65    62    1
   158    62    63    1
   159    64    63    2
