@<TRIPOS>MOLECULE
tmp/4ib2A00.pdb
 143 139 0 0 0
SMALL
GASTEIGER

@<TRIPOS>ATOM
      1  N         21.7960   10.2490   46.9580 N.3    17  HIS17      -0.1241
      2  CA        21.5640   11.6550   46.5780 C.3    17  HIS17       0.1621
      3  C         22.2540   12.6780   47.4780 C.2    17  HIS17       0.2264
      4  O         23.0570   13.4600   46.9670 O.2    17  HIS17      -0.2867
      5  CB        20.0650   11.9710   46.4430 C.3    17  HIS17       0.0745
      6  CG        19.3630   11.0080   45.5360 C.ar   17  HIS17       0.0817
      7  ND1       19.2150    9.6810   45.8890 N.ar   17  HIS17      -0.2268
      8  CD2       18.9300   11.1690   44.2610 C.ar   17  HIS17       0.1154
      9  CE1       18.6230    9.0960   44.8670 C.ar   17  HIS17       0.1986
     10  NE2       18.4290    9.9460   43.8620 N.ar   17  HIS17      -0.2212
     11  N          9.0210   10.2600   49.1980 N.3    43  TYR43      -0.1241
     12  CA         9.0040   10.6260   47.7690 C.3    43  TYR43       0.1605
     13  C          8.0110   11.7520   47.4600 C.2    43  TYR43       0.2264
     14  O          7.8610   12.1080   46.2890 O.2    43  TYR43      -0.2867
     15  CB         8.6260    9.3770   46.9430 C.3    43  TYR43       0.0534
     16  CG         9.7240    8.3560   46.7070 C.ar   43  TYR43      -0.0201
     17  CD1       11.0640    8.6590   46.9680 C.ar   43  TYR43      -0.0009
     18  CD2        9.4370    7.1220   46.1240 C.ar   43  TYR43      -0.0009
     19  CE1       12.0800    7.7390   46.6900 C.ar   43  TYR43       0.0417
     20  CE2       10.4470    6.2180   45.7980 C.ar   43  TYR43       0.0417
     21  CZ        11.7640    6.5260   46.0890 C.ar   43  TYR43       0.1957
     22  OH        12.7240    5.5800   45.8320 O.3    43  TYR43      -0.2866
     23  N         16.0430   13.3870   43.7660 N.3    60  PHE60      -0.1227
     24  CA        15.5160   12.1650   44.4000 C.3    60  PHE60       0.1736
     25  C         14.7090   11.2840   43.4640 C.2    60  PHE60       0.2595
     26  O         14.5030   10.1420   43.8250 O.2    60  PHE60      -0.2718
     27  CB        14.5820   12.5210   45.6070 C.3    60  PHE60       0.0547
     28  CG        13.1570   12.8750   45.2110 C.ar   60  PHE60      -0.0202
     29  CD1       12.8650   14.1030   44.6200 C.ar   60  PHE60      -0.0042
     30  CD2       12.1160   11.9730   45.4110 C.ar   60  PHE60      -0.0042
     31  CE1       11.5590   14.4190   44.2360 C.ar   60  PHE60      -0.0003
     32  CE2       10.8090   12.2880   45.0180 C.ar   60  PHE60      -0.0003
     33  CZ        10.5370   13.5210   44.4590 C.ar   60  PHE60      -0.0000
     34  N         14.1900   11.8030   42.3370 N.am   61  GLN61      -0.1965
     35  CA        13.2450   11.0730   41.4870 C.3    61  GLN61       0.1733
     36  C         13.7030   10.8470   40.0550 C.2    61  GLN61       0.2616
     37  O         14.6180   11.5070   39.5710 O.2    61  GLN61      -0.2715
     38  CB        11.9290   11.8760   41.4380 C.3    61  GLN61       0.0408
     39  CG        11.9550   13.0710   40.4370 C.3    61  GLN61       0.0908
     40  CD        10.8970   14.0740   40.7210 C.2    61  GLN61       0.2608
     41  OE1        9.6970   13.7710   40.7410 O.2    61  GLN61      -0.2717
     42  NE2       11.3110   15.2990   41.0040 N.am   61  GLN61      -0.0878
     43  N         13.0350    9.9000   39.3910 N.am   62  HIS62      -0.1973
     44  CA        13.2910    9.6410   37.9800 C.3    62  HIS62       0.1656
     45  C         12.2260   10.3470   37.1510 C.2    62  HIS62       0.2291
     46  O         11.2530   10.8630   37.6960 O.2    62  HIS62      -0.2864
     47  CB        13.4170    8.1220   37.6550 C.3    62  HIS62       0.0771
     48  CG        12.3310    7.2450   38.2040 C.ar   62  HIS62       0.0820
     49  ND1       10.9930    7.4510   37.9000 N.ar   62  HIS62      -0.2267
     50  CD2       12.4300    6.1770   39.0310 C.ar   62  HIS62       0.1154
     51  CE1       10.3290    6.4900   38.5250 C.ar   62  HIS62       0.1986
     52  NE2       11.1470    5.7160   39.2430 N.ar   62  HIS62      -0.2212
     53  N          8.5170    9.1990   37.3520 N.3    65  TYR65      -0.1241
     54  CA         7.9610    9.6440   38.6230 C.3    65  TYR65       0.1605
     55  C          7.5590   11.1250   38.5590 C.2    65  TYR65       0.2264
     56  O          6.4740   11.4700   38.9900 O.2    65  TYR65      -0.2867
     57  CB         8.9330    9.4380   39.7880 C.3    65  TYR65       0.0534
     58  CG         8.2690    9.7240   41.1170 C.ar   65  TYR65      -0.0201
     59  CD1        8.2420   11.0230   41.6460 C.ar   65  TYR65      -0.0009
     60  CD2        7.6330    8.7090   41.8330 C.ar   65  TYR65      -0.0009
     61  CE1        7.6280   11.2920   42.8680 C.ar   65  TYR65       0.0417
     62  CE2        6.9950    8.9730   43.0500 C.ar   65  TYR65       0.0417
     63  CZ         6.9760   10.2710   43.5480 C.ar   65  TYR65       0.1957
     64  OH         6.3380   10.5410   44.7310 O.3    65  TYR65      -0.2866
     65  N         19.6370    3.9160   39.0920 N.3    86  GLU86      -0.1245
     66  CA        19.7430    2.9380   40.1660 C.3    86  GLU86       0.1567
     67  C         19.0660    1.6290   39.8000 C.2    86  GLU86       0.2260
     68  O         17.8250    1.5780   39.8330 O.2    86  GLU86      -0.2867
     69  CB        19.0930    3.4540   41.4660 C.3    86  GLU86       0.0388
     70  CG        19.7600    4.6620   42.0970 C.3    86  GLU86       0.1160
     71  CD        18.9190    5.3700   43.1460 C.2    86  GLU86       0.3649
     72  OE1       17.9170    4.7890   43.6280 O.co2  86  GLU86      -0.2457
     73  OE2       19.2280    6.5460   43.4270 O.co2  86  GLU86      -0.2457
     74  N         16.8620   -1.3840   39.9930 N.3    88  PHE88      -0.1241
     75  CA        15.7460   -1.8160   40.8480 C.3    88  PHE88       0.1605
     76  C         15.9220   -3.3120   41.0800 C.2    88  PHE88       0.2264
     77  O         16.3390   -4.0090   40.1680 O.2    88  PHE88      -0.2867
     78  CB        14.4420   -1.5350   40.0890 C.3    88  PHE88       0.0534
     79  CG        13.1620   -1.3450   40.8570 C.ar   88  PHE88      -0.0203
     80  CD1       13.0480   -0.3420   41.8090 C.ar   88  PHE88      -0.0042
     81  CD2       12.0160   -2.0520   40.5110 C.ar   88  PHE88      -0.0042
     82  CE1       11.8410   -0.1240   42.4850 C.ar   88  PHE88      -0.0003
     83  CE2       10.8020   -1.7920   41.1450 C.ar   88  PHE88      -0.0003
     84  CZ        10.7270   -0.8550   42.1510 C.ar   88  PHE88      -0.0000
     85  N          6.7060    3.4600   40.1800 N.3   115  ASN115     -0.1240
     86  CA         7.5610    2.4650   40.8360 C.3   115  ASN115      0.1653
     87  C          6.8240    1.1390   41.0330 C.2   115  ASN115      0.2266
     88  O          7.4500    0.0690   40.9920 O.2   115  ASN115     -0.2867
     89  CB         8.1420    3.0150   42.1220 C.3   115  ASN115      0.1155
     90  CG         9.2090    4.0530   41.8080 C.2   115  ASN115      0.2627
     91  OD1       10.1840    3.7700   41.0970 O.2   115  ASN115     -0.2716
     92  ND2        8.9620    5.3080   42.1740 N.am  115  ASN115     -0.0877
     93  N          7.0220   -0.3610   37.6230 N.3   118  ARG118     -0.1245
     94  CA         8.4070   -0.8290   37.4910 C.3   118  ARG118      0.1563
     95  C          8.6090   -2.2040   38.1700 C.2   118  ARG118      0.2260
     96  O          9.2990   -3.0690   37.6080 O.2   118  ARG118     -0.2867
     97  CB         9.3270    0.1910   38.1280 C.3   118  ARG118      0.0307
     98  CG        10.7950   -0.0380   37.8420 C.3   118  ARG118      0.0489
     99  CD        11.5390    1.0800   38.5330 C.3   118  ARG118      0.2205
    100  NE        12.9660    1.0130   38.2720 N.pl3 118  ARG118     -0.0865
    101  CZ        13.8390    1.9080   38.7130 C.cat 118  ARG118      0.5346
    102  NH1       13.4420    2.9070   39.4890 N.pl3 118  ARG118      0.1354
    103  NH2       15.1140    1.8030   38.3970 N.pl3 118  ARG118      0.1354
    104  N         13.5870    0.2140   45.6510 N.3   174  ASN174     -0.1225
    105  CA        14.2790    1.2640   44.9140 C.3   174  ASN174      0.1785
    106  C         15.7030    1.2740   45.4170 C.2   174  ASN174      0.2598
    107  O         15.9040    1.0510   46.6170 O.2   174  ASN174     -0.2718
    108  CB        13.6080    2.6460   45.1770 C.3   174  ASN174      0.1169
    109  CG        12.2560    2.7570   44.5760 C.2   174  ASN174      0.2627
    110  OD1       11.2310    2.4500   45.1990 O.2   174  ASN174     -0.2716
    111  ND2       12.2260    3.1900   43.3210 N.am  174  ASN174     -0.0877
    112  N         16.6640    1.4640   44.5220 N.am  175  GLY175     -0.1942
    113  CA        18.0750    1.5150   44.9140 C.3   175  GLY175      0.2014
    114  C         18.3890    2.3820   46.1310 C.2   175  GLY175      0.2638
    115  O         19.1030    1.9560   47.0430 O.2   175  GLY175     -0.2714
    116  N         17.8830    3.6080   46.1520 N.am  176  ASN176     -0.1972
    117  CA        18.1370    4.5250   47.2640 C.3   176  ASN176      0.1688
    118  C         17.6660    3.9280   48.6190 C.2   176  ASN176      0.2292
    119  O         18.3740    4.0700   49.6110 O.2   176  ASN176     -0.2864
    120  CB        17.4820    5.8990   47.0040 C.3   176  ASN176      0.1181
    121  CG        15.9930    5.9460   47.2320 C.2   176  ASN176      0.2629
    122  OD1       15.2050    5.5070   46.3910 O.2   176  ASN176     -0.2716
    123  ND2       15.5760    6.4730   48.3820 N.am  176  ASN176     -0.0877
    124  N         14.5740    5.1220   33.8800 N.3   203  TYR203     -0.1241
    125  CA        14.4850    5.5900   35.2580 C.3   203  TYR203      0.1605
    126  C         15.7290    6.3630   35.6700 C.2   203  TYR203      0.2264
    127  O         16.2920    6.1220   36.7390 O.2   203  TYR203     -0.2867
    128  CB        14.2270    4.3950   36.1880 C.3   203  TYR203      0.0534
    129  CG        12.9690    3.6520   35.7940 C.ar  203  TYR203     -0.0201
    130  CD1       11.7100    4.2280   35.9670 C.ar  203  TYR203     -0.0009
    131  CD2       13.0350    2.3750   35.2410 C.ar  203  TYR203     -0.0009
    132  CE1       10.5460    3.5320   35.6280 C.ar  203  TYR203      0.0417
    133  CE2       11.8830    1.6950   34.8470 C.ar  203  TYR203      0.0417
    134  CZ        10.6450    2.2750   35.0440 C.ar  203  TYR203      0.1957
    135  OH         9.5310    1.5600   34.6980 O.3   203  TYR203     -0.2866
    136  N         17.6360    9.3670   37.3410 N.3   205  ASN205     -0.1240
    137  CA        17.3920   10.3460   38.4230 C.3   205  ASN205      0.1653
    138  C         17.8080   11.7140   37.9640 C.2   205  ASN205      0.2266
    139  O         18.8290   11.8840   37.2870 O.2   205  ASN205     -0.2867
    140  CB        18.0640    9.9720   39.7350 C.3   205  ASN205      0.1155
    141  CG        17.3330    8.8460   40.4290 C.2   205  ASN205      0.2627
    142  OD1       17.0680    8.9190   41.6340 O.2   205  ASN205     -0.2716
    143  ND2       16.9760    7.7620   39.6950 N.am  205  ASN205     -0.0877
@<TRIPOS>BOND
     1   124   125    1
     2   135   134    1
     3   133   134   ar
     4   133   131   ar
     5   134   132   ar
     6   131   129   ar
     7   125   126    1
     8   125   128    1
     9   132   130   ar
    10   126   127    2
    11   129   130   ar
    12   129   128    1
    13    45    46    2
    14    45    44    1
    15   139   138    2
    16   136   137    1
    17    53    54    1
    18    94    93    1
    19    94    97    1
    20    94    95    1
    21    96    95    2
    22    47    44    1
    23    47    48    1
    24    98    97    1
    25    98    99    1
    26    49    48   ar
    27    49    51   ar
    28   138   137    1
    29    44    43    1
    30    48    50   ar
    31   100    99    1
    32   100   101    2
    33   103   101    1
    34   137   140    1
    35    51    52   ar
    36    55    54    1
    37    55    56    2
    38    54    57    1
    39   101   102    1
    40    50    52   ar
    41    65    66    1
    42    43    36   am
    43    37    36    2
    44   143   141   am
    45   140   141    1
    46    57    58    1
    47    67    68    2
    48    67    66    1
    49    74    75    1
    50    36    35    1
    51    78    75    1
    52    78    79    1
    53    66    69    1
    54    77    76    2
    55    85    86    1
    56   141   142    2
    57    39    40    1
    58    39    38    1
    59    81    79   ar
    60    81    83   ar
    61    40    41    2
    62    40    42   am
    63    86    87    1
    64    86    89    1
    65    75    76    1
    66    79    80   ar
    67    88    87    2
    68    91    90    2
    69    58    59   ar
    70    58    60   ar
    71    83    84   ar
    72    38    35    1
    73    69    70    1
    74    35    34    1
    75    59    61   ar
    76    90    89    1
    77    90    92   am
    78    80    82   ar
    79    60    62   ar
    80    70    71    1
    81    84    82   ar
    82    34    25   am
    83    61    63   ar
    84    62    63   ar
    85    71    73   ar
    86    71    72   ar
    87   111   109   am
    88    25    26    2
    89    25    24    1
    90    63    64    1
    91    23    24    1
    92    10     8   ar
    93    10     9   ar
    94    31    33   ar
    95    31    29   ar
    96     8     6   ar
    97    24    27    1
    98    33    32   ar
    99   112   113    1
   100   112   106   am
   101   109   108    1
   102   109   110    2
   103    29    28   ar
   104     9     7   ar
   105   105   108    1
   106   105   106    1
   107   105   104    1
   108   113   114    1
   109    32    30   ar
   110    28    30   ar
   111    28    27    1
   112   106   107    2
   113     6     7   ar
   114     6     5    1
   115    20    21   ar
   116    20    18   ar
   117    22    21    1
   118    21    19   ar
   119    18    16   ar
   120   114   116   am
   121   114   115    2
   122   116   117    1
   123    14    13    2
   124   122   121    2
   125     5     2    1
   126     2     1    1
   127     2     3    1
   128    19    17   ar
   129    16    15    1
   130    16    17   ar
   131    15    12    1
   132     4     3    2
   133   120   121    1
   134   120   117    1
   135   121   123   am
   136   117   118    1
   137    13    12    1
   138    12    11    1
   139   118   119    2
