@<TRIPOS>MOLECULE
tmp/4ib3A00.pdb
 199 191 0 0 0
SMALL
GASTEIGER

@<TRIPOS>ATOM
      1  N         -7.1620    2.5800   -8.2230 N.3    38  LEU38      -0.1231
      2  CA        -7.7380    2.2840   -9.5300 C.3    38  LEU38       0.1693
      3  C         -6.7420    2.5420  -10.6470 C.2    38  LEU38       0.2593
      4  O         -6.7830    1.8980  -11.7040 O.2    38  LEU38      -0.2718
      5  CB        -8.9890    3.1320   -9.7620 C.3    38  LEU38       0.0284
      6  CG       -10.1530    2.8130   -8.8180 C.3    38  LEU38       0.0019
      7  CD1      -11.3180    3.7670   -9.0750 C.3    38  LEU38       0.0001
      8  CD2      -10.5700    1.3610   -9.0290 C.3    38  LEU38       0.0001
      9  N         -5.8480    3.4930  -10.4140 N.am   39  GLY39      -0.1942
     10  CA        -4.8640    3.8130  -11.4240 C.3    39  GLY39       0.2014
     11  C         -3.9470    4.9220  -10.9710 C.2    39  GLY39       0.2640
     12  O         -4.2390    5.6320  -10.0110 O.2    39  GLY39      -0.2714
     13  N         -2.8330    5.0730  -11.6740 N.am   40  THR40      -0.1936
     14  CA        -1.8720    6.1080  -11.3500 C.3    40  THR40       0.2028
     15  C         -1.3240    6.6870  -12.6380 C.2    40  THR40       0.2643
     16  O         -1.3270    6.0340  -13.6790 O.2    40  THR40      -0.2714
     17  CB        -0.7090    5.5380  -10.5390 C.3    40  THR40       0.1808
     18  OG1        0.0170    4.6070  -11.3220 O.3    40  THR40      -0.2208
     19  CG2       -1.1020    4.8600   -9.2230 C.3    40  THR40       0.0379
     20  N         -0.8240    7.9120  -12.5500 N.am   41  GLY41      -0.1939
     21  CA        -0.2410    8.5630  -13.7060 C.3    41  GLY41       0.2014
     22  C          1.0250    9.2720  -13.2730 C.2    41  GLY41       0.2640
     23  O          1.6150    8.9220  -12.2440 O.2    41  GLY41      -0.2714
     24  N          1.4460   10.2740  -14.0380 N.am   42  SER42      -0.1935
     25  CA         2.6510   11.0090  -13.6800 C.3    42  SER42       0.2055
     26  C          2.7140   11.3070  -12.1840 C.2    42  SER42       0.2643
     27  O          3.7070   10.9960  -11.5280 O.2    42  SER42      -0.2714
     28  CB         2.8190   12.2610  -14.5330 C.3    42  SER42       0.2130
     29  OG         1.5670   12.8400  -14.8480 O.3    42  SER42      -0.2179
     30  N          1.6380   11.8450  -11.6210 N.am   43  PHE43      -0.1959
     31  CA         1.6360   12.0790  -10.1790 C.3    43  PHE43       0.1771
     32  C          0.3600   11.8200   -9.3860 C.2    43  PHE43       0.2620
     33  O         -0.7560   11.9540   -9.8960 O.2    43  PHE43      -0.2715
     34  CB         2.4490   13.2970   -9.7220 C.3    43  PHE43       0.0574
     35  CG         1.9440   14.6070  -10.2590 C.ar   43  PHE43      -0.0200
     36  CD1        1.7480   14.7850  -11.6220 C.ar   43  PHE43      -0.0042
     37  CD2        1.6750   15.6660   -9.4040 C.ar   43  PHE43      -0.0042
     38  CE1        1.2940   15.9890  -12.1180 C.ar   43  PHE43      -0.0003
     39  CE2        1.2180   16.8750   -9.8990 C.ar   43  PHE43      -0.0003
     40  CZ         1.0300   17.0380  -11.2570 C.ar   43  PHE43      -0.0000
     41  N          0.5470   11.3980   -8.1410 N.am   44  GLY44      -0.1940
     42  CA        -0.5820   11.0740   -7.2940 C.3    44  GLY44       0.2014
     43  C         -1.2510    9.7980   -7.7570 C.2    44  GLY44       0.2639
     44  O         -0.8400    9.1990   -8.7450 O.2    44  GLY44      -0.2714
     45  N         -2.2870    9.3850   -7.0410 N.am   45  ARG45      -0.1963
     46  CA        -3.0080    8.1790   -7.3870 C.3    45  ARG45       0.1729
     47  C         -4.5180    8.3910   -7.3260 C.2    45  ARG45       0.2616
     48  O         -5.0040    9.3250   -6.6840 O.2    45  ARG45      -0.2715
     49  CB        -2.5980    7.0280   -6.4550 C.3    45  ARG45       0.0348
     50  CG        -2.9920    7.2350   -4.9990 C.3    45  ARG45       0.0492
     51  CD        -2.7960    5.9860   -4.1380 C.3    45  ARG45       0.2205
     52  NE        -1.3940    5.6360   -3.9280 N.pl3  45  ARG45      -0.0865
     53  CZ        -0.7710    4.6220   -4.5190 C.cat  45  ARG45       0.5346
     54  NH1       -1.4420    3.5440   -4.8950 N.pl3  45  ARG45       0.1354
     55  NH2        0.5330    4.6860   -4.7220 N.pl3  45  ARG45       0.1354
     56  N         -5.2540    7.4920   -7.9700 N.am   46  VAL46      -0.1977
     57  CA        -6.7110    7.5320   -7.9670 C.3    46  VAL46       0.1596
     58  C         -7.1820    6.2830   -7.2350 C.2    46  VAL46       0.2287
     59  O         -6.8580    5.1550   -7.6230 O.2    46  VAL46      -0.2864
     60  CB        -7.3130    7.5760   -9.3850 C.3    46  VAL46       0.0276
     61  CG1       -8.8460    7.4990   -9.3160 C.3    46  VAL46       0.0022
     62  CG2       -6.8760    8.8530  -10.1020 C.3    46  VAL46       0.0022
     63  N        -14.1110    7.8200   -7.1990 N.3    59  ALA59      -0.1245
     64  CA       -12.7060    7.6770   -7.5330 C.3    59  ALA59       0.1562
     65  C        -12.0780    8.9380   -6.9810 C.2    59  ALA59       0.2260
     66  O        -12.3990   10.0400   -7.4220 O.2    59  ALA59      -0.2867
     67  CB       -12.5140    7.6050   -9.0320 C.3    59  ALA59       0.0290
     68  N         -8.9430   11.2490   -6.5440 N.3    61  LYS61      -0.1245
     69  CA        -7.6080   11.5520   -7.0410 C.3    61  LYS61       0.1561
     70  C         -6.8670   12.2590   -5.9210 C.2    61  LYS61       0.2260
     71  O         -7.3060   13.2970   -5.4390 O.2    61  LYS61      -0.2867
     72  CB        -7.6610   12.4240   -8.2960 C.3    61  LYS61       0.0271
     73  CG        -6.2830   12.7300   -8.8820 C.3    61  LYS61       0.0035
     74  CD        -6.3890   13.2910  -10.2950 C.3    61  LYS61       0.0206
     75  CE        -5.0230   13.6270  -10.8660 C.3    61  LYS61       0.1093
     76  NZ        -5.1060   14.0390  -12.3020 N.3    61  LYS61      -0.1314
     77  N         -3.4300   14.0700   -4.5100 N.3    63  LEU63      -0.1245
     78  CA        -2.2230   14.7550   -4.9460 C.3    63  LEU63       0.1561
     79  C         -1.4040   15.2700   -3.7710 C.2    63  LEU63       0.2260
     80  O         -1.8780   16.0670   -2.9660 O.2    63  LEU63      -0.2867
     81  CB        -2.5650   15.8980   -5.9030 C.3    63  LEU63       0.0270
     82  CG        -3.0930   15.4820   -7.2770 C.3    63  LEU63       0.0019
     83  CD1       -3.6510   16.6810   -8.0190 C.3    63  LEU63       0.0001
     84  CD2       -1.9760   14.8490   -8.0790 C.3    63  LEU63       0.0001
     85  N        -16.0530   13.2550  -17.0910 N.3    93  VAL93      -0.1245
     86  CA       -16.2270   12.6710  -15.7710 C.3    93  VAL93       0.1561
     87  C        -16.6320   13.8000  -14.8370 C.2    93  VAL93       0.2260
     88  O        -16.1270   14.9110  -14.9450 O.2    93  VAL93      -0.2867
     89  CB       -14.9330   12.0250  -15.2400 C.3    93  VAL93       0.0252
     90  CG1      -13.8590   13.0850  -15.0300 C.3    93  VAL93       0.0019
     91  CG2      -15.2070   11.2780  -13.9390 C.3    93  VAL93       0.0019
     92  N        -14.1390   12.2160   -7.9020 N.3   109  MET109     -0.1230
     93  CA       -14.9640   12.1040   -9.0890 C.3   109  MET109      0.1702
     94  C        -15.9040   10.9160   -9.0030 C.2   109  MET109      0.2592
     95  O        -15.7560   10.0320   -8.1550 O.2   109  MET109     -0.2718
     96  CB       -14.0680   11.8730  -10.2990 C.3   109  MET109      0.0401
     97  CG       -12.9750   12.9010  -10.4950 C.3   109  MET109      0.0596
     98  SD       -11.7290   12.1820  -11.5810 S.3   109  MET109     -0.1393
     99  CE       -10.6620   11.3710  -10.3400 C.3   109  MET109      0.0692
    100  N        -16.8300   10.8850   -9.9460 N.am  110  GLU110     -0.1966
    101  CA       -17.7800    9.8010  -10.0800 C.3   110  GLU110      0.1733
    102  C        -16.9300    8.6020  -10.4910 C.2   110  GLU110      0.2616
    103  O        -16.0010    8.7370  -11.2880 O.2   110  GLU110     -0.2715
    104  CB       -18.7440   10.1470  -11.2130 C.3   110  GLU110      0.0429
    105  CG       -19.9770    9.2830  -11.2990 C.3   110  GLU110      0.1163
    106  CD       -20.9140    9.7590  -12.3940 C.2   110  GLU110      0.3649
    107  OE1      -20.7040    9.3750  -13.5660 O.co2 110  GLU110     -0.2457
    108  OE2      -21.8320   10.5550  -12.0850 O.co2 110  GLU110     -0.2457
    109  N        -17.2340    7.4360   -9.9400 N.am  111  TYR111     -0.1960
    110  CA       -16.4710    6.2340  -10.2580 C.3   111  TYR111      0.1771
    111  C        -16.9570    5.5900  -11.5500 C.2   111  TYR111      0.2619
    112  O        -18.1230    5.2040  -11.6550 O.2   111  TYR111     -0.2715
    113  CB       -16.5420    5.2410   -9.0950 C.3   111  TYR111      0.0574
    114  CG       -15.9780    3.8710   -9.3970 C.ar  111  TYR111     -0.0198
    115  CD1      -14.6940    3.7210   -9.9000 C.ar  111  TYR111     -0.0009
    116  CD2      -16.7290    2.7250   -9.1660 C.ar  111  TYR111     -0.0009
    117  CE1      -14.1760    2.4710  -10.1640 C.ar  111  TYR111      0.0417
    118  CE2      -16.2190    1.4730   -9.4290 C.ar  111  TYR111      0.0417
    119  CZ       -14.9400    1.3530   -9.9280 C.ar  111  TYR111      0.1957
    120  OH       -14.4190    0.1080  -10.1940 O.3   111  TYR111     -0.2866
    121  N        -16.0620    5.4750  -12.5280 N.am  112  VAL112     -0.1977
    122  CA       -16.4020    4.8660  -13.8140 C.3   112  VAL112      0.1596
    123  C        -15.8430    3.4480  -13.7880 C.2   112  VAL112      0.2287
    124  O        -14.6570    3.2350  -14.0160 O.2   112  VAL112     -0.2864
    125  CB       -15.8030    5.6530  -14.9960 C.3   112  VAL112      0.0276
    126  CG1      -16.3980    5.1710  -16.3170 C.3   112  VAL112      0.0022
    127  CG2      -16.0350    7.1480  -14.8120 C.3   112  VAL112      0.0022
    128  N        -10.3390    1.5650  -18.1740 N.3   116  GLU116     -0.1245
    129  CA        -9.7970    2.4070  -19.2370 C.3   116  GLU116      0.1567
    130  C        -10.0330    1.7790  -20.6020 C.2   116  GLU116      0.2260
    131  O        -10.0180    0.5540  -20.7430 O.2   116  GLU116     -0.2867
    132  CB        -8.2840    2.5660  -19.0770 C.3   116  GLU116      0.0388
    133  CG        -7.8140    3.1770  -17.7870 C.3   116  GLU116      0.1160
    134  CD        -6.3050    3.0870  -17.6520 C.2   116  GLU116      0.3649
    135  OE1       -5.6800    2.3910  -18.4800 O.co2 116  GLU116     -0.2457
    136  OE2       -5.7470    3.6880  -16.7120 O.co2 116  GLU116     -0.2457
    137  N         -5.7040    5.7410  -22.1160 N.3   158  GLU158     -0.1231
    138  CA        -5.5510    5.6640  -20.6710 C.3   158  GLU158      0.1699
    139  C         -6.4600    6.6330  -19.9110 C.2   158  GLU158      0.2592
    140  O         -6.8870    6.3380  -18.7970 O.2   158  GLU158     -0.2718
    141  CB        -4.0890    5.8780  -20.2650 C.3   158  GLU158      0.0402
    142  CG        -3.1270    4.8090  -20.7760 C.3   158  GLU158      0.1161
    143  CD        -2.4800    5.1660  -22.1050 C.2   158  GLU158      0.3649
    144  OE1       -3.1890    5.6560  -23.0100 O.co2 158  GLU158     -0.2457
    145  OE2       -1.2630    4.9280  -22.2540 O.co2 158  GLU158     -0.2457
    146  N         -6.7520    7.7890  -20.5030 N.am  159  ASN159     -0.1974
    147  CA        -7.6110    8.7810  -19.8430 C.3   159  ASN159      0.1688
    148  C         -9.0630    8.7180  -20.2860 C.2   159  ASN159      0.2292
    149  O         -9.8550    9.6080  -19.9730 O.2   159  ASN159     -0.2864
    150  CB        -7.0800   10.1990  -20.0460 C.3   159  ASN159      0.1181
    151  CG        -5.7630   10.4290  -19.3490 C.2   159  ASN159      0.2629
    152  OD1       -5.4360    9.7440  -18.3860 O.2   159  ASN159     -0.2716
    153  ND2       -5.0120   11.4160  -19.8090 N.am  159  ASN159     -0.0877
    154  N        -12.3900    6.5400  -19.9740 N.3   161  LEU161     -0.1245
    155  CA       -13.0500    5.4660  -19.2430 C.3   161  LEU161      0.1561
    156  C        -14.3920    5.0740  -19.8350 C.2   161  LEU161      0.2260
    157  O        -15.1180    5.9090  -20.3740 O.2   161  LEU161     -0.2867
    158  CB       -13.2320    5.8740  -17.7850 C.3   161  LEU161      0.0270
    159  CG       -11.9980    6.5100  -17.1430 C.3   161  LEU161      0.0019
    160  CD1      -12.3290    6.9790  -15.7550 C.3   161  LEU161      0.0001
    161  CD2      -10.8300    5.5430  -17.1080 C.3   161  LEU161      0.0001
    162  N        -11.2700   11.6940  -18.3980 N.3   171  THR171     -0.1203
    163  CA       -10.7320   12.0100  -17.0880 C.3   171  THR171      0.1994
    164  C         -9.3730   12.6840  -17.2720 C.2   171  THR171      0.2617
    165  O         -8.8550   12.7590  -18.3890 O.2   171  THR171     -0.2717
    166  CB       -10.6090   10.7330  -16.2420 C.3   171  THR171      0.1784
    167  OG1      -10.4150   11.0430  -14.8720 O.3   171  THR171     -0.2211
    168  CG2       -9.4870    9.8080  -16.6670 C.3   171  THR171      0.0376
    169  N         -8.8050   13.1670  -16.1740 N.am  172  ASP172     -0.1973
    170  CA        -7.5040   13.8320  -16.1740 C.3   172  ASP172      0.1709
    171  C         -7.3970   15.1730  -16.9040 C.2   172  ASP172      0.2293
    172  O         -6.9640   15.2380  -18.0580 O.2   172  ASP172     -0.2864
    173  CB        -6.3750   12.8810  -16.5880 C.3   172  ASP172      0.1436
    174  CG        -4.9910   13.4460  -16.2730 C.2   172  ASP172      0.3671
    175  OD1       -4.9090   14.4180  -15.4890 O.co2 172  ASP172     -0.2456
    176  OD2       -3.9850   12.9140  -16.7880 O.co2 172  ASP172     -0.2456
    177  N        -10.1400   -2.9930  -13.8320 N.3   314  PHE314     -0.1241
    178  CA        -8.9120   -2.2170  -13.6370 C.3   314  PHE314      0.1605
    179  C         -7.7720   -3.1140  -13.1670 C.2   314  PHE314      0.2264
    180  O         -7.9980   -4.0660  -12.4200 O.2   314  PHE314     -0.2867
    181  CB        -9.1400   -1.1500  -12.5540 C.3   314  PHE314      0.0534
    182  CG       -10.0750   -0.0520  -12.9630 C.ar  314  PHE314     -0.0203
    183  CD1       -9.5960    1.0850  -13.5940 C.ar  314  PHE314     -0.0042
    184  CD2      -11.4370   -0.1580  -12.7240 C.ar  314  PHE314     -0.0042
    185  CE1      -10.4610    2.1000  -13.9810 C.ar  314  PHE314     -0.0003
    186  CE2      -12.3040    0.8510  -13.1080 C.ar  314  PHE314     -0.0003
    187  CZ       -11.8150    1.9790  -13.7370 C.ar  314  PHE314     -0.0000
    188  N         -2.7140   -2.2560   -8.3710 N.3   317  TYR317     -0.1241
    189  CA        -1.5290   -1.4450   -8.1290 C.3   317  TYR317      0.1605
    190  C         -1.0150   -1.6250   -6.7070 C.2   317  TYR317      0.2264
    191  O         -1.7540   -2.0220   -5.8080 O.2   317  TYR317     -0.2867
    192  CB        -1.8140    0.0400   -8.3770 C.3   317  TYR317      0.0534
    193  CG        -2.1480    0.3890   -9.8080 C.ar  317  TYR317     -0.0201
    194  CD1       -3.4290    0.2040  -10.3050 C.ar  317  TYR317     -0.0009
    195  CD2       -1.1760    0.8970  -10.6660 C.ar  317  TYR317     -0.0009
    196  CE1       -3.7380    0.5160  -11.6180 C.ar  317  TYR317      0.0417
    197  CE2       -1.4730    1.2140  -11.9800 C.ar  317  TYR317      0.0417
    198  CZ        -2.7570    1.0210  -12.4510 C.ar  317  TYR317      0.1957
    199  OH        -3.0680    1.3300  -13.7580 O.3   317  TYR317     -0.2866
@<TRIPOS>BOND
     1   144   143   ar
     2   145   143   ar
     3   137   138    1
     4   143   142    1
     5   142   141    1
     6   131   130    2
     7   138   141    1
     8   138   139    1
     9   130   129    1
    10   146   139   am
    11   146   147    1
    12   157   156    2
    13   148   149    2
    14   148   147    1
    15   150   147    1
    16   150   151    1
    17   154   155    1
    18   139   140    2
    19   156   155    1
    20   153   151   am
    21   151   152    2
    22   155   158    1
    23   129   132    1
    24   129   128    1
    25   132   133    1
    26   135   134   ar
    27   162   163    1
    28   165   164    2
    29   172   171    2
    30   133   134    1
    31   158   159    1
    32   134   136   ar
    33   164   163    1
    34   164   169   am
    35   159   161    1
    36   159   160    1
    37    85    86    1
    38   163   166    1
    39   171   170    1
    40   176   174   ar
    41   168   166    1
    42   173   174    1
    43   173   170    1
    44   126   125    1
    45   174   175   ar
    46   166   167    1
    47   169   170    1
    48    86    89    1
    49    86    87    1
    50    89    90    1
    51    89    91    1
    52   125   127    1
    53   125   122    1
    54    88    87    2
    55    29    28    1
    56    28    25    1
    57    24    25    1
    58    24    22   am
    59   124   123    2
    60   185   187   ar
    61   185   183   ar
    62   177   178    1
    63   122   123    1
    64   122   121    1
    65   199   198    1
    66   187   186   ar
    67    21    22    1
    68    21    20    1
    69    25    26    1
    70    16    15    2
    71   178   179    1
    72   178   181    1
    73   183   182   ar
    74   107   106   ar
    75    22    23    2
    76   179   180    2
    77   186   184   ar
    78   182   184   ar
    79   182   181    1
    80    15    20   am
    81    15    14    1
    82   121   111   am
    83   198   197   ar
    84   198   196   ar
    85   106   108   ar
    86   106   105    1
    87    76    75    1
    88    26    30   am
    89    26    27    2
    90    38    36   ar
    91    38    40   ar
    92   197   195   ar
    93     4     3    2
    94    13    14    1
    95    13    11   am
    96   112   111    2
    97    36    35   ar
    98    30    31    1
    99   196   194   ar
   100    98    97    1
   101    98    99    1
   102   111   110    1
   103    10    11    1
   104    10     9    1
   105    14    17    1
   106    18    17    1
   107   105   104    1
   108   103   102    2
   109    40    39   ar
   110   104   101    1
   111    11    12    2
   112    75    74    1
   113   195   193   ar
   114     3     9   am
   115     3     2    1
   116    17    19    1
   117    97    96    1
   118   102   101    1
   119   102   109   am
   120   194   193   ar
   121    96    93    1
   122    74    73    1
   123    35    34    1
   124    35    37   ar
   125   110   109    1
   126   110   113    1
   127   120   119    1
   128    31    34    1
   129    31    32    1
   130   117   119   ar
   131   117   115   ar
   132    62    60    1
   133   101   100    1
   134   100    94   am
   135   119   118   ar
   136   115   114   ar
   137    39    37   ar
   138    33    32    2
   139   193   192    1
   140     5     2    1
   141     5     6    1
   142     2     1    1
   143   118   116   ar
   144   114   116   ar
   145   114   113    1
   146    32    41   am
   147    60    61    1
   148    60    57    1
   149    93    94    1
   150    93    92    1
   151     7     6    1
   152    67    64    1
   153     8     6    1
   154    94    95    2
   155    73    72    1
   156    44    43    2
   157   192   189    1
   158   188   189    1
   159    72    69    1
   160    41    42    1
   161   189   190    1
   162    84    82    1
   163    83    82    1
   164    56    57    1
   165    56    47   am
   166    57    58    1
   167    43    42    1
   168    43    45   am
   169    59    58    2
   170    64    63    1
   171    64    65    1
   172    66    65    2
   173    46    47    1
   174    46    45    1
   175    46    49    1
   176    47    48    2
   177    82    81    1
   178    69    68    1
   179    69    70    1
   180   190   191    2
   181    49    50    1
   182    70    71    2
   183    81    78    1
   184    50    51    1
   185    78    77    1
   186    78    79    1
   187    54    53    1
   188    55    53    1
   189    53    52    2
   190    51    52    1
   191    79    80    2
