@<TRIPOS>MOLECULE
tmp/4ib5C01.pdb
 120 118 0 0 0
SMALL
GASTEIGER

@<TRIPOS>ATOM
      1  N          7.4100  -51.6280   53.1230 N.3   279  ARG279     -0.1231
      2  CA         7.9800  -50.2930   52.9630 C.3   279  ARG279      0.1694
      3  C          9.1280  -50.2660   51.9720 C.2   279  ARG279      0.2592
      4  O          9.9120  -51.2110   51.9040 O.2   279  ARG279     -0.2718
      5  CB         8.4710  -49.7900   54.3190 C.3   279  ARG279      0.0321
      6  CG         7.3350  -49.5640   55.3060 C.3   279  ARG279      0.0489
      7  CD         7.8320  -49.2520   56.7100 C.3   279  ARG279      0.2205
      8  NE         8.6370  -48.0360   56.7560 N.pl3 279  ARG279     -0.0865
      9  CZ         8.1340  -46.8050   56.7720 C.cat 279  ARG279      0.5346
     10  NH1        6.8200  -46.6190   56.7360 N.pl3 279  ARG279      0.1354
     11  NH2        8.9450  -45.7580   56.8150 N.pl3 279  ARG279      0.1354
     12  N          9.2170  -49.1910   51.1900 N.am  280  TRP280     -0.1962
     13  CA        10.2600  -49.0990   50.1770 C.3   280  TRP280      0.1771
     14  C         11.6410  -49.0590   50.8380 C.2   280  TRP280      0.2619
     15  O         12.6330  -49.4290   50.2140 O.2   280  TRP280     -0.2715
     16  CB        10.0770  -47.8830   49.2550 C.3   280  TRP280      0.0590
     17  CG         8.8700  -47.9220   48.3490 C.ar  280  TRP280      0.0006
     18  CD1        7.7840  -47.0970   48.4110 C.ar  280  TRP280      0.0946
     19  CD2        8.6020  -48.8540   47.2870 C.ar  280  TRP280      0.0152
     20  NE1        6.8740  -47.4330   47.4390 N.ar  280  TRP280     -0.2442
     21  CE2        7.3480  -48.5120   46.7400 C.ar  280  TRP280      0.0810
     22  CE3        9.3020  -49.9350   46.7420 C.ar  280  TRP280      0.0012
     23  CZ2        6.7800  -49.2120   45.6760 C.ar  280  TRP280      0.0191
     24  CZ3        8.7340  -50.6290   45.6850 C.ar  280  TRP280      0.0001
     25  CH2        7.4870  -50.2640   45.1640 C.ar  280  TRP280      0.0015
     26  N         11.7040  -48.6080   52.0940 N.am  281  GLU281     -0.1977
     27  CA        12.9810  -48.5430   52.8120 C.3   281  GLU281      0.1602
     28  C         13.5800  -49.9320   53.0090 C.2   281  GLU281      0.2287
     29  O         14.7890  -50.0820   53.1770 O.2   281  GLU281     -0.2864
     30  CB        12.8250  -47.8790   54.1890 C.3   281  GLU281      0.0415
     31  CG        12.4970  -46.3970   54.2190 C.3   281  GLU281      0.1163
     32  CD        11.0040  -46.1320   54.1080 C.2   281  GLU281      0.3649
     33  OE1       10.5720  -45.0200   54.4740 O.co2 281  GLU281     -0.2457
     34  OE2       10.2560  -47.0390   53.6860 O.co2 281  GLU281     -0.2457
     35  N         16.4890  -51.1270   50.7130 N.3   284  VAL284     -0.1245
     36  CA        17.7820  -50.4620   50.7280 C.3   284  VAL284      0.1561
     37  C         18.7580  -51.3420   51.4980 C.2   284  VAL284      0.2260
     38  O         18.4640  -51.7990   52.6040 O.2   284  VAL284     -0.2867
     39  CB        17.7080  -49.0670   51.3740 C.3   284  VAL284      0.0252
     40  CG1       19.0930  -48.4350   51.4380 C.3   284  VAL284      0.0019
     41  CG2       16.7520  -48.1760   50.6000 C.3   284  VAL284      0.0019
     42  N         22.5700  -48.5170   48.4350 N.3   289  GLN289     -0.1245
     43  CA        22.1990  -47.3450   49.2290 C.3   289  GLN289      0.1566
     44  C         22.6400  -46.0050   48.6270 C.2   289  GLN289      0.2260
     45  O         22.0040  -44.9770   48.8620 O.2   289  GLN289     -0.2867
     46  CB        22.6810  -47.4940   50.6780 C.3   289  GLN289      0.0367
     47  CG        24.1900  -47.5500   50.8600 C.3   289  GLN289      0.0905
     48  CD        24.5770  -47.7300   52.3150 C.2   289  GLN289      0.2608
     49  OE1       23.7140  -47.7720   53.1930 O.2   289  GLN289     -0.2717
     50  NE2       25.8750  -47.8450   52.5810 N.am  289  GLN289     -0.0878
     51  N         19.8480  -44.6310   46.3300 N.3   292  VAL292     -0.1231
     52  CA        18.5300  -44.3310   46.8790 C.3   292  VAL292      0.1692
     53  C         18.5380  -43.0060   47.6380 C.2   292  VAL292      0.2593
     54  O         19.4810  -42.7000   48.3670 O.2   292  VAL292     -0.2718
     55  CB        18.0260  -45.4690   47.7960 C.3   292  VAL292      0.0266
     56  CG1       16.6110  -45.1860   48.2860 C.3   292  VAL292      0.0020
     57  CG2       18.0780  -46.8000   47.0610 C.3   292  VAL292      0.0020
     58  N         17.4780  -42.2270   47.4520 N.am  293  SER293     -0.1939
     59  CA        17.3020  -40.9510   48.1310 C.3   293  SER293      0.2040
     60  C         15.8190  -40.7920   48.4480 C.2   293  SER293      0.2485
     61  O         14.9970  -41.5460   47.9270 O.2   293  SER293     -0.2729
     62  CB        17.7830  -39.8120   47.2290 C.3   293  SER293      0.2129
     63  OG        17.0130  -39.7420   46.0420 O.3   293  SER293     -0.2179
     64  N         15.4660  -39.8270   49.3160 N.am  294  PRO294     -0.2715
     65  CA        14.0460  -39.5570   49.5680 C.3   294  PRO294      0.1536
     66  C         13.2810  -39.2130   48.2920 C.2   294  PRO294      0.2598
     67  O         12.1130  -39.5800   48.1620 O.2   294  PRO294     -0.2715
     68  CB        14.0870  -38.3430   50.4950 C.3   294  PRO294      0.0310
     69  CG        15.3660  -38.4930   51.2350 C.3   294  PRO294      0.0237
     70  CD        16.3370  -39.1070   50.2610 C.3   294  PRO294      0.0939
     71  N         13.9340  -38.5170   47.3650 N.am  295  GLU295     -0.1978
     72  CA        13.3100  -38.1480   46.0990 C.3   295  GLU295      0.1602
     73  C         13.0400  -39.3690   45.2260 C.2   295  GLU295      0.2287
     74  O         11.9850  -39.4730   44.6010 O.2   295  GLU295     -0.2864
     75  CB        14.1820  -37.1510   45.3360 C.3   295  GLU295      0.0415
     76  CG        14.4010  -35.8350   46.0590 C.3   295  GLU295      0.1163
     77  CD        15.7000  -35.8130   46.8380 C.2   295  GLU295      0.3649
     78  OE1       16.2630  -36.8980   47.0890 O.co2 295  GLU295     -0.2457
     79  OE2       16.1570  -34.7100   47.2000 O.co2 295  GLU295     -0.2457
     80  N         12.5990  -42.5200   46.1850 N.3   297  LEU297     -0.1231
     81  CA        11.5460  -43.3400   46.7730 C.3   297  LEU297      0.1693
     82  C         10.1690  -42.7170   46.5730 C.2   297  LEU297      0.2592
     83  O          9.1940  -43.4200   46.3150 O.2   297  LEU297     -0.2718
     84  CB        11.8110  -43.5870   48.2580 C.3   297  LEU297      0.0284
     85  CG        13.0230  -44.4580   48.5890 C.3   297  LEU297      0.0019
     86  CD1       13.1110  -44.7040   50.0860 C.3   297  LEU297      0.0001
     87  CD2       12.9620  -45.7740   47.8250 C.3   297  LEU297      0.0001
     88  N         10.0960  -41.3960   46.6910 N.am  298  ASP298     -0.1974
     89  CA         8.8390  -40.6910   46.4850 C.3   298  ASP298      0.1709
     90  C          8.4020  -40.7810   45.0240 C.2   298  ASP298      0.2293
     91  O          7.2190  -40.9660   44.7340 O.2   298  ASP298     -0.2864
     92  CB         8.9720  -39.2260   46.9070 C.3   298  ASP298      0.1436
     93  CG         7.6670  -38.4630   46.7870 C.2   298  ASP298      0.3671
     94  OD1        6.8100  -38.6050   47.6850 O.co2 298  ASP298     -0.2456
     95  OD2        7.4970  -37.7180   45.8000 O.co2 298  ASP298     -0.2456
     96  N          7.2400  -44.3450   44.3870 N.3   301  ASP301     -0.1239
     97  CA         5.9740  -44.5870   45.0660 C.3   301  ASP301      0.1674
     98  C          4.8160  -44.0750   44.2180 C.2   301  ASP301      0.2266
     99  O          3.7100  -44.6100   44.2740 O.2   301  ASP301     -0.2867
    100  CB         5.9640  -43.9140   46.4390 C.3   301  ASP301      0.1410
    101  CG         4.7580  -44.3010   47.2690 C.2   301  ASP301      0.3668
    102  OD1        4.5550  -45.5130   47.4930 O.co2 301  ASP301     -0.2456
    103  OD2        4.0190  -43.3910   47.7040 O.co2 301  ASP301     -0.2456
    104  N          8.9530  -33.9560   38.7820 N.3   320  HIS320     -0.1227
    105  CA         9.2600  -34.4390   40.1260 C.3   320  HIS320      0.1737
    106  C         10.6260  -33.9240   40.5840 C.2   320  HIS320      0.2438
    107  O         11.5460  -33.8090   39.7760 O.2   320  HIS320     -0.2733
    108  CB         9.2130  -35.9730   40.1630 C.3   320  HIS320      0.0758
    109  CG         9.1670  -36.5490   41.5440 C.ar  320  HIS320      0.0818
    110  ND1       10.2880  -36.6750   42.3360 N.ar  320  HIS320     -0.2268
    111  CD2        8.1350  -37.0340   42.2740 C.ar  320  HIS320      0.1154
    112  CE1        9.9480  -37.2110   43.4950 C.ar  320  HIS320      0.1986
    113  NE2        8.6470  -37.4390   43.4820 N.ar  320  HIS320     -0.2212
    114  N         10.7550  -33.6000   41.8830 N.am  321  PRO321     -0.2729
    115  CA        12.0090  -33.1300   42.4890 C.3   321  PRO321      0.1401
    116  C         13.2110  -34.0410   42.2300 C.2   321  PRO321      0.2269
    117  O         14.3540  -33.5850   42.2980 O.2   321  PRO321     -0.2865
    118  CB        11.6790  -33.1050   43.9800 C.3   321  PRO321      0.0296
    119  CG        10.2340  -32.8020   44.0190 C.3   321  PRO321      0.0237
    120  CD         9.6290  -33.5010   42.8290 C.3   321  PRO321      0.0939
@<TRIPOS>BOND
     1   104   105    1
     2   107   106    2
     3   105   108    1
     4   105   106    1
     5   108   109    1
     6   106   114   am
     7   109   111   ar
     8   109   110   ar
     9   114   115    1
    10   114   120    1
    11   116   117    2
    12   116   115    1
    13   111   113   ar
    14   110   112   ar
    15   115   118    1
    16   120   119    1
    17   113   112   ar
    18   118   119    1
    19    98    99    2
    20    98    97    1
    21    96    97    1
    22    74    73    2
    23    91    90    2
    24    90    89    1
    25    97   100    1
    26    25    23   ar
    27    25    24   ar
    28    73    72    1
    29    75    76    1
    30    75    72    1
    31    23    21   ar
    32    24    22   ar
    33    95    93   ar
    34    63    62    1
    35    76    77    1
    36    72    71    1
    37    80    81    1
    38    83    82    2
    39    51    52    1
    40   100   101    1
    41    89    88    1
    42    89    92    1
    43    82    88   am
    44    82    81    1
    45    21    19   ar
    46    21    20   ar
    47    22    19   ar
    48    81    84    1
    49    93    92    1
    50    93    94   ar
    51    77    78   ar
    52    77    79   ar
    53    52    53    1
    54    52    55    1
    55    57    55    1
    56    62    59    1
    57   101   102   ar
    58   101   103   ar
    59    19    17   ar
    60    71    66   am
    61    20    18   ar
    62    58    53   am
    63    58    59    1
    64    53    54    2
    65    55    56    1
    66    87    85    1
    67    61    60    2
    68    59    60    1
    69    67    66    2
    70    84    85    1
    71    66    65    1
    72    17    18   ar
    73    17    16    1
    74    42    43    1
    75    60    64   am
    76    85    86    1
    77    44    45    2
    78    44    43    1
    79    43    46    1
    80    16    13    1
    81    64    65    1
    82    64    70    1
    83    65    68    1
    84    13    14    1
    85    13    12    1
    86    15    14    2
    87    70    69    1
    88    68    69    1
    89    41    39    1
    90    46    47    1
    91    35    36    1
    92    36    39    1
    93    36    37    1
    94    14    26   am
    95    47    48    1
    96    12     3   am
    97    39    40    1
    98    37    38    2
    99     4     3    2
   100     3     2    1
   101    26    27    1
   102    48    50   am
   103    48    49    2
   104    27    28    1
   105    27    30    1
   106     2     1    1
   107     2     5    1
   108    28    29    2
   109    34    32   ar
   110    32    31    1
   111    32    33   ar
   112    30    31    1
   113     5     6    1
   114     6     7    1
   115     7     8    1
   116    10     9    1
   117     8     9    2
   118     9    11    1
