@<TRIPOS>MOLECULE
tmp/4ib5B00.pdb
 153 142 0 0 0
SMALL
GASTEIGER

@<TRIPOS>ATOM
      1  N        -39.4290  -87.6100  -29.4040 N.3    34  GLN34      -0.1231
      2  CA       -40.1400  -86.4000  -28.9940 C.3    34  GLN34       0.1698
      3  C        -41.4300  -86.7210  -28.2340 C.2    34  GLN34       0.2592
      4  O        -41.8760  -85.9300  -27.4010 O.2    34  GLN34      -0.2718
      5  CB       -40.4480  -85.4970  -30.1930 C.3    34  GLN34       0.0381
      6  CG       -40.9910  -84.1310  -29.7850 C.3    34  GLN34       0.0905
      7  CD       -41.3230  -83.2370  -30.9610 C.2    34  GLN34       0.2608
      8  OE1      -41.8960  -83.6830  -31.9550 O.2    34  GLN34      -0.2717
      9  NE2      -40.9640  -81.9630  -30.8520 N.am   34  GLN34      -0.0878
     10  N        -42.0230  -87.8790  -28.5120 N.am   35  ASP35      -0.1974
     11  CA       -43.2590  -88.2790  -27.8390 C.3    35  ASP35       0.1709
     12  C        -43.0610  -88.5590  -26.3480 C.2    35  ASP35       0.2293
     13  O        -44.0320  -88.6870  -25.6030 O.2    35  ASP35      -0.2864
     14  CB       -43.8880  -89.4990  -28.5220 C.3    35  ASP35       0.1436
     15  CG       -44.5140  -89.1630  -29.8630 C.2    35  ASP35       0.3671
     16  OD1      -44.5900  -87.9670  -30.2070 O.co2  35  ASP35      -0.2456
     17  OD2      -44.9350  -90.1010  -30.5730 O.co2  35  ASP35      -0.2456
     18  N        -41.9150  -86.4480  -24.3130 N.3    37  TYR37      -0.1227
     19  CA       -42.0320  -85.1930  -23.5820 C.3    37  TYR37       0.1736
     20  C        -43.3090  -84.4480  -23.9310 C.2    37  TYR37       0.2595
     21  O        -43.7330  -84.4140  -25.0870 O.2    37  TYR37      -0.2718
     22  CB       -40.7990  -84.3170  -23.8180 C.3    37  TYR37       0.0548
     23  CG       -39.5110  -85.0780  -23.6340 C.ar   37  TYR37      -0.0200
     24  CD1      -39.0010  -85.3120  -22.3630 C.ar   37  TYR37      -0.0009
     25  CD2      -38.8150  -85.5800  -24.7240 C.ar   37  TYR37      -0.0009
     26  CE1      -37.8310  -86.0180  -22.1830 C.ar   37  TYR37       0.0417
     27  CE2      -37.6420  -86.2880  -24.5540 C.ar   37  TYR37       0.0417
     28  CZ       -37.1550  -86.5030  -23.2810 C.ar   37  TYR37       0.1957
     29  OH       -35.9890  -87.2070  -23.0990 O.3    37  TYR37      -0.2866
     30  N        -43.9150  -83.8450  -22.9140 N.am   38  GLN38      -0.1965
     31  CA       -45.1240  -83.0630  -23.1050 C.3    38  GLN38       0.1733
     32  C        -45.0210  -81.7320  -22.3660 C.2    38  GLN38       0.2616
     33  O        -44.5860  -81.6840  -21.2160 O.2    38  GLN38      -0.2715
     34  CB       -46.3480  -83.8600  -22.6400 C.3    38  GLN38       0.0408
     35  CG       -46.5770  -85.1440  -23.4340 C.3    38  GLN38       0.0908
     36  CD       -47.8270  -85.8910  -23.0090 C.2    38  GLN38       0.2608
     37  OE1      -48.5110  -85.4980  -22.0650 O.2    38  GLN38      -0.2717
     38  NE2      -48.1220  -86.9870  -23.7000 N.am   38  GLN38      -0.0878
     39  N        -45.4310  -80.6560  -23.0320 N.am   39  LEU39      -0.1963
     40  CA       -45.2990  -79.3100  -22.4830 C.3    39  LEU39       0.1728
     41  C        -46.3380  -79.0170  -21.4060 C.2    39  LEU39       0.2616
     42  O        -47.5080  -79.3740  -21.5470 O.2    39  LEU39      -0.2715
     43  CB       -45.4010  -78.2750  -23.6050 C.3    39  LEU39       0.0311
     44  CG       -44.4680  -78.4930  -24.7990 C.3    39  LEU39       0.0022
     45  CD1      -44.5810  -77.3460  -25.7880 C.3    39  LEU39       0.0001
     46  CD2      -43.0270  -78.6680  -24.3420 C.3    39  LEU39       0.0001
     47  N        -45.9060  -78.3690  -20.3290 N.am   40  VAL40      -0.1977
     48  CA       -46.8090  -78.0560  -19.2280 C.3    40  VAL40       0.1596
     49  C        -47.1130  -76.5620  -19.1630 C.2    40  VAL40       0.2287
     50  O        -48.2750  -76.1560  -19.1330 O.2    40  VAL40      -0.2864
     51  CB       -46.2410  -78.5280  -17.8740 C.3    40  VAL40       0.0276
     52  CG1      -47.1260  -78.0550  -16.7280 C.3    40  VAL40       0.0022
     53  CG2      -46.0930  -80.0420  -17.8580 C.3    40  VAL40       0.0022
     54  N        -37.7050  -69.6240  -26.0640 N.3    50  GLU50      -0.1245
     55  CA       -38.8110  -70.5730  -26.1290 C.3    50  GLU50       0.1567
     56  C        -38.6580  -71.7570  -25.1810 C.2    50  GLU50       0.2260
     57  O        -38.5750  -72.9100  -25.6040 O.2    50  GLU50      -0.2867
     58  CB       -39.0570  -71.0440  -27.5690 C.3    50  GLU50       0.0388
     59  CG       -39.5130  -69.9480  -28.5210 C.3    50  GLU50       0.1160
     60  CD       -40.9430  -69.5190  -28.2630 C.2    50  GLU50       0.3649
     61  OE1      -41.8450  -70.3790  -28.3380 O.co2  50  GLU50      -0.2457
     62  OE2      -41.1680  -68.3230  -27.9830 O.co2  50  GLU50      -0.2457
     63  N        -39.7460  -74.1460  -21.9470 N.3    52  PHE52      -0.1241
     64  CA       -40.9640  -74.6520  -21.3330 C.3    52  PHE52       0.1605
     65  C        -40.6500  -75.6020  -20.1880 C.2    52  PHE52       0.2264
     66  O        -39.6570  -76.3300  -20.2300 O.2    52  PHE52      -0.2867
     67  CB       -41.8100  -75.4060  -22.3620 C.3    52  PHE52       0.0534
     68  CG       -42.2850  -74.5550  -23.5020 C.ar   52  PHE52      -0.0203
     69  CD1      -41.4640  -74.2880  -24.5860 C.ar   52  PHE52      -0.0042
     70  CD2      -43.5630  -74.0230  -23.4900 C.ar   52  PHE52      -0.0042
     71  CE1      -41.9110  -73.5050  -25.6330 C.ar   52  PHE52      -0.0003
     72  CE2      -44.0160  -73.2400  -24.5320 C.ar   52  PHE52      -0.0003
     73  CZ       -43.1910  -72.9800  -25.6050 C.ar   52  PHE52      -0.0000
     74  N        -42.7260  -82.5410  -18.8530 N.3    55  ILE55      -0.1245
     75  CA       -42.6170  -83.8010  -18.1330 C.3    55  ILE55       0.1561
     76  C        -42.2690  -84.9230  -19.1040 C.2    55  ILE55       0.2260
     77  O        -42.8290  -85.0230  -20.1970 O.2    55  ILE55      -0.2867
     78  CB       -43.8980  -84.1410  -17.3460 C.3    55  ILE55       0.0252
     79  CG1      -45.1210  -84.1700  -18.2560 C.3    55  ILE55       0.0019
     80  CG2      -44.0950  -83.1560  -16.1980 C.3    55  ILE55       0.0019
     81  CD1      -46.2600  -84.9450  -17.6560 C.3    55  ILE55       0.0001
     82  N        -42.9720  -88.3330  -19.8290 N.3    57  ILE57      -0.1245
     83  CA       -44.0860  -89.2250  -19.5130 C.3    57  ILE57       0.1561
     84  C        -43.6750  -90.6880  -19.3860 C.2    57  ILE57       0.2260
     85  O        -44.4810  -91.5300  -18.9910 O.2    57  ILE57      -0.2867
     86  CB       -45.2350  -89.1090  -20.5440 C.3    57  ILE57       0.0252
     87  CG1      -44.7560  -89.5490  -21.9310 C.3    57  ILE57       0.0019
     88  CG2      -45.7810  -87.6920  -20.5790 C.3    57  ILE57       0.0019
     89  CD1      -45.8690  -89.7260  -22.9410 C.3    57  ILE57       0.0001
     90  N        -37.5410  -77.8800  -21.5990 N.3    65  VAL65      -0.1245
     91  CA       -37.4200  -77.9730  -23.0470 C.3    65  VAL65       0.1561
     92  C        -37.1210  -76.6060  -23.6510 C.2    65  VAL65       0.2260
     93  O        -37.8460  -75.6390  -23.4170 O.2    65  VAL65      -0.2867
     94  CB       -38.6980  -78.5490  -23.6900 C.3    65  VAL65       0.0252
     95  CG1      -38.6530  -78.3860  -25.2050 C.3    65  VAL65       0.0019
     96  CG2      -38.8620  -80.0140  -23.3150 C.3    65  VAL65       0.0019
     97  N        -36.8780  -74.8560  -27.1830 N.3    67  ILE67      -0.1245
     98  CA       -37.1210  -74.8930  -28.6180 C.3    67  ILE67       0.1561
     99  C        -36.1770  -73.9480  -29.3450 C.2    67  ILE67       0.2260
    100  O        -36.1200  -72.7580  -29.0420 O.2    67  ILE67      -0.2867
    101  CB       -38.5670  -74.4880  -28.9490 C.3    67  ILE67       0.0252
    102  CG1      -39.5570  -75.2880  -28.1020 C.3    67  ILE67       0.0019
    103  CG2      -38.8500  -74.6780  -30.4300 C.3    67  ILE67       0.0019
    104  CD1      -39.5630  -76.7510  -28.4150 C.3    67  ILE67       0.0001
    105  N        -35.8130  -72.2020  -32.4020 N.3    69  LYS69      -0.1245
    106  CA       -36.4120  -71.6810  -33.6300 C.3    69  LYS69       0.1561
    107  C        -36.8130  -70.2080  -33.4840 C.2    69  LYS69       0.2260
    108  O        -37.4720  -69.8310  -32.5140 O.2    69  LYS69      -0.2867
    109  CB       -37.6100  -72.5480  -34.0590 C.3    69  LYS69       0.0271
    110  CG       -38.9980  -71.9800  -33.7810 C.3    69  LYS69       0.0035
    111  CD       -39.8350  -71.9090  -35.0520 C.3    69  LYS69       0.0206
    112  CE       -40.1190  -73.2940  -35.6100 C.3    69  LYS69       0.1093
    113  NZ       -41.0540  -73.2430  -36.7670 N.3    69  LYS69      -0.1314
    114  N        -34.2910  -83.7200  -29.1840 N.3    99  VAL99      -0.1245
    115  CA       -35.4060  -84.2200  -29.9790 C.3    99  VAL99       0.1561
    116  C        -35.7430  -83.2790  -31.1250 C.2    99  VAL99       0.2260
    117  O        -35.2280  -82.1640  -31.2020 O.2    99  VAL99      -0.2867
    118  CB       -36.6710  -84.4510  -29.1230 C.3    99  VAL99       0.0252
    119  CG1      -36.4140  -85.5080  -28.0590 C.3    99  VAL99       0.0019
    120  CG2      -37.1310  -83.1450  -28.4900 C.3    99  VAL99       0.0019
    121  N        -39.1780  -82.2870  -34.0490 N.3   101  ASP101     -0.1225
    122  CA       -40.5170  -82.4960  -34.5780 C.3   101  ASP101      0.1790
    123  C        -40.3940  -83.2270  -35.9070 C.2   101  ASP101      0.2439
    124  O        -39.7700  -82.7210  -36.8330 O.2   101  ASP101     -0.2733
    125  CB       -41.2120  -81.1440  -34.7680 C.3   101  ASP101      0.1423
    126  CG       -42.6510  -81.2770  -35.2390 C.2   101  ASP101      0.3668
    127  OD1      -43.1860  -82.4040  -35.2440 O.co2 101  ASP101     -0.2456
    128  OD2      -43.2550  -80.2470  -35.5990 O.co2 101  ASP101     -0.2456
    129  N        -40.9740  -84.4310  -36.0040 N.am  102  PRO102     -0.2729
    130  CA       -40.8740  -85.1970  -37.2520 C.3   102  PRO102      0.1401
    131  C        -41.4440  -84.4490  -38.4610 C.2   102  PRO102      0.2269
    132  O        -40.9410  -84.6170  -39.5700 O.2   102  PRO102     -0.2865
    133  CB       -41.7000  -86.4560  -36.9600 C.3   102  PRO102      0.0296
    134  CG       -42.5580  -86.0970  -35.7810 C.3   102  PRO102      0.0237
    135  CD       -41.7390  -85.1490  -34.9730 C.3   102  PRO102      0.0939
    136  N        -42.3300  -80.6710  -38.7380 N.3   104  SER104     -0.1217
    137  CA       -41.7580  -79.3430  -38.9620 C.3   104  SER104      0.1889
    138  C        -40.2320  -79.3250  -38.8970 C.2   104  SER104      0.2288
    139  O        -39.6060  -78.3370  -39.2850 O.2   104  SER104     -0.2866
    140  CB       -42.3290  -78.3370  -37.9590 C.3   104  SER104      0.2089
    141  OG       -41.8000  -78.5520  -36.6620 O.3   104  SER104     -0.2183
    142  N        -38.4460  -78.9310  -36.3840 N.3   106  THR106     -0.1218
    143  CA       -37.9690  -78.0240  -35.3420 C.3   106  THR106      0.1862
    144  C        -37.3030  -78.7930  -34.2020 C.2   106  THR106      0.2287
    145  O        -37.9430  -79.6150  -33.5450 O.2   106  THR106     -0.2866
    146  CB       -39.1150  -77.1720  -34.7640 C.3   106  THR106      0.1770
    147  OG1      -39.8120  -76.5130  -35.8290 O.3   106  THR106     -0.2211
    148  CG2      -38.5700  -76.1330  -33.7970 C.3   106  THR106      0.0375
    149  N        -35.2100  -79.3750  -30.4970 N.3   108  ALA108     -0.1245
    150  CA       -35.3280  -78.9190  -29.1180 C.3   108  ALA108      0.1562
    151  C        -34.3030  -79.6190  -28.2340 C.2   108  ALA108      0.2260
    152  O        -33.9910  -80.7920  -28.4410 O.2   108  ALA108     -0.2867
    153  CB       -36.7330  -79.1630  -28.5970 C.3   108  ALA108      0.0290
@<TRIPOS>BOND
     1   132   131    2
     2   139   138    2
     3   137   138    1
     4   137   136    1
     5   137   140    1
     6   131   130    1
     7   140   141    1
     8   130   133    1
     9   130   129    1
    10   133   134    1
    11   124   123    2
    12   113   112    1
    13   142   143    1
    14   129   123   am
    15   129   135    1
    16   123   122    1
    17   147   146    1
    18   134   135    1
    19   112   111    1
    20   128   126   ar
    21   143   146    1
    22   143   144    1
    23   127   126   ar
    24   126   125    1
    25   111   110    1
    26   125   122    1
    27   146   148    1
    28   122   121    1
    29   144   145    2
    30   109   110    1
    31   109   106    1
    32   106   107    1
    33   106   105    1
    34   107   108    2
    35     8     7    2
    36   117   116    2
    37   116   115    1
    38     7     9   am
    39     7     6    1
    40    17    15   ar
    41   149   150    1
    42   103   101    1
    43    16    15   ar
    44     5     6    1
    45     5     2    1
    46   115   114    1
    47   115   118    1
    48    15    14    1
    49     1     2    1
    50    99   100    2
    51    99    98    1
    52   118   120    1
    53   118   119    1
    54   150   153    1
    55   150   151    1
    56     2     3    1
    57   101    98    1
    58   101   102    1
    59    98    97    1
    60    14    11    1
    61    59    60    1
    62    59    58    1
    63    10     3   am
    64    10    11    1
    65   152   151    2
    66   104   102    1
    67    61    60   ar
    68    60    62   ar
    69     3     4    2
    70    11    12    1
    71    58    55    1
    72    12    13    2
    73    55    54    1
    74    55    56    1
    75    45    44    1
    76    71    73   ar
    77    71    69   ar
    78    73    72   ar
    79    57    56    2
    80    95    94    1
    81    21    20    2
    82    44    46    1
    83    44    43    1
    84    25    27   ar
    85    25    23   ar
    86    69    68   ar
    87    27    28   ar
    88    72    70   ar
    89    18    19    1
    90    20    19    1
    91    20    30   am
    92    22    23    1
    93    22    19    1
    94    38    36   am
    95    94    96    1
    96    94    91    1
    97    92    93    2
    98    92    91    1
    99    23    24   ar
   100    43    40    1
   101    68    70   ar
   102    68    67    1
   103    35    36    1
   104    35    34    1
   105    28    29    1
   106    28    26   ar
   107    31    30    1
   108    31    34    1
   109    31    32    1
   110    91    90    1
   111    39    40    1
   112    39    32   am
   113    36    37    2
   114    89    87    1
   115    40    41    1
   116    32    33    2
   117    24    26   ar
   118    67    64    1
   119    63    64    1
   120    87    86    1
   121    42    41    2
   122    41    47   am
   123    64    65    1
   124    88    86    1
   125    86    83    1
   126    47    48    1
   127    66    65    2
   128    77    76    2
   129    82    83    1
   130    83    84    1
   131    84    85    2
   132    48    49    1
   133    48    51    1
   134    49    50    2
   135    76    75    1
   136    74    75    1
   137    79    81    1
   138    79    78    1
   139    75    78    1
   140    51    53    1
   141    51    52    1
   142    78    80    1
