@<TRIPOS>MOLECULE
tmp/4ib7A00.pdb
 157 140 0 0 0
SMALL
GASTEIGER

@<TRIPOS>ATOM
      1  N         23.4270   -8.0760   -9.0270 N.3    12  ILE12      -0.1245
      2  CA        22.0530   -8.2530   -8.6100 C.3    12  ILE12       0.1561
      3  C         21.5090   -9.6580   -8.8860 C.2    12  ILE12       0.2260
      4  O         20.5440  -10.0680   -8.2460 O.2    12  ILE12      -0.2867
      5  CB        21.1330   -7.1710   -9.2180 C.3    12  ILE12       0.0252
      6  CG1       19.8310   -7.0220   -8.4070 C.3    12  ILE12       0.0019
      7  CG2       20.8710   -7.4090  -10.7000 C.3    12  ILE12       0.0019
      8  CD1       20.0340   -6.4550   -7.0060 C.3    12  ILE12       0.0001
      9  N          3.6300    1.6260    8.2140 N.3    38  PRO38      -0.2102
     10  CA         3.7880    1.5770    6.7410 C.3    38  PRO38       0.1504
     11  C          5.0370    0.8440    6.2310 C.2    38  PRO38       0.2575
     12  O          4.9480    0.1020    5.2340 O.2    38  PRO38      -0.2718
     13  CB         3.8290    3.0550    6.3170 C.3    38  PRO38       0.0282
     14  CG         3.8750    3.8560    7.5790 C.3    38  PRO38       0.0208
     15  CD         3.4330    3.0010    8.7190 C.3    38  PRO38       0.0893
     16  N          6.1730    1.0340    6.9080 N.am   39  LEU39      -0.1980
     17  CA         7.4330    0.4440    6.4500 C.3    39  LEU39       0.1596
     18  C          7.9590   -0.7340    7.2610 C.2    39  LEU39       0.2287
     19  O          9.1260   -1.1110    7.1390 O.2    39  LEU39      -0.2864
     20  CB         8.5110    1.5110    6.2540 C.3    39  LEU39       0.0297
     21  CG         8.2160    2.4650    5.0950 C.3    39  LEU39       0.0022
     22  CD1        9.3850    3.3970    4.8680 C.3    39  LEU39       0.0001
     23  CD2        7.8980    1.7110    3.8160 C.3    39  LEU39       0.0001
     24  N          8.1030   -4.1200    6.9810 N.3    41  VAL41      -0.1245
     25  CA         7.9160   -5.1750    5.9870 C.3    41  VAL41       0.1561
     26  C          8.9070   -6.3030    6.2570 C.2    41  VAL41       0.2260
     27  O          9.9820   -6.0760    6.8050 O.2    41  VAL41      -0.2867
     28  CB         8.0200   -4.6220    4.5350 C.3    41  VAL41       0.0252
     29  CG1        6.9200   -3.6040    4.2790 C.3    41  VAL41       0.0019
     30  CG2        9.3800   -3.9590    4.2860 C.3    41  VAL41       0.0019
     31  N         10.9630   -9.3600    4.4860 N.3    43  VAL43      -0.1245
     32  CA        11.3460   -9.7810    3.1400 C.3    43  VAL43       0.1561
     33  C         11.3210  -11.3090    3.0560 C.2    43  VAL43       0.2260
     34  O         11.8930  -11.9930    3.9070 O.2    43  VAL43      -0.2867
     35  CB        12.7230   -9.2100    2.7110 C.3    43  VAL43       0.0252
     36  CG1       13.1900   -9.8410    1.4070 C.3    43  VAL43       0.0019
     37  CG2       12.6690   -7.6890    2.5680 C.3    43  VAL43       0.0019
     38  N         13.9810  -12.5210   -2.9330 N.3    46  LEU46      -0.1245
     39  CA        14.2690  -11.5340   -3.9670 C.3    46  LEU46       0.1561
     40  C         14.3770  -12.1830   -5.3410 C.2    46  LEU46       0.2260
     41  O         15.0840  -13.1750   -5.5100 O.2    46  LEU46      -0.2867
     42  CB        15.5260  -10.7250   -3.6270 C.3    46  LEU46       0.0270
     43  CG        15.4960   -9.9470   -2.3020 C.3    46  LEU46       0.0019
     44  CD1       16.8320   -9.2680   -2.0630 C.3    46  LEU46       0.0001
     45  CD2       14.3750   -8.9300   -2.2810 C.3    46  LEU46       0.0001
     46  N         14.4380   -5.6220  -10.1340 N.3    54  LEU54      -0.1245
     47  CA        14.3740   -6.4470   -8.9340 C.3    54  LEU54       0.1561
     48  C         12.9840   -6.5240   -8.3600 C.2    54  LEU54       0.2260
     49  O         12.4110   -5.5280   -7.9100 O.2    54  LEU54      -0.2867
     50  CB        15.3760   -5.9790   -7.8740 C.3    54  LEU54       0.0270
     51  CG        15.4110   -6.7370   -6.5410 C.3    54  LEU54       0.0019
     52  CD1       16.1080   -8.0870   -6.6600 C.3    54  LEU54       0.0001
     53  CD2       16.0840   -5.8790   -5.4850 C.3    54  LEU54       0.0001
     54  N         10.4580   -8.0210   -5.5280 N.3    56  ILE56      -0.1245
     55  CA        10.5620   -8.3840   -4.1230 C.3    56  ILE56       0.1561
     56  C          9.2670   -9.0140   -3.6320 C.2    56  ILE56       0.2260
     57  O          8.1890   -8.4490   -3.8260 O.2    56  ILE56      -0.2867
     58  CB        10.8760   -7.1480   -3.2470 C.3    56  ILE56       0.0252
     59  CG1       12.1970   -6.5080   -3.6910 C.3    56  ILE56       0.0019
     60  CG2       10.9720   -7.5420   -1.7780 C.3    56  ILE56       0.0019
     61  CD1       12.1280   -5.0080   -3.8060 C.3    56  ILE56       0.0001
     62  N          7.3640   -9.9050   -0.1640 N.3    58  LEU58      -0.1245
     63  CA         7.3940   -9.6060    1.2680 C.3    58  LEU58       0.1561
     64  C          6.0430   -9.8150    1.9650 C.2    58  LEU58       0.2260
     65  O          5.0130   -9.9550    1.3040 O.2    58  LEU58      -0.2867
     66  CB         7.9180   -8.1780    1.5040 C.3    58  LEU58       0.0270
     67  CG         7.2020   -6.9770    0.8650 C.3    58  LEU58       0.0019
     68  CD1        5.9580   -6.5810    1.6410 C.3    58  LEU58       0.0001
     69  CD2        8.1260   -5.7730    0.7780 C.3    58  LEU58       0.0001
     70  N          3.4170   -8.1010    4.9110 N.3    60  LYS60      -0.1245
     71  CA         3.0900   -6.8770    5.6110 C.3    60  LYS60       0.1561
     72  C          1.7680   -7.0310    6.3730 C.2    60  LYS60       0.2260
     73  O          0.7600   -7.4440    5.7970 O.2    60  LYS60      -0.2867
     74  CB         2.9920   -5.7050    4.6250 C.3    60  LYS60       0.0271
     75  CG         3.3190   -4.3550    5.2450 C.3    60  LYS60       0.0035
     76  CD         2.2990   -3.2870    4.8860 C.3    60  LYS60       0.0206
     77  CE         2.4020   -2.0990    5.8320 C.3    60  LYS60       0.1093
     78  NZ         2.4230   -2.4840    7.2790 N.3    60  LYS60      -0.1314
     79  N          2.6950   -9.6810   -0.3840 N.3    69  LYS69      -0.1245
     80  CA         2.8330   -8.5300   -1.2730 C.3    69  LYS69       0.1561
     81  C          4.0230   -8.6610   -2.2130 C.2    69  LYS69       0.2260
     82  O          5.0580   -9.2380   -1.8600 O.2    69  LYS69      -0.2867
     83  CB         2.9400   -7.2420   -0.4660 C.3    69  LYS69       0.0271
     84  CG         1.6100   -6.5560   -0.2300 C.3    69  LYS69       0.0035
     85  CD         1.7920   -5.3210    0.6260 C.3    69  LYS69       0.0206
     86  CE         0.4770   -4.5770    0.8020 C.3    69  LYS69       0.1093
     87  NZ         0.2360   -3.6080   -0.3030 N.3    69  LYS69      -0.1314
     88  N          6.5190   -6.5000   -5.0740 N.3    71  ILE71      -0.1245
     89  CA         7.0160   -5.1670   -5.4390 C.3    71  ILE71       0.1561
     90  C          8.0980   -5.3290   -6.4910 C.2    71  ILE71       0.2260
     91  O          8.9200   -6.2400   -6.4010 O.2    71  ILE71      -0.2867
     92  CB         7.6270   -4.4280   -4.2180 C.3    71  ILE71       0.0252
     93  CG1        6.5950   -4.2720   -3.1040 C.3    71  ILE71       0.0019
     94  CG2        8.1830   -3.0510   -4.5980 C.3    71  ILE71       0.0019
     95  CD1        7.1070   -3.4660   -1.9320 C.3    71  ILE71       0.0001
     96  N         11.2000    2.4560   -6.7770 N.3    84  ILE84      -0.1245
     97  CA         9.9270    1.8000   -6.5290 C.3    84  ILE84       0.1561
     98  C          8.7610    2.6840   -6.9710 C.2    84  ILE84       0.2260
     99  O          8.8070    3.9080   -6.8200 O.2    84  ILE84      -0.2867
    100  CB         9.8210    1.4070   -5.0350 C.3    84  ILE84       0.0252
    101  CG1       10.4940    0.0560   -4.8150 C.3    84  ILE84       0.0019
    102  CG2        8.3760    1.3940   -4.5410 C.3    84  ILE84       0.0019
    103  CD1       10.8250   -0.2180   -3.3700 C.3    84  ILE84       0.0001
    104  N          5.9500    3.9020   -5.9890 N.3    86  ALA86      -0.1245
    105  CA         5.0380    4.4960   -5.0070 C.3    86  ALA86       0.1562
    106  C          4.5970    5.8880   -5.4810 C.2    86  ALA86       0.2260
    107  O          5.1340    6.3920   -6.4740 O.2    86  ALA86      -0.2867
    108  CB         5.7000    4.5680   -3.6390 C.3    86  ALA86       0.0290
    109  N         15.7670    2.4030   -3.3910 N.3    92  VAL92      -0.1245
    110  CA        16.2680    1.3050   -2.5920 C.3    92  VAL92       0.1561
    111  C         17.7380    1.3230   -2.9020 C.2    92  VAL92       0.2260
    112  O         18.1030    1.3750   -4.0650 O.2    92  VAL92      -0.2867
    113  CB        15.6610   -0.0480   -3.0510 C.3    92  VAL92       0.0252
    114  CG1       16.4020   -1.2330   -2.4470 C.3    92  VAL92       0.0019
    115  CG2       14.1880   -0.1040   -2.7190 C.3    92  VAL92       0.0019
    116  N         21.4110   -0.7300   -2.0950 N.3    94  VAL94      -0.1245
    117  CA        22.0780   -1.8810   -1.5210 C.3    94  VAL94       0.1561
    118  C         23.4170   -1.3880   -1.0160 C.2    94  VAL94       0.2260
    119  O         24.2590   -0.9350   -1.8050 O.2    94  VAL94      -0.2867
    120  CB        22.2760   -3.0220   -2.5580 C.3    94  VAL94       0.0252
    121  CG1       22.9900   -4.2140   -1.9300 C.3    94  VAL94       0.0019
    122  CG2       20.9500   -3.4410   -3.1850 C.3    94  VAL94       0.0019
    123  N         22.6790   -9.3090    3.4610 N.3   103  LEU103     -0.1245
    124  CA        22.5300   -8.1260    2.6180 C.3   103  LEU103      0.1561
    125  C         21.9880   -6.9810    3.4630 C.2   103  LEU103      0.2260
    126  O         20.9790   -7.1560    4.1520 O.2   103  LEU103     -0.2867
    127  CB        21.5890   -8.3910    1.4330 C.3   103  LEU103      0.0270
    128  CG        21.4890   -7.2750    0.3780 C.3   103  LEU103      0.0019
    129  CD1       21.2150   -7.8850   -0.9920 C.3   103  LEU103      0.0001
    130  CD2       20.4300   -6.2130    0.7040 C.3   103  LEU103      0.0001
    131  N         20.3700   -3.1810    3.1390 N.3   105  PHE105     -0.1241
    132  CA        19.7340   -2.2540    2.2390 C.3   105  PHE105      0.1605
    133  C         19.0200   -1.1970    3.0640 C.2   105  PHE105      0.2264
    134  O         18.7500   -1.4050    4.2570 O.2   105  PHE105     -0.2867
    135  CB        18.7590   -2.9740    1.2910 C.3   105  PHE105      0.0534
    136  CG        17.3800   -3.2260    1.8680 C.ar  105  PHE105     -0.0203
    137  CD1       16.3670   -2.2720    1.7400 C.ar  105  PHE105     -0.0042
    138  CD2       17.0770   -4.4390    2.4840 C.ar  105  PHE105     -0.0042
    139  CE1       15.0820   -2.5120    2.2470 C.ar  105  PHE105     -0.0003
    140  CE2       15.7940   -4.6880    2.9780 C.ar  105  PHE105     -0.0003
    141  CZ        14.8010   -3.7280    2.8710 C.ar  105  PHE105     -0.0000
    142  N         15.8670    1.9410    2.2310 N.3   107  MET107     -0.1245
    143  CA        15.0610    2.6050    1.2410 C.3   107  MET107      0.1570
    144  C         14.6910    3.9900    1.7610 C.2   107  MET107      0.2261
    145  O         14.4940    4.1900    2.9660 O.2   107  MET107     -0.2867
    146  CB        13.8630    1.7420    0.8110 C.3   107  MET107      0.0387
    147  CG        12.5000    2.2110    1.2590 C.3   107  MET107      0.0595
    148  SD        11.3340    1.9640   -0.0900 S.3   107  MET107     -0.1393
    149  CE         9.8070    2.4400    0.7180 C.3   107  MET107      0.0692
    150  N         19.3640   -8.1230    6.1030 N.3   117  LEU117     -0.1245
    151  CA        18.8050   -9.3620    5.5700 C.3   117  LEU117      0.1561
    152  C         19.7690  -10.4860    5.7660 C.2   117  LEU117      0.2260
    153  O         20.9630  -10.3360    5.5030 O.2   117  LEU117     -0.2867
    154  CB        18.4830   -9.2310    4.0800 C.3   117  LEU117      0.0270
    155  CG        17.3700   -8.2470    3.8020 C.3   117  LEU117      0.0019
    156  CD1       17.0250   -8.2810    2.3250 C.3   117  LEU117      0.0001
    157  CD2       16.1500   -8.5090    4.6900 C.3   117  LEU117      0.0001
@<TRIPOS>BOND
     1     7     5    1
     2    46    47    1
     3     5     2    1
     4     5     6    1
     5     1     2    1
     6    47    48    1
     7    47    50    1
     8     3     2    1
     9     3     4    2
    10     6     8    1
    11    48    49    2
    12    50    51    1
    13    98    99    2
    14    98    97    1
    15    96    97    1
    16    52    51    1
    17    51    53    1
    18    97   100    1
    19    90    91    2
    20    90    89    1
    21   107   106    2
    22   104   105    1
    23    54    55    1
    24    41    40    2
    25   106   105    1
    26    89    88    1
    27    89    92    1
    28    40    39    1
    29   100   101    1
    30   100   102    1
    31   105   108    1
    32   101   103    1
    33    94    92    1
    34    92    93    1
    35    55    56    1
    36    55    58    1
    37   112   111    2
    38    39    42    1
    39    39    38    1
    40    57    56    2
    41    61    59    1
    42    59    58    1
    43    42    43    1
    44   109   110    1
    45    58    60    1
    46   122   120    1
    47    93    95    1
    48   113   115    1
    49   113   110    1
    50   113   114    1
    51   111   110    1
    52   120   121    1
    53   120   117    1
    54    43    45    1
    55    43    44    1
    56    81    82    2
    57    81    80    1
    58   116   117    1
    59   119   118    2
    60   117   118    1
    61    80    83    1
    62    80    79    1
    63   129   128    1
    64    83    84    1
    65    87    86    1
    66    84    85    1
    67    62    63    1
    68   148   149    1
    69   148   147    1
    70   128   130    1
    71   128   127    1
    72    85    86    1
    73    69    67    1
    74   146   143    1
    75   146   147    1
    76    67    66    1
    77    67    68    1
    78   143   144    1
    79   143   142    1
    80    63    66    1
    81    63    64    1
    82   135   136    1
    83   135   132    1
    84    65    64    2
    85    36    35    1
    86   127   124    1
    87   137   136   ar
    88   137   139   ar
    89   144   145    2
    90   136   138   ar
    91   132   133    1
    92   132   131    1
    93   139   141   ar
    94   156   155    1
    95   138   140   ar
    96    37    35    1
    97   124   123    1
    98   124   125    1
    99    35    32    1
   100   141   140   ar
   101    33    32    1
   102    33    34    2
   103   133   134    2
   104    32    31    1
   105   125   126    2
   106   155   154    1
   107   155   157    1
   108    23    21    1
   109   154   151    1
   110    29    28    1
   111    30    28    1
   112    28    25    1
   113    74    75    1
   114    74    71    1
   115    22    21    1
   116    76    75    1
   117    76    77    1
   118    70    71    1
   119    21    20    1
   120    12    11    2
   121   153   152    2
   122   151   152    1
   123   151   150    1
   124    71    72    1
   125    73    72    2
   126    77    78    1
   127    25    26    1
   128    25    24    1
   129    11    10    1
   130    11    16   am
   131    20    17    1
   132    26    27    2
   133    13    10    1
   134    13    14    1
   135    17    16    1
   136    17    18    1
   137    10     9    1
   138    19    18    2
   139    14    15    1
   140     9    15    1
