@<TRIPOS>MOLECULE
tmp/4ibbB00.pdb
 164 159 0 0 0
SMALL
GASTEIGER

@<TRIPOS>ATOM
      1  N          3.8650   21.7310   32.1670 N.3     5  ALA5       -0.1231
      2  CA         2.7290   22.1630   31.3710 C.3     5  ALA5        0.1694
      3  C          1.4870   21.3810   31.7770 C.2     5  ALA5        0.2591
      4  O          0.3980   21.9440   31.8770 O.2     5  ALA5       -0.2718
      5  CB         3.0080   21.9880   29.8990 C.3     5  ALA5        0.0304
      6  N          1.6680   20.0850   32.0220 N.am    6  LYS6       -0.1980
      7  CA         0.5660   19.2140   32.4420 C.3     6  LYS6        0.1596
      8  C          0.0030   19.5960   33.8090 C.2     6  LYS6        0.2287
      9  O         -1.2140   19.6910   33.9720 O.2     6  LYS6       -0.2864
     10  CB         1.0110   17.7510   32.4710 C.3     6  LYS6        0.0298
     11  CG        -0.1490   16.7710   32.5970 C.3     6  LYS6        0.0038
     12  CD         0.3150   15.3900   33.0230 C.3     6  LYS6        0.0206
     13  CE         0.1590   15.2200   34.5300 C.3     6  LYS6        0.1093
     14  NZ         0.4820   13.8390   34.9860 N.3     6  LYS6       -0.1314
     15  N         -1.9320   22.7790   33.3230 N.3     9  ARG9       -0.1245
     16  CA        -3.1900   22.4760   32.6440 C.3     9  ARG9        0.1563
     17  C         -4.2150   21.9300   33.6450 C.2     9  ARG9        0.2260
     18  O         -5.3680   22.3870   33.6830 O.2     9  ARG9       -0.2867
     19  CB        -2.9820   21.4770   31.5030 C.3     9  ARG9        0.0307
     20  CG        -4.2760   21.1410   30.7650 C.3     9  ARG9        0.0489
     21  CD        -4.1080   19.9690   29.8100 C.3     9  ARG9        0.2205
     22  NE        -4.1540   18.6890   30.5140 N.pl3   9  ARG9       -0.0865
     23  CZ        -3.2420   17.7320   30.3850 C.cat   9  ARG9        0.5346
     24  NH1       -2.2050   17.9070   29.5720 N.pl3   9  ARG9        0.1354
     25  NH2       -3.3700   16.5990   31.0650 N.pl3   9  ARG9        0.1354
     26  N         -9.7420   25.0730   25.8120 N.3    25  GLN25      -0.1245
     27  CA        -8.7860   25.1760   24.7110 C.3    25  GLN25       0.1566
     28  C         -7.7840   26.3100   24.9640 C.2    25  GLN25       0.2260
     29  O         -6.6010   26.1760   24.6280 O.2    25  GLN25      -0.2867
     30  CB        -9.5120   25.3760   23.3760 C.3    25  GLN25       0.0367
     31  CG        -8.5830   25.3350   22.1440 C.3    25  GLN25       0.0905
     32  CD        -7.8110   24.0360   22.0010 C.2    25  GLN25       0.2608
     33  OE1       -8.1910   23.0010   22.5500 O.2    25  GLN25      -0.2717
     34  NE2       -6.7120   24.0870   21.2560 N.am   25  GLN25      -0.0878
     35  N         -5.1460   25.1320   27.1020 N.3    28  GLN28      -0.1231
     36  CA        -4.2110   24.3570   26.2860 C.3    28  GLN28       0.1698
     37  C         -3.1990   25.2450   25.5720 C.2    28  GLN28       0.2592
     38  O         -1.9950   24.9640   25.5770 O.2    28  GLN28      -0.2718
     39  CB        -4.9680   23.5310   25.2480 C.3    28  GLN28       0.0381
     40  CG        -5.7670   22.3820   25.8420 C.3    28  GLN28       0.0905
     41  CD        -4.9730   21.1010   25.8660 C.2    28  GLN28       0.2608
     42  OE1       -3.7880   21.1000   26.1930 O.2    28  GLN28      -0.2717
     43  NE2       -5.6150   20.0010   25.4970 N.am   28  GLN28      -0.0878
     44  N         -3.7010   26.2930   24.9340 N.am   29  VAL29      -0.1980
     45  CA        -2.8410   27.2130   24.1980 C.3    29  VAL29       0.1595
     46  C         -1.8580   27.9190   25.1420 C.2    29  VAL29       0.2287
     47  O         -0.6560   27.9660   24.8590 O.2    29  VAL29      -0.2864
     48  CB        -3.6880   28.2460   23.4080 C.3    29  VAL29       0.0276
     49  CG1       -2.8170   29.3720   22.8910 C.3    29  VAL29       0.0022
     50  CG2       -4.4350   27.5450   22.2710 C.3    29  VAL29       0.0022
     51  N         -0.7330   26.9450   28.0360 N.3    31  CYS31      -0.1221
     52  CA         0.2780   26.0040   28.5200 C.3    31  CYS31       0.1808
     53  C          1.3020   25.6330   27.4420 C.2    31  CYS31       0.2601
     54  O          2.4980   25.5500   27.7250 O.2    31  CYS31      -0.2717
     55  CB        -0.3920   24.7430   29.0780 C.3    31  CYS31       0.0970
     56  SG        -1.2510   25.0260   30.6600 S.3    31  CYS31      -0.0800
     57  N          0.8470   25.4440   26.2060 N.am   32  LYS32      -0.1965
     58  CA         1.7540   25.1310   25.0890 C.3    32  LYS32       0.1728
     59  C          2.7200   26.2780   24.7740 C.2    32  LYS32       0.2616
     60  O          3.9220   26.0750   24.6840 O.2    32  LYS32      -0.2715
     61  CB         0.9460   24.7740   23.8430 C.3    32  LYS32       0.0311
     62  CG         1.7720   24.7010   22.5710 C.3    32  LYS32       0.0038
     63  CD         2.2120   23.2820   22.3000 C.3    32  LYS32       0.0206
     64  CE         2.7200   23.1470   20.8770 C.3    32  LYS32       0.1093
     65  NZ         3.7810   24.1540   20.5690 N.3    32  LYS32      -0.1314
     66  N          2.1960   27.4860   24.6140 N.am   33  LEU33      -0.1977
     67  CA         3.0630   28.6270   24.3610 C.3    33  LEU33       0.1596
     68  C          3.9110   28.9310   25.5930 C.2    33  LEU33       0.2287
     69  O          5.0750   29.3190   25.4670 O.2    33  LEU33      -0.2864
     70  CB         2.2590   29.8590   23.9560 C.3    33  LEU33       0.0297
     71  CG         1.8750   29.9790   22.4770 C.3    33  LEU33       0.0022
     72  CD1        1.2310   28.7070   21.9440 C.3    33  LEU33       0.0001
     73  CD2        0.9470   31.1650   22.2630 C.3    33  LEU33       0.0001
     74  N          5.0740   26.7810   27.7900 N.3    35  LYS35      -0.1231
     75  CA         6.1730   25.8290   27.8640 C.3    35  LYS35       0.1693
     76  C          7.2480   26.1770   26.8540 C.2    35  LYS35       0.2592
     77  O          8.4360   26.0670   27.1390 O.2    35  LYS35      -0.2718
     78  CB         5.6840   24.4050   27.6220 C.3    35  LYS35       0.0285
     79  CG         6.7760   23.3600   27.8430 C.3    35  LYS35       0.0035
     80  CD         6.3710   22.0150   27.3050 C.3    35  LYS35       0.0206
     81  CE         7.5720   21.0920   27.1710 C.3    35  LYS35       0.1093
     82  NZ         7.2430   19.8810   26.3620 N.3    35  LYS35      -0.1314
     83  N          6.8300   26.5850   25.6640 N.am   36  ASP36      -0.1974
     84  CA         7.7750   26.8560   24.5860 C.3    36  ASP36       0.1709
     85  C          8.5810   28.1400   24.8290 C.2    36  ASP36       0.2293
     86  O          9.6070   28.3650   24.1950 O.2    36  ASP36      -0.2864
     87  CB         7.0450   26.9370   23.2510 C.3    36  ASP36       0.1436
     88  CG         6.5500   25.5750   22.7700 C.2    36  ASP36       0.3671
     89  OD1        7.0060   24.5460   23.3180 O.co2  36  ASP36      -0.2456
     90  OD2        5.7150   25.5420   21.8380 O.co2  36  ASP36      -0.2456
     91  N         -1.9110   30.4680   17.7410 N.3    77  PRO77      -0.2102
     92  CA        -1.2060   29.3520   17.1110 C.3    77  PRO77       0.1504
     93  C         -2.1020   28.6320   16.1180 C.2    77  PRO77       0.2576
     94  O         -3.3140   28.5550   16.3090 O.2    77  PRO77      -0.2718
     95  CB        -0.8540   28.4420   18.2800 C.3    77  PRO77       0.0282
     96  CG        -1.8930   28.7530   19.3180 C.3    77  PRO77       0.0208
     97  CD        -2.2280   30.2080   19.1570 C.3    77  PRO77       0.0893
     98  N         -1.4940   28.1090   15.0590 N.am   78  VAL78      -0.1966
     99  CA        -2.2230   27.3000   14.0910 C.3    78  VAL78       0.1727
    100  C         -2.1900   25.8290   14.5020 C.2    78  VAL78       0.2616
    101  O         -1.1240   25.2940   14.8090 O.2    78  VAL78      -0.2715
    102  CB        -1.6320   27.4510   12.6890 C.3    78  VAL78       0.0290
    103  CG1       -2.3860   26.5790   11.7170 C.3    78  VAL78       0.0023
    104  CG2       -1.6920   28.9150   12.2350 C.3    78  VAL78       0.0023
    105  N         -3.3520   25.1840   14.5260 N.am   79  ILE79      -0.1963
    106  CA        -3.4380   23.7690   14.9030 C.3    79  ILE79       0.1727
    107  C         -4.0360   22.9470   13.7650 C.2    79  ILE79       0.2616
    108  O         -5.2020   23.1130   13.4130 O.2    79  ILE79      -0.2715
    109  CB        -4.2890   23.5760   16.1630 C.3    79  ILE79       0.0290
    110  CG1       -3.7900   24.4890   17.2780 C.3    79  ILE79       0.0022
    111  CG2       -4.2370   22.1290   16.6480 C.3    79  ILE79       0.0023
    112  CD1       -4.6010   24.3580   18.5430 C.3    79  ILE79       0.0001
    113  N         -3.2360   22.0570   13.1870 N.am   80  HIS80      -0.1959
    114  CA        -3.7320   21.2630   12.0730 C.3    80  HIS80       0.1787
    115  C         -4.5680   20.0910   12.5600 C.2    80  HIS80       0.2620
    116  O         -4.1250   19.2990   13.3910 O.2    80  HIS80      -0.2715
    117  CB        -2.5770   20.7820   11.1900 C.3    80  HIS80       0.0785
    118  CG        -2.0220   21.8560   10.3070 C.ar   80  HIS80       0.0821
    119  ND1       -1.0930   22.7750   10.7460 N.ar   80  HIS80      -0.2267
    120  CD2       -2.3000   22.1860    9.0220 C.ar   80  HIS80       0.1154
    121  CE1       -0.8070   23.6140    9.7640 C.ar   80  HIS80       0.1986
    122  NE2       -1.5300   23.2810    8.7090 N.ar   80  HIS80      -0.2212
    123  N         -5.7910   20.0150   12.0410 N.am   81  ILE81      -0.1977
    124  CA        -6.7500   18.9730   12.3930 C.3    81  ILE81       0.1596
    125  C         -7.3480   18.3920   11.1160 C.2    81  ILE81       0.2287
    126  O         -7.2470   19.0070   10.0590 O.2    81  ILE81      -0.2864
    127  CB        -7.8840   19.5130   13.2760 C.3    81  ILE81       0.0276
    128  CG1       -8.6750   20.5860   12.5310 C.3    81  ILE81       0.0022
    129  CG2       -7.3170   20.0730   14.5660 C.3    81  ILE81       0.0022
    130  CD1       -9.8630   21.1120   13.3040 C.3    81  ILE81       0.0001
    131  N        -12.7870   17.0370   15.0460 N.3    86  ASP86      -0.1225
    132  CA       -11.6270   17.0090   15.9320 C.3    86  ASP86       0.1805
    133  C        -11.7280   18.0860   17.0140 C.2    86  ASP86       0.2598
    134  O        -11.0050   18.0490   18.0060 O.2    86  ASP86      -0.2718
    135  CB       -10.3330   17.1990   15.1310 C.3    86  ASP86       0.1424
    136  CG        -9.8630   15.9160   14.4540 C.2    86  ASP86       0.3668
    137  OD1      -10.2800   14.8180   14.8800 O.co2  86  ASP86      -0.2456
    138  OD2       -9.0650   16.0100   13.4960 O.co2  86  ASP86      -0.2456
    139  N        -12.6110   19.0530   16.7830 N.am   87  ILE87      -0.1966
    140  CA       -12.8290   20.1600   17.7110 C.3    87  ILE87       0.1712
    141  C        -13.8780   19.7620   18.7420 C.2    87  ILE87       0.2458
    142  O        -14.9010   19.1880   18.3780 O.2    87  ILE87      -0.2730
    143  CB       -13.2710   21.4270   16.9410 C.3    87  ILE87       0.0289
    144  CG1      -12.1770   21.8170   15.9440 C.3    87  ILE87       0.0022
    145  CG2      -13.5780   22.5920   17.8930 C.3    87  ILE87       0.0023
    146  CD1      -12.5880   22.8940   14.9630 C.3    87  ILE87       0.0001
    147  N        -13.6300   20.0530   20.0340 N.am   88  PRO88      -0.2727
    148  CA       -14.5760   19.6270   21.0720 C.3    88  PRO88       0.1402
    149  C        -15.9660   20.2130   20.8800 C.2    88  PRO88       0.2269
    150  O        -16.1050   21.3500   20.4260 O.2    88  PRO88      -0.2865
    151  CB       -13.9410   20.1500   22.3680 C.3    88  PRO88       0.0296
    152  CG       -12.4960   20.2560   22.0650 C.3    88  PRO88       0.0237
    153  CD       -12.4100   20.6420   20.6120 C.3    88  PRO88       0.0939
    154  N         -7.7170   26.7520   13.7440 N.3   112  PHE112     -0.1241
    155  CA        -7.7230   25.3770   13.2730 C.3   112  PHE112      0.1605
    156  C         -7.5880   25.3300   11.7520 C.2   112  PHE112      0.2264
    157  O         -8.3530   25.9660   11.0320 O.2   112  PHE112     -0.2867
    158  CB        -9.0060   24.6630   13.7100 C.3   112  PHE112      0.0534
    159  CG        -9.1340   24.5110   15.1990 C.ar  112  PHE112     -0.0203
    160  CD1      -10.0340   25.2910   15.9140 C.ar  112  PHE112     -0.0042
    161  CD2       -8.3530   23.5910   15.8800 C.ar  112  PHE112     -0.0042
    162  CE1      -10.1590   25.1550   17.2830 C.ar  112  PHE112     -0.0003
    163  CE2       -8.4700   23.4480   17.2530 C.ar  112  PHE112     -0.0003
    164  CZ        -9.3760   24.2330   17.9520 C.ar  112  PHE112     -0.0000
@<TRIPOS>BOND
     1   122   120   ar
     2   122   121   ar
     3   120   118   ar
     4   121   119   ar
     5   126   125    2
     6   118   119   ar
     7   118   117    1
     8   157   156    2
     9   125   124    1
    10   117   114    1
    11   103   102    1
    12   156   155    1
    13   123   124    1
    14   123   115   am
    15   114   115    1
    16   114   113    1
    17   104   102    1
    18   124   127    1
    19   128   127    1
    20   128   130    1
    21   115   116    2
    22   102    99    1
    23   113   107   am
    24   155   158    1
    25   155   154    1
    26   127   129    1
    27   108   107    2
    28   138   136   ar
    29   158   159    1
    30   107   106    1
    31    99   100    1
    32    99    98    1
    33   136   137   ar
    34   136   135    1
    35   100   105   am
    36   100   101    2
    37   105   106    1
    38   106   109    1
    39   146   144    1
    40   131   132    1
    41    98    93   am
    42   135   132    1
    43   159   161   ar
    44   159   160   ar
    45   161   163   ar
    46   160   162   ar
    47   132   133    1
    48   144   143    1
    49    93    94    2
    50    93    92    1
    51   109   111    1
    52   109   110    1
    53   139   133   am
    54   139   140    1
    55   143   140    1
    56   143   145    1
    57   133   134    2
    58    92    91    1
    59    92    95    1
    60   163   164   ar
    61   110   112    1
    62   162   164   ar
    63   140   141    1
    64    91    97    1
    65    95    96    1
    66   142   141    2
    67   141   147   am
    68    97    96    1
    69   147   153    1
    70   147   148    1
    71   150   149    2
    72    65    64    1
    73   153   152    1
    74    64    63    1
    75   149   148    1
    76   148   151    1
    77    34    32   am
    78    90    88   ar
    79    72    71    1
    80    32    31    1
    81    32    33    2
    82   152   151    1
    83    31    30    1
    84    73    71    1
    85    50    48    1
    86    63    62    1
    87    71    70    1
    88    62    61    1
    89    88    87    1
    90    88    89   ar
    91    49    48    1
    92    87    84    1
    93    30    27    1
    94    48    45    1
    95    61    58    1
    96    70    67    1
    97    86    85    2
    98    45    44    1
    99    45    46    1
   100    67    66    1
   101    67    68    1
   102    84    85    1
   103    84    83    1
   104    66    59   am
   105    29    28    2
   106    60    59    2
   107    27    28    1
   108    27    26    1
   109    59    58    1
   110    47    46    2
   111    44    37   am
   112    58    57    1
   113    39    40    1
   114    39    36    1
   115    69    68    2
   116    43    41   am
   117    37    38    2
   118    37    36    1
   119    83    76   am
   120    40    41    1
   121    41    42    2
   122    57    53   am
   123    36    35    1
   124    82    81    1
   125    76    77    2
   126    76    75    1
   127    81    80    1
   128    80    79    1
   129    53    54    2
   130    53    52    1
   131    78    79    1
   132    78    75    1
   133    74    75    1
   134    51    52    1
   135    52    55    1
   136    55    56    1
   137    24    23    1
   138    21    22    1
   139    21    20    1
   140     5     2    1
   141    23    22    2
   142    23    25    1
   143    20    19    1
   144     2     3    1
   145     2     1    1
   146    19    16    1
   147     3     4    2
   148     3     6   am
   149     6     7    1
   150     7    10    1
   151     7     8    1
   152    10    11    1
   153    11    12    1
   154    16    15    1
   155    16    17    1
   156    12    13    1
   157    17    18    2
   158     8     9    2
   159    13    14    1
