@<TRIPOS>MOLECULE
tmp/4ibcB00.pdb
 140 134 0 0 0
SMALL
GASTEIGER

@<TRIPOS>ATOM
      1  N          3.7700   21.8010   32.2930 N.3     4  ALA4       -0.1231
      2  CA         2.6110   22.1860   31.4980 C.3     4  ALA4        0.1694
      3  C          1.3900   21.3510   31.8710 C.2     4  ALA4        0.2591
      4  O          0.2750   21.8680   31.9190 O.2     4  ALA4       -0.2718
      5  CB         2.9170   22.0660   30.0150 C.3     4  ALA4        0.0304
      6  N          1.6110   20.0640   32.1450 N.am    5  LYS5       -0.1980
      7  CA         0.5510   19.1590   32.5990 C.3     5  LYS5        0.1596
      8  C         -0.0420   19.6090   33.9290 C.2     5  LYS5        0.2287
      9  O         -1.2610   19.6470   34.0910 O.2     5  LYS5       -0.2864
     10  CB         1.1090   17.7370   32.7610 C.3     5  LYS5        0.0298
     11  CG         0.0680   16.6380   32.9590 C.3     5  LYS5        0.0038
     12  CD        -0.3400   16.0350   31.6210 C.3     5  LYS5        0.0206
     13  CE        -0.9330   14.6400   31.7870 C.3     5  LYS5        0.1093
     14  NZ        -1.4340   14.0890   30.4970 N.3     5  LYS5       -0.1314
     15  N         -2.0300   22.8980   33.4570 N.3     8  ARG8       -0.1245
     16  CA        -3.3060   22.5990   32.8050 C.3     8  ARG8        0.1563
     17  C         -4.3130   22.0430   33.8110 C.2     8  ARG8        0.2260
     18  O         -5.4820   22.4520   33.8330 O.2     8  ARG8       -0.2867
     19  CB        -3.1180   21.6020   31.6570 C.3     8  ARG8        0.0307
     20  CG        -4.4170   21.2660   30.9120 C.3     8  ARG8        0.0489
     21  CD        -4.2410   19.9940   30.1060 C.3     8  ARG8        0.2205
     22  NE        -4.0640   18.8450   30.9850 N.pl3   8  ARG8       -0.0865
     23  CZ        -3.6230   17.6570   30.5890 C.cat   8  ARG8        0.5346
     24  NH1       -3.2970   17.4560   29.3180 N.pl3   8  ARG8        0.1354
     25  NH2       -3.5020   16.6720   31.4670 N.pl3   8  ARG8        0.1354
     26  N         -9.9100   25.1090   25.9570 N.3    24  GLN24      -0.1245
     27  CA        -8.9670   25.2080   24.8410 C.3    24  GLN24       0.1566
     28  C         -7.9370   26.3050   25.1070 C.2    24  GLN24       0.2260
     29  O         -6.7540   26.1250   24.8350 O.2    24  GLN24      -0.2867
     30  CB        -9.7010   25.4530   23.5140 C.3    24  GLN24       0.0367
     31  CG        -8.7750   25.4250   22.2880 C.3    24  GLN24       0.0905
     32  CD        -8.0160   24.1070   22.1450 C.2    24  GLN24       0.2608
     33  OE1       -8.4350   23.0700   22.6540 O.2    24  GLN24      -0.2717
     34  NE2       -6.8910   24.1510   21.4440 N.am   24  GLN24      -0.0878
     35  N         -5.2550   25.1700   27.2570 N.3    27  GLN27      -0.1231
     36  CA        -4.3170   24.3680   26.4920 C.3    27  GLN27       0.1698
     37  C         -3.3490   25.2290   25.6840 C.2    27  GLN27       0.2592
     38  O         -2.1600   24.9320   25.6270 O.2    27  GLN27      -0.2718
     39  CB        -5.0670   23.4260   25.5690 C.3    27  GLN27       0.0381
     40  CG        -5.8720   22.3650   26.3220 C.3    27  GLN27       0.0905
     41  CD        -6.3680   21.2790   25.4150 C.2    27  GLN27       0.2608
     42  OE1       -5.6010   20.7110   24.6350 O.2    27  GLN27      -0.2717
     43  NE2       -7.6610   20.9780   25.5010 N.am   27  GLN27      -0.0878
     44  N         -3.8630   26.2950   25.0780 N.am   28  VAL28      -0.1980
     45  CA        -3.0360   27.2030   24.2810 C.3    28  VAL28       0.1595
     46  C         -2.0400   27.9630   25.1660 C.2    28  VAL28       0.2287
     47  O         -0.8670   28.1220   24.8150 O.2    28  VAL28      -0.2864
     48  CB        -3.9100   28.2210   23.4880 C.3    28  VAL28       0.0276
     49  CG1       -3.0430   29.3840   22.9410 C.3    28  VAL28       0.0022
     50  CG2       -4.6450   27.5250   22.3490 C.3    28  VAL28       0.0022
     51  N         -0.8070   26.9850   28.0630 N.3    30  CYS30      -0.1221
     52  CA         0.2060   26.0510   28.5630 C.3    30  CYS30       0.1808
     53  C          1.2120   25.6550   27.4740 C.2    30  CYS30       0.2601
     54  O          2.4060   25.5190   27.7360 O.2    30  CYS30      -0.2717
     55  CB        -0.4410   24.7910   29.1250 C.3    30  CYS30       0.0970
     56  SG        -1.3680   25.0460   30.6620 S.3    30  CYS30      -0.0800
     57  N          0.7200   25.4710   26.2550 N.am   31  LYS31      -0.1979
     58  CA         1.5850   25.1430   25.1180 C.3    31  LYS31       0.1596
     59  C          2.5670   26.2800   24.8040 C.2    31  LYS31       0.2287
     60  O          3.7630   26.0470   24.6400 O.2    31  LYS31      -0.2864
     61  CB         0.7440   24.8350   23.8750 C.3    31  LYS31       0.0298
     62  CG         1.5790   24.6480   22.5980 C.3    31  LYS31       0.0038
     63  CD         2.3710   23.3550   22.6370 C.3    31  LYS31       0.0206
     64  CE         3.3690   23.2860   21.4820 C.3    31  LYS31       0.1093
     65  NZ         2.7350   23.4320   20.1470 N.3    31  LYS31      -0.1314
     66  N          4.9290   26.7660   27.7520 N.3    34  LYS34      -0.1245
     67  CA         6.0000   25.7690   27.7940 C.3    34  LYS34       0.1561
     68  C          7.0970   26.1340   26.8030 C.2    34  LYS34       0.2260
     69  O          8.2860   26.0870   27.1260 O.2    34  LYS34      -0.2867
     70  CB         5.4710   24.3610   27.4890 C.3    34  LYS34       0.0271
     71  CG         6.5320   23.2680   27.6120 C.3    34  LYS34       0.0035
     72  CD         5.9300   21.8940   27.3790 C.3    34  LYS34       0.0206
     73  CE         6.9500   20.7890   27.5990 C.3    34  LYS34       0.1093
     74  NZ         6.3100   19.4460   27.4960 N.3    34  LYS34      -0.1314
     75  N         -2.1690   30.2150   17.7970 N.3    76  PRO76      -0.2102
     76  CA        -1.5260   29.0530   17.1830 C.3    76  PRO76       0.1504
     77  C         -2.4350   28.4000   16.1430 C.2    76  PRO76       0.2576
     78  O         -3.6500   28.3390   16.3060 O.2    76  PRO76      -0.2718
     79  CB        -1.3010   28.1110   18.3640 C.3    76  PRO76       0.0282
     80  CG        -2.2710   28.5610   19.4030 C.3    76  PRO76       0.0208
     81  CD        -2.3980   30.0310   19.2400 C.3    76  PRO76       0.0893
     82  N         -1.8350   27.9300   15.0600 N.am   77  VAL77      -0.1966
     83  CA        -2.5790   27.1750   14.0750 C.3    77  VAL77       0.1727
     84  C         -2.5710   25.7160   14.4950 C.2    77  VAL77       0.2616
     85  O         -1.5060   25.1290   14.7270 O.2    77  VAL77      -0.2715
     86  CB        -1.9670   27.3070   12.6740 C.3    77  VAL77       0.0290
     87  CG1       -2.6790   26.3710   11.7050 C.3    77  VAL77       0.0023
     88  CG2       -2.0410   28.7510   12.1950 C.3    77  VAL77       0.0023
     89  N         -3.7540   25.1300   14.6140 N.am   78  ILE78      -0.1963
     90  CA        -3.8550   23.7140   14.9880 C.3    78  ILE78       0.1727
     91  C         -4.4170   22.8900   13.8330 C.2    78  ILE78       0.2616
     92  O         -5.5520   23.0880   13.4170 O.2    78  ILE78      -0.2715
     93  CB        -4.7200   23.5210   16.2450 C.3    78  ILE78       0.0290
     94  CG1       -4.1690   24.3800   17.3880 C.3    78  ILE78       0.0022
     95  CG2       -4.7690   22.0510   16.6540 C.3    78  ILE78       0.0023
     96  CD1       -5.0600   24.4380   18.6040 C.3    78  ILE78       0.0001
     97  N         -3.6180   21.9560   13.3250 N.am   79  HIS79      -0.1959
     98  CA        -4.0500   21.0940   12.2300 C.3    79  HIS79       0.1787
     99  C         -4.9320   19.9460   12.7100 C.2    79  HIS79       0.2620
    100  O         -4.5070   19.1110   13.5090 O.2    79  HIS79      -0.2715
    101  CB        -2.8430   20.5510   11.4610 C.3    79  HIS79       0.0785
    102  CG        -2.1580   21.5830   10.6250 C.ar   79  HIS79       0.0821
    103  ND1       -1.2290   22.4610   11.1400 N.ar   79  HIS79      -0.2267
    104  CD2       -2.2840   21.8970    9.3130 C.ar   79  HIS79       0.1154
    105  CE1       -0.8010   23.2610   10.1800 C.ar   79  HIS79       0.1986
    106  NE2       -1.4280   22.9410    9.0620 N.ar   79  HIS79      -0.2212
    107  N         -6.1670   19.9210   12.2170 N.am   80  ILE80      -0.1977
    108  CA        -7.1260   18.8730   12.5500 C.3    80  ILE80       0.1596
    109  C         -7.7210   18.2980   11.2720 C.2    80  ILE80       0.2287
    110  O         -7.5750   18.8770   10.2010 O.2    80  ILE80      -0.2864
    111  CB        -8.2740   19.4110   13.4090 C.3    80  ILE80       0.0276
    112  CG1       -9.0670   20.4650   12.6330 C.3    80  ILE80       0.0022
    113  CG2       -7.7390   19.9900   14.7130 C.3    80  ILE80       0.0022
    114  CD1      -10.2320   21.0340   13.4210 C.3    80  ILE80       0.0001
    115  N        -13.2840   16.9420   15.0580 N.3    85  ASP85      -0.1239
    116  CA       -12.1650   16.8610   15.9940 C.3    85  ASP85       0.1674
    117  C        -12.2280   17.9490   17.0760 C.2    85  ASP85       0.2266
    118  O        -11.4670   17.9250   18.0340 O.2    85  ASP85      -0.2867
    119  CB       -10.8350   17.0010   15.2510 C.3    85  ASP85       0.1410
    120  CG       -10.4660   15.7570   14.4660 C.2    85  ASP85       0.3668
    121  OD1      -11.1680   14.7300   14.6010 O.co2  85  ASP85      -0.2456
    122  OD2       -9.4640   15.8090   13.7230 O.co2  85  ASP85      -0.2456
    123  N        -13.9800   19.9100   20.1670 N.3    87  PRO87      -0.2116
    124  CA       -14.9220   19.5790   21.2420 C.3    87  PRO87       0.1372
    125  C        -16.3010   20.1980   21.0340 C.2    87  PRO87       0.2244
    126  O        -16.4180   21.3370   20.5630 O.2    87  PRO87      -0.2868
    127  CB       -14.2610   20.1940   22.4790 C.3    87  PRO87       0.0268
    128  CG       -12.8180   20.1970   22.1690 C.3    87  PRO87       0.0207
    129  CD       -12.7230   20.4680   20.6900 C.3    87  PRO87       0.0892
    130  N         -8.0780   26.6170   13.8630 N.3   111  PHE111     -0.1241
    131  CA        -8.0850   25.2250   13.4440 C.3   111  PHE111      0.1605
    132  C         -7.9770   25.1500   11.9300 C.2   111  PHE111      0.2264
    133  O         -8.7370   25.7970   11.2160 O.2   111  PHE111     -0.2867
    134  CB        -9.3680   24.5390   13.9020 C.3   111  PHE111      0.0534
    135  CG        -9.4630   24.3640   15.3910 C.ar  111  PHE111     -0.0203
    136  CD1      -10.3440   25.1320   16.1440 C.ar  111  PHE111     -0.0042
    137  CD2       -8.6710   23.4330   16.0380 C.ar  111  PHE111     -0.0042
    138  CE1      -10.4380   24.9570   17.5140 C.ar  111  PHE111     -0.0003
    139  CE2       -8.7500   23.2600   17.4190 C.ar  111  PHE111     -0.0003
    140  CZ        -9.6360   24.0200   18.1530 C.ar  111  PHE111     -0.0000
@<TRIPOS>BOND
     1   106   104   ar
     2   106   105   ar
     3   104   102   ar
     4   105   103   ar
     5   110   109    2
     6   102   103   ar
     7   102   101    1
     8   133   132    2
     9   109   108    1
    10   101    98    1
    11    87    86    1
    12   132   131    1
    13    88    86    1
    14   107   108    1
    15   107    99   am
    16    98    99    1
    17    98    97    1
    18   108   111    1
    19   112   111    1
    20   112   114    1
    21    86    83    1
    22    99   100    2
    23    97    91   am
    24   111   113    1
    25    92    91    2
    26   131   130    1
    27   131   134    1
    28   122   120   ar
    29    91    90    1
    30   134   135    1
    31    83    84    1
    32    83    82    1
    33   120   121   ar
    34   120   119    1
    35    84    89   am
    36    84    85    2
    37    89    90    1
    38    90    93    1
    39   115   116    1
    40    82    77   am
    41   119   116    1
    42   135   137   ar
    43   135   136   ar
    44   116   117    1
    45   137   139   ar
    46    77    78    2
    47    77    76    1
    48   136   138   ar
    49    93    95    1
    50    93    94    1
    51   117   118    2
    52    76    75    1
    53    76    79    1
    54    94    96    1
    55   139   140   ar
    56   138   140   ar
    57    75    81    1
    58    79    80    1
    59    81    80    1
    60    65    64    1
    61   123   129    1
    62   123   124    1
    63   126   125    2
    64   129   128    1
    65   125   124    1
    66   124   127    1
    67    34    32   am
    68    64    63    1
    69    32    31    1
    70    32    33    2
    71   128   127    1
    72    31    30    1
    73    50    48    1
    74    62    63    1
    75    62    61    1
    76    49    48    1
    77    48    45    1
    78    30    27    1
    79    61    58    1
    80    45    44    1
    81    45    46    1
    82    42    41    2
    83    60    59    2
    84    59    58    1
    85    47    46    2
    86    29    28    2
    87    27    28    1
    88    27    26    1
    89    44    37   am
    90    58    57    1
    91    41    43   am
    92    41    40    1
    93    39    40    1
    94    39    36    1
    95    38    37    2
    96    37    36    1
    97    57    53   am
    98    36    35    1
    99    68    69    2
   100    68    67    1
   101    72    73    1
   102    72    71    1
   103    53    54    2
   104    53    52    1
   105    70    71    1
   106    70    67    1
   107    74    73    1
   108    66    67    1
   109    51    52    1
   110    52    55    1
   111    55    56    1
   112    24    23    1
   113     5     2    1
   114    21    20    1
   115    21    22    1
   116    14    13    1
   117    23    22    2
   118    23    25    1
   119    20    19    1
   120     2     3    1
   121     2     1    1
   122    12    13    1
   123    12    11    1
   124    19    16    1
   125     3     4    2
   126     3     6   am
   127     6     7    1
   128     7    10    1
   129     7     8    1
   130    10    11    1
   131    16    15    1
   132    16    17    1
   133    17    18    2
   134     8     9    2
