@<TRIPOS>MOLECULE
tmp/4ibeA00.pdb
 120 115 0 0 0
SMALL
GASTEIGER

@<TRIPOS>ATOM
      1  N         -3.7560   21.8590   -8.5730 N.3     4  ALA4       -0.1245
      2  CA        -2.6280   22.3190   -7.7740 C.3     4  ALA4        0.1562
      3  C         -1.3490   21.5530   -8.1290 C.2     4  ALA4        0.2260
      4  O         -0.2660   22.1400   -8.2370 O.2     4  ALA4       -0.2867
      5  CB        -2.9460   22.1780   -6.2960 C.3     4  ALA4        0.0290
      6  N          9.7310   25.4730   -2.5890 N.3    24  GLN24      -0.1245
      7  CA         8.8450   25.6000   -1.4470 C.3    24  GLN24       0.1566
      8  C          7.8560   26.7350   -1.6520 C.2    24  GLN24       0.2260
      9  O          6.6880   26.6410   -1.2550 O.2    24  GLN24      -0.2867
     10  CB         9.6510   25.8150   -0.1660 C.3    24  GLN24       0.0367
     11  CG         8.8100   25.8120    1.0940 C.3    24  GLN24       0.0905
     12  CD         8.0550   24.5140    1.2930 C.2    24  GLN24       0.2608
     13  OE1        8.5550   23.4360    0.9720 O.2    24  GLN24      -0.2717
     14  NE2        6.8440   24.6110    1.8240 N.am   24  GLN24      -0.0878
     15  N          5.2220   25.4560   -3.6630 N.3    27  GLN27      -0.1231
     16  CA         4.3010   24.7060   -2.8040 C.3    27  GLN27       0.1698
     17  C          3.2840   25.6100   -2.0960 C.2    27  GLN27       0.2592
     18  O          2.0730   25.3540   -2.1320 O.2    27  GLN27      -0.2718
     19  CB         5.0880   23.8900   -1.7740 C.3    27  GLN27       0.0381
     20  CG         5.9200   22.7780   -2.3950 C.3    27  GLN27       0.0905
     21  CD         5.1460   21.4820   -2.5560 C.2    27  GLN27       0.2608
     22  OE1        3.9520   21.4820   -2.8620 O.2    27  GLN27      -0.2717
     23  NE2        5.8330   20.3620   -2.3590 N.am   27  GLN27      -0.0878
     24  N          3.7750   26.6740   -1.4690 N.am   28  VAL28      -0.1980
     25  CA         2.9060   27.6340   -0.7810 C.3    28  VAL28       0.1595
     26  C          1.8960   28.3170   -1.7100 C.2    28  VAL28       0.2287
     27  O          0.7010   28.3990   -1.4030 O.2    28  VAL28      -0.2864
     28  CB         3.7490   28.6890   -0.0270 C.3    28  VAL28       0.0276
     29  CG1        2.8660   29.8060    0.5250 C.3    28  VAL28       0.0022
     30  CG2        4.5360   28.0170    1.0940 C.3    28  VAL28       0.0022
     31  N          0.7910   27.2190   -4.5660 N.3    30  CYS30      -0.1221
     32  CA        -0.2110   26.2510   -4.9930 C.3    30  CYS30       0.1808
     33  C         -1.2260   25.9100   -3.9010 C.2    30  CYS30       0.2601
     34  O         -2.4120   25.7840   -4.1840 O.2    30  CYS30      -0.2717
     35  CB         0.4450   24.9750   -5.5290 C.3    30  CYS30       0.0970
     36  SG         1.3720   25.1840   -7.0550 S.3    30  CYS30      -0.0800
     37  N         -0.7690   25.7660   -2.6590 N.am   31  LYS31      -0.1979
     38  CA        -1.6790   25.4650   -1.5490 C.3    31  LYS31       0.1596
     39  C         -2.6630   26.6090   -1.3120 C.2    31  LYS31       0.2287
     40  O         -3.8880   26.4150   -1.3430 O.2    31  LYS31      -0.2864
     41  CB        -0.8890   25.1580   -0.2660 C.3    31  LYS31       0.0298
     42  CG        -1.7320   25.1020    1.0140 C.3    31  LYS31       0.0038
     43  CD        -2.7970   24.0170    0.9440 C.3    31  LYS31       0.0206
     44  CE        -3.3380   23.6420    2.3240 C.3    31  LYS31       0.1093
     45  NZ        -3.8990   24.7960    3.0800 N.3    31  LYS31      -0.1314
     46  N         -4.9780   27.0950   -4.2460 N.3    34  LYS34      -0.1245
     47  CA        -6.0690   26.1330   -4.2720 C.3    34  LYS34       0.1561
     48  C         -7.1250   26.5490   -3.2680 C.2    34  LYS34       0.2260
     49  O         -8.3140   26.5750   -3.5830 O.2    34  LYS34      -0.2867
     50  CB        -5.5940   24.7130   -3.9440 C.3    34  LYS34       0.0271
     51  CG        -6.7600   23.7330   -3.7860 C.3    34  LYS34       0.0035
     52  CD        -6.3630   22.4400   -3.0980 C.3    34  LYS34       0.0206
     53  CE        -6.1770   22.6410   -1.6000 C.3    34  LYS34       0.1093
     54  NZ        -7.4590   22.8080   -0.8570 N.3    34  LYS34      -0.1314
     55  N          2.2370   30.9090    5.5940 N.3    76  PRO76      -0.2102
     56  CA         1.5440   29.7560    6.1740 C.3    76  PRO76       0.1504
     57  C          2.4380   29.0160    7.1620 C.2    76  PRO76       0.2576
     58  O          3.6640   29.0550    7.0430 O.2    76  PRO76      -0.2718
     59  CB         1.2680   28.8730    4.9560 C.3    76  PRO76       0.0282
     60  CG         2.3320   29.2510    3.9710 C.3    76  PRO76       0.0208
     61  CD         2.5530   30.7160    4.1680 C.3    76  PRO76       0.0893
     62  N          1.8270   28.3580    8.1370 N.am   77  VAL77      -0.1966
     63  CA         2.5700   27.5400    9.0810 C.3    77  VAL77       0.1727
     64  C          2.5200   26.0890    8.6270 C.2    77  VAL77       0.2616
     65  O          1.4470   25.5700    8.3120 O.2    77  VAL77      -0.2715
     66  CB         1.9700   27.6500   10.4930 C.3    77  VAL77       0.0290
     67  CG1        2.7920   26.8500   11.4940 C.3    77  VAL77       0.0023
     68  CG2        1.8840   29.1040   10.9080 C.3    77  VAL77       0.0023
     69  N          3.6760   25.4370    8.5840 N.am   78  ILE78      -0.1963
     70  CA         3.7370   24.0470    8.1410 C.3    78  ILE78       0.1727
     71  C          4.3540   23.1740    9.2170 C.2    78  ILE78       0.2616
     72  O          5.5280   23.3250    9.5460 O.2    78  ILE78      -0.2715
     73  CB         4.5360   23.8860    6.8260 C.3    78  ILE78       0.0290
     74  CG1        3.9100   24.7220    5.7050 C.3    78  ILE78       0.0022
     75  CG2        4.6150   22.4150    6.4280 C.3    78  ILE78       0.0023
     76  CD1        4.6720   24.6600    4.3840 C.3    78  ILE78       0.0001
     77  N          3.5650   22.2450    9.7450 N.am   79  HIS79      -0.1959
     78  CA         4.0050   21.4160   10.8600 C.3    79  HIS79       0.1787
     79  C          4.8250   20.2230   10.3870 C.2    79  HIS79       0.2620
     80  O          4.3830   19.4560    9.5340 O.2    79  HIS79      -0.2715
     81  CB         2.8090   20.9750   11.7090 C.3    79  HIS79       0.0785
     82  CG         2.2610   22.0640   12.5760 C.ar   79  HIS79       0.0821
     83  ND1        1.2560   22.9090   12.1590 N.ar   79  HIS79      -0.2267
     84  CD2        2.5710   22.4410   13.8380 C.ar   79  HIS79       0.1154
     85  CE1        0.9790   23.7690   13.1230 C.ar   79  HIS79       0.1986
     86  NE2        1.7610   23.5050   14.1540 N.ar   79  HIS79      -0.2212
     87  N          6.0320   20.0990   10.9350 N.am   80  ILE80      -0.1977
     88  CA         6.9250   18.9880   10.6300 C.3    80  ILE80       0.1596
     89  C          7.4910   18.4140   11.9190 C.2    80  ILE80       0.2287
     90  O          7.2690   18.9720   12.9940 O.2    80  ILE80      -0.2864
     91  CB         8.0830   19.4380    9.7210 C.3    80  ILE80       0.0276
     92  CG1        8.8170   20.6170   10.3490 C.3    80  ILE80       0.0022
     93  CG2        7.5670   19.8100    8.3490 C.3    80  ILE80       0.0022
     94  CD1        9.9900   21.0850    9.5350 C.3    80  ILE80       0.0001
     95  N         13.1830   17.2760    7.9040 N.3    85  ASP85      -0.1239
     96  CA        12.0240   17.1880    7.0220 C.3    85  ASP85       0.1674
     97  C         12.0290   18.3120    5.9890 C.2    85  ASP85       0.2266
     98  O         11.1860   18.3540    5.0930 O.2    85  ASP85      -0.2867
     99  CB        10.7250   17.2390    7.8280 C.3    85  ASP85       0.1410
    100  CG        10.5640   16.0590    8.7660 C.2    85  ASP85       0.3668
    101  OD1       11.0960   14.9680    8.4700 O.co2  85  ASP85      -0.2456
    102  OD2        9.9000   16.2340    9.8110 O.co2  85  ASP85      -0.2456
    103  N         13.9100   20.3080    2.9250 N.3    87  PRO87      -0.2116
    104  CA        14.8620   19.9920    1.8550 C.3    87  PRO87       0.1372
    105  C         16.2320   20.6080    2.1070 C.2    87  PRO87       0.2244
    106  O         16.3150   21.7360    2.5940 O.2    87  PRO87      -0.2868
    107  CB        14.2070   20.6170    0.6190 C.3    87  PRO87       0.0268
    108  CG        12.7560   20.5820    0.9150 C.3    87  PRO87       0.0207
    109  CD        12.6390   20.8300    2.3980 C.3    87  PRO87       0.0892
    110  N          8.0620   26.9830    9.2990 N.3   111  PHE111     -0.1241
    111  CA         8.0600   25.5900    9.7320 C.3   111  PHE111      0.1605
    112  C          7.9750   25.5040   11.2520 C.2   111  PHE111      0.2264
    113  O          8.7680   26.1230   11.9650 O.2   111  PHE111     -0.2867
    114  CB         9.2950   24.8440    9.2140 C.3   111  PHE111      0.0534
    115  CG         9.3130   24.6530    7.7250 C.ar  111  PHE111     -0.0203
    116  CD1       10.1600   25.4090    6.9240 C.ar  111  PHE111     -0.0042
    117  CD2        8.4950   23.7040    7.1280 C.ar  111  PHE111     -0.0042
    118  CE1       10.1830   25.2290    5.5550 C.ar  111  PHE111     -0.0003
    119  CE2        8.5110   23.5170    5.7560 C.ar  111  PHE111     -0.0003
    120  CZ         9.3550   24.2800    4.9700 C.ar  111  PHE111     -0.0000
@<TRIPOS>BOND
     1     1     2    1
     2     4     3    2
     3     3     2    1
     4     2     5    1
     5    36    35    1
     6    35    32    1
     7    32    31    1
     8    32    33    1
     9    47    46    1
    10    47    50    1
    11    47    48    1
    12    34    33    2
    13    50    51    1
    14    33    37   am
    15    51    52    1
    16    15    16    1
    17    49    48    2
    18    52    53    1
    19    22    21    2
    20    16    17    1
    21    16    19    1
    22    37    38    1
    23     6     7    1
    24    21    20    1
    25    21    23   am
    26    20    19    1
    27    18    17    2
    28    17    24   am
    29    26    27    2
    30    26    25    1
    31     8     7    1
    32     8     9    2
    33    53    54    1
    34    38    39    1
    35    38    41    1
    36    24    25    1
    37     7    10    1
    38    40    39    2
    39    25    28    1
    40    41    42    1
    41    10    11    1
    42    28    29    1
    43    28    30    1
    44   107   108    1
    45   107   104    1
    46   108   109    1
    47    43    42    1
    48    43    44    1
    49    13    12    2
    50    11    12    1
    51    12    14   am
    52   104   105    1
    53   104   103    1
    54   105   106    2
    55    44    45    1
    56   109   103    1
    57    60    61    1
    58    60    59    1
    59    61    55    1
    60    76    74    1
    61    59    56    1
    62   120   118   ar
    63   120   119   ar
    64    98    97    2
    65   118   116   ar
    66    55    56    1
    67    74    73    1
    68   119   117   ar
    69    97    96    1
    70    56    57    1
    71    75    73    1
    72    73    70    1
    73   116   115   ar
    74    96    99    1
    75    96    95    1
    76    58    57    2
    77   117   115   ar
    78    57    62   am
    79   115   114    1
    80    99   100    1
    81    62    63    1
    82    70    69    1
    83    70    71    1
    84    65    64    2
    85    93    91    1
    86   101   100   ar
    87    69    64   am
    88    64    63    1
    89   100   102   ar
    90    63    66    1
    91   114   111    1
    92    71    72    2
    93    71    77   am
    94   110   111    1
    95    80    79    2
    96    94    92    1
    97    91    92    1
    98    91    88    1
    99   111   112    1
   100    77    78    1
   101    79    78    1
   102    79    87   am
   103    66    68    1
   104    66    67    1
   105    88    87    1
   106    88    89    1
   107    78    81    1
   108   112   113    2
   109    81    82    1
   110    89    90    2
   111    83    82   ar
   112    83    85   ar
   113    82    84   ar
   114    85    86   ar
   115    84    86   ar
