@<TRIPOS>MOLECULE
tmp/4ibfB00.pdb
 156 151 0 0 0
SMALL
GASTEIGER

@<TRIPOS>ATOM
      1  N          3.7410   21.8090   32.4110 N.3     4  ALA4       -0.1231
      2  CA         2.6310   22.2490   31.5710 C.3     4  ALA4        0.1694
      3  C          1.3680   21.4830   31.9300 C.2     4  ALA4        0.2591
      4  O          0.2860   22.0600   32.0430 O.2     4  ALA4       -0.2718
      5  CB         2.9690   22.0510   30.0890 C.3     4  ALA4        0.0304
      6  N          1.5230   20.1800   32.1220 N.am    5  LYS5       -0.1980
      7  CA         0.4030   19.2990   32.4200 C.3     5  LYS5        0.1596
      8  C         -0.1850   19.6260   33.7880 C.2     5  LYS5        0.2287
      9  O         -1.4040   19.6140   33.9630 O.2     5  LYS5       -0.2864
     10  CB         0.8610   17.8470   32.3590 C.3     5  LYS5        0.0298
     11  CG        -0.2400   16.8530   32.0650 C.3     5  LYS5        0.0038
     12  CD         0.2590   15.4270   32.2530 C.3     5  LYS5        0.0206
     13  CE         0.9900   15.2650   33.5930 C.3     5  LYS5        0.1093
     14  NZ         0.2170   15.8350   34.7460 N.3     5  LYS5       -0.1314
     15  N         -2.0290   22.9370   33.4350 N.3     8  ARG8       -0.1245
     16  CA        -3.2850   22.6760   32.7450 C.3     8  ARG8        0.1563
     17  C         -4.3260   22.1310   33.7280 C.2     8  ARG8        0.2260
     18  O         -5.4770   22.5820   33.7560 O.2     8  ARG8       -0.2867
     19  CB        -3.0700   21.6930   31.5980 C.3     8  ARG8        0.0307
     20  CG        -4.3530   21.2280   30.9260 C.3     8  ARG8        0.0489
     21  CD        -4.1080   19.9720   30.1140 C.3     8  ARG8        0.2205
     22  NE        -4.0560   18.7840   30.9650 N.pl3   8  ARG8       -0.0865
     23  CZ        -3.6480   17.5880   30.5570 C.cat   8  ARG8        0.5346
     24  NH1       -3.2400   17.4210   29.3050 N.pl3   8  ARG8        0.1354
     25  NH2       -3.6450   16.5650   31.4040 N.pl3   8  ARG8        0.1354
     26  N         -9.7650   25.2910   26.0060 N.3    24  GLN24      -0.1245
     27  CA        -8.8460   25.2890   24.8850 C.3    24  GLN24       0.1566
     28  C         -7.8610   26.4290   25.0600 C.2    24  GLN24       0.2260
     29  O         -6.6800   26.3070   24.7050 O.2    24  GLN24      -0.2867
     30  CB        -9.6030   25.4220   23.5620 C.3    24  GLN24       0.0367
     31  CG        -8.6910   25.3510   22.3240 C.3    24  GLN24       0.0905
     32  CD        -7.9620   24.0260   22.2090 C.2    24  GLN24       0.2608
     33  OE1       -8.4430   22.9980   22.6850 O.2    24  GLN24      -0.2717
     34  NE2       -6.7910   24.0440   21.5740 N.am   24  GLN24      -0.0878
     35  N         -5.1400   25.1000   27.1220 N.3    27  GLN27      -0.1231
     36  CA        -4.2470   24.2980   26.3040 C.3    27  GLN27       0.1698
     37  C         -3.2510   25.1800   25.5750 C.2    27  GLN27       0.2592
     38  O         -2.0680   24.8620   25.4940 O.2    27  GLN27      -0.2718
     39  CB        -5.0710   23.5370   25.2660 C.3    27  GLN27       0.0381
     40  CG        -5.8310   22.3540   25.8230 C.3    27  GLN27       0.0905
     41  CD        -5.1060   21.0630   25.5510 C.2    27  GLN27       0.2608
     42  OE1       -3.9190   20.9330   25.8450 O.2    27  GLN27      -0.2717
     43  NE2       -5.8040   20.1070   24.9540 N.am   27  GLN27      -0.0878
     44  N         -3.7520   26.2800   25.0190 N.am   28  VAL28      -0.1980
     45  CA        -2.9300   27.1960   24.2420 C.3    28  VAL28       0.1595
     46  C         -1.9400   27.9060   25.1590 C.2    28  VAL28       0.2287
     47  O         -0.7520   27.9680   24.8660 O.2    28  VAL28      -0.2864
     48  CB        -3.8130   28.2360   23.4940 C.3    28  VAL28       0.0276
     49  CG1       -2.9730   29.4420   23.0410 C.3    28  VAL28       0.0022
     50  CG2       -4.5240   27.5870   22.3060 C.3    28  VAL28       0.0022
     51  N         -0.7960   26.9220   28.0100 N.3    30  CYS30      -0.1221
     52  CA         0.2220   26.0010   28.5310 C.3    30  CYS30       0.1808
     53  C          1.2750   25.6310   27.5060 C.2    30  CYS30       0.2601
     54  O          2.4530   25.5580   27.8300 O.2    30  CYS30      -0.2717
     55  CB        -0.4280   24.7480   29.1310 C.3    30  CYS30       0.0970
     56  SG        -1.3870   25.1100   30.6430 S.3    30  CYS30      -0.0800
     57  N          0.8580   25.4150   26.2670 N.am   31  LYS31      -0.1965
     58  CA         1.7920   25.0940   25.1840 C.3    31  LYS31       0.1728
     59  C          2.6970   26.2730   24.8160 C.2    31  LYS31       0.2616
     60  O          3.9090   26.1200   24.7200 O.2    31  LYS31      -0.2715
     61  CB         1.0420   24.5930   23.9440 C.3    31  LYS31       0.0311
     62  CG         1.8540   24.6350   22.6390 C.3    31  LYS31       0.0038
     63  CD         2.5310   23.3150   22.3430 C.3    31  LYS31       0.0206
     64  CE         3.0250   23.2590   20.8940 C.3    31  LYS31       0.1093
     65  NZ         3.8350   24.4530   20.4890 N.3    31  LYS31      -0.1314
     66  N          2.1170   27.4500   24.6170 N.am   32  LEU32      -0.1977
     67  CA         2.9320   28.6160   24.2960 C.3    32  LEU32       0.1596
     68  C          3.8010   28.9440   25.4870 C.2    32  LEU32       0.2287
     69  O          4.9620   29.3300   25.3400 O.2    32  LEU32      -0.2864
     70  CB         2.0670   29.8180   23.9090 C.3    32  LEU32       0.0297
     71  CG         1.1910   29.6340   22.6670 C.3    32  LEU32       0.0022
     72  CD1        0.5960   30.9660   22.2010 C.3    32  LEU32       0.0001
     73  CD2        1.9790   28.9730   21.5570 C.3    32  LEU32       0.0001
     74  N          4.9370   26.7750   27.8070 N.3    34  LYS34      -0.1245
     75  CA         6.0410   25.8210   27.8780 C.3    34  LYS34       0.1561
     76  C          7.1350   26.1520   26.8680 C.2    34  LYS34       0.2260
     77  O          8.3180   26.0590   27.1840 O.2    34  LYS34      -0.2867
     78  CB         5.5520   24.3880   27.6610 C.3    34  LYS34       0.0271
     79  CG         6.6720   23.3520   27.6210 C.3    34  LYS34       0.0035
     80  CD         6.1050   21.9510   27.4600 C.3    34  LYS34       0.0206
     81  CE         7.1390   20.8910   27.8000 C.3    34  LYS34       0.1093
     82  NZ         6.4720   19.6210   28.2180 N.3    34  LYS34      -0.1314
     83  N         -2.1570   30.5000   17.6670 N.3    76  PRO76      -0.2102
     84  CA        -1.5160   29.3560   17.0300 C.3    76  PRO76       0.1504
     85  C         -2.4430   28.6630   16.0520 C.2    76  PRO76       0.2576
     86  O         -3.6680   28.6950   16.1920 O.2    76  PRO76      -0.2718
     87  CB        -1.1720   28.4270   18.2040 C.3    76  PRO76       0.0282
     88  CG        -2.0270   28.9020   19.3520 C.3    76  PRO76       0.0208
     89  CD        -2.3590   30.3350   19.1180 C.3    76  PRO76       0.0893
     90  N         -1.8370   28.0350   15.0520 N.am   77  VAL77      -0.1966
     91  CA        -2.5750   27.2540   14.0810 C.3    77  VAL77       0.1727
     92  C         -2.4690   25.7960   14.5220 C.2    77  VAL77       0.2616
     93  O         -1.3730   25.3060   14.8010 O.2    77  VAL77      -0.2715
     94  CB        -1.9900   27.4420   12.6550 C.3    77  VAL77       0.0290
     95  CG1       -2.6060   26.4540   11.6830 C.3    77  VAL77       0.0023
     96  CG2       -2.1990   28.8730   12.1740 C.3    77  VAL77       0.0023
     97  N         -3.6080   25.1190   14.6120 N.am   78  ILE78      -0.1963
     98  CA        -3.6430   23.7220   15.0310 C.3    78  ILE78       0.1727
     99  C         -4.2610   22.8490   13.9620 C.2    78  ILE78       0.2616
    100  O         -5.4580   22.9420   13.6910 O.2    78  ILE78      -0.2715
    101  CB        -4.4800   23.5310   16.2950 C.3    78  ILE78       0.0290
    102  CG1       -3.8890   24.3220   17.4520 C.3    78  ILE78       0.0022
    103  CG2       -4.5560   22.0510   16.6560 C.3    78  ILE78       0.0023
    104  CD1       -4.6930   24.1620   18.7390 C.3    78  ILE78       0.0001
    105  N         -3.4490   21.9950   13.3570 N.am   79  HIS79      -0.1959
    106  CA        -3.9270   21.1800   12.2510 C.3    79  HIS79       0.1787
    107  C         -4.8170   20.0670   12.7980 C.2    79  HIS79       0.2620
    108  O         -4.4280   19.3600   13.7230 O.2    79  HIS79      -0.2715
    109  CB        -2.7460   20.6150   11.4520 C.3    79  HIS79       0.0785
    110  CG        -3.1050   20.1770   10.0630 C.ar   79  HIS79       0.0821
    111  ND1       -2.8130   20.9310    8.9460 N.ar   79  HIS79      -0.2267
    112  CD2       -3.7340   19.0640    9.6110 C.ar   79  HIS79       0.1154
    113  CE1       -3.2420   20.2990    7.8660 C.ar   79  HIS79       0.1986
    114  NE2       -3.8050   19.1640    8.2420 N.ar   79  HIS79      -0.2212
    115  N         -6.0250   19.9470   12.2470 N.am   80  ILE80      -0.1977
    116  CA        -6.9600   18.8740   12.6010 C.3    80  ILE80       0.1596
    117  C         -7.5520   18.2600   11.3410 C.2    80  ILE80       0.2287
    118  O         -7.4450   18.8310   10.2630 O.2    80  ILE80      -0.2864
    119  CB        -8.1250   19.3860   13.4570 C.3    80  ILE80       0.0276
    120  CG1       -8.9400   20.4200   12.6730 C.3    80  ILE80       0.0022
    121  CG2       -7.6140   19.9570   14.7620 C.3    80  ILE80       0.0022
    122  CD1       -9.9380   21.1450   13.5060 C.3    80  ILE80       0.0001
    123  N        -13.3380   17.0600   15.1100 N.3    85  ASP85      -0.1225
    124  CA       -12.2500   16.9000   16.0850 C.3    85  ASP85       0.1805
    125  C        -12.2870   17.9550   17.1920 C.2    85  ASP85       0.2598
    126  O        -11.5580   17.8630   18.1820 O.2    85  ASP85      -0.2718
    127  CB       -10.8850   16.9530   15.3930 C.3    85  ASP85       0.1424
    128  CG       -10.6190   15.7410   14.5310 C.2    85  ASP85       0.3668
    129  OD1      -11.3230   14.7190   14.6860 O.co2  85  ASP85      -0.2456
    130  OD2       -9.6960   15.8130   13.6990 O.co2  85  ASP85      -0.2456
    131  N        -13.1360   18.9590   17.0050 N.am   86  ILE86      -0.1966
    132  CA       -13.2540   20.0570   17.9380 C.3    86  ILE86       0.1712
    133  C        -14.3890   19.7560   18.9020 C.2    86  ILE86       0.2458
    134  O        -15.4770   19.3750   18.4790 O.2    86  ILE86      -0.2730
    135  CB       -13.5420   21.3730   17.1840 C.3    86  ILE86       0.0289
    136  CG1      -12.4700   21.6090   16.1150 C.3    86  ILE86       0.0022
    137  CG2      -13.6520   22.5460   18.1520 C.3    86  ILE86       0.0023
    138  CD1      -12.7670   22.7700   15.1870 C.3    86  ILE86       0.0001
    139  N        -14.1350   19.9160   20.2090 N.am   87  PRO87      -0.2727
    140  CA       -15.1410   19.5990   21.2270 C.3    87  PRO87       0.1402
    141  C        -16.4760   20.3060   20.9970 C.2    87  PRO87       0.2269
    142  O        -16.5230   21.4480   20.5500 O.2    87  PRO87      -0.2865
    143  CB       -14.4910   20.0900   22.5280 C.3    87  PRO87       0.0296
    144  CG       -13.0220   19.9880   22.2700 C.3    87  PRO87       0.0237
    145  CD       -12.8520   20.3260   20.8040 C.3    87  PRO87       0.0939
    146  N         -7.9270   26.8640   13.8820 N.3   111  PHE111     -0.1241
    147  CA        -7.9370   25.4700   13.4370 C.3   111  PHE111      0.1605
    148  C         -7.7940   25.3910   11.9060 C.2   111  PHE111      0.2264
    149  O         -8.5290   26.0550   11.1630 O.2   111  PHE111     -0.2867
    150  CB        -9.2100   24.7620   13.8890 C.3   111  PHE111      0.0534
    151  CG        -9.3020   24.5810   15.3610 C.ar  111  PHE111     -0.0203
    152  CD1      -10.2460   25.2690   16.0970 C.ar  111  PHE111     -0.0042
    153  CD2       -8.4340   23.7310   16.0170 C.ar  111  PHE111     -0.0042
    154  CE1      -10.3270   25.1100   17.4550 C.ar  111  PHE111     -0.0003
    155  CE2       -8.5040   23.5670   17.3770 C.ar  111  PHE111     -0.0003
    156  CZ        -9.4530   24.2620   18.1030 C.ar  111  PHE111     -0.0000
@<TRIPOS>BOND
     1   113   114   ar
     2   113   111   ar
     3   114   112   ar
     4   111   110   ar
     5   112   110   ar
     6   110   109    1
     7   118   117    2
     8   149   148    2
     9   117   116    1
    10   109   106    1
    11    95    94    1
    12   148   147    1
    13    96    94    1
    14   115   116    1
    15   115   107   am
    16   106   107    1
    17   106   105    1
    18   116   119    1
    19    94    91    1
    20   120   119    1
    21   120   122    1
    22   107   108    2
    23   105    99   am
    24   147   146    1
    25   147   150    1
    26   119   121    1
    27   100    99    2
    28   130   128   ar
    29   150   151    1
    30    99    98    1
    31    91    92    1
    32    91    90    1
    33    92    97   am
    34    92    93    2
    35   128   129   ar
    36   128   127    1
    37    97    98    1
    38    98   101    1
    39    90    85   am
    40   123   124    1
    41   138   136    1
    42   151   153   ar
    43   151   152   ar
    44   127   124    1
    45   153   155   ar
    46    85    86    2
    47    85    84    1
    48   124   125    1
    49   152   154   ar
    50   136   135    1
    51   101   103    1
    52   101   102    1
    53   131   125   am
    54   131   132    1
    55    84    83    1
    56    84    87    1
    57   135   132    1
    58   135   137    1
    59   125   126    2
    60   155   156   ar
    61   102   104    1
    62   154   156   ar
    63    83    89    1
    64   132   133    1
    65    87    88    1
    66   134   133    2
    67   133   139   am
    68    89    88    1
    69   139   145    1
    70   139   140    1
    71    65    64    1
    72   142   141    2
    73   145   144    1
    74    64    63    1
    75   141   140    1
    76   140   143    1
    77    73    71    1
    78    34    32   am
    79    72    71    1
    80    32    31    1
    81    32    33    2
    82   144   143    1
    83    50    48    1
    84    31    30    1
    85    63    62    1
    86    62    61    1
    87    71    70    1
    88    49    48    1
    89    48    45    1
    90    30    27    1
    91    70    67    1
    92    61    58    1
    93    45    44    1
    94    45    46    1
    95    67    66    1
    96    67    68    1
    97    66    59   am
    98    29    28    2
    99    60    59    2
   100    59    58    1
   101    47    46    2
   102    27    28    1
   103    27    26    1
   104    43    41   am
   105    44    37   am
   106    58    57    1
   107    39    40    1
   108    39    36    1
   109    69    68    2
   110    38    37    2
   111    41    40    1
   112    41    42    2
   113    37    36    1
   114    57    53   am
   115    36    35    1
   116    76    77    2
   117    76    75    1
   118    80    79    1
   119    80    81    1
   120    53    54    2
   121    53    52    1
   122    79    78    1
   123    78    75    1
   124    81    82    1
   125    74    75    1
   126    51    52    1
   127    52    55    1
   128    55    56    1
   129    24    23    1
   130     5     2    1
   131    21    20    1
   132    21    22    1
   133    23    22    2
   134    23    25    1
   135    20    19    1
   136     2     3    1
   137     2     1    1
   138    19    16    1
   139     3     4    2
   140     3     6   am
   141    11    12    1
   142    11    10    1
   143     6     7    1
   144    12    13    1
   145    10     7    1
   146     7     8    1
   147    16    15    1
   148    16    17    1
   149    13    14    1
   150    17    18    2
   151     8     9    2
