@<TRIPOS>MOLECULE
tmp/4ibgA00.pdb
 153 149 0 0 0
SMALL
GASTEIGER

@<TRIPOS>ATOM
      1  N         -3.7890   21.9800   -8.8810 N.3     4  ALA4       -0.1231
      2  CA        -2.6760   22.4540   -8.0760 C.3     4  ALA4        0.1694
      3  C         -1.4070   21.6800   -8.4240 C.2     4  ALA4        0.2591
      4  O         -0.3200   22.2550   -8.5110 O.2     4  ALA4       -0.2718
      5  CB        -3.0000   22.3390   -6.6020 C.3     4  ALA4        0.0304
      6  N         -1.5530   20.3760   -8.6400 N.am    5  LYS5       -0.1980
      7  CA        -0.4230   19.5410   -9.0270 C.3     5  LYS5        0.1596
      8  C          0.1310   19.9470  -10.3940 C.2     5  LYS5        0.2287
      9  O          1.3410   20.0200  -10.5640 O.2     5  LYS5       -0.2864
     10  CB        -0.8130   18.0580   -9.0130 C.3     5  LYS5        0.0298
     11  CG         0.3290   17.1010   -9.3180 C.3     5  LYS5        0.0038
     12  CD         0.0150   15.6880   -8.8200 C.3     5  LYS5        0.0206
     13  CE        -0.9980   14.9790   -9.7060 C.3     5  LYS5        0.1093
     14  NZ        -0.3420   14.2560  -10.8320 N.3     5  LYS5       -0.1314
     15  N          9.7690   25.5520   -2.5760 N.3    24  GLN24      -0.1245
     16  CA         8.8250   25.7080   -1.4730 C.3    24  GLN24       0.1566
     17  C          7.8520   26.8500   -1.7270 C.2    24  GLN24       0.2260
     18  O          6.6710   26.7530   -1.3990 O.2    24  GLN24      -0.2867
     19  CB         9.5650   25.8950   -0.1410 C.3    24  GLN24       0.0367
     20  CG         8.6380   25.8440    1.0870 C.3    24  GLN24       0.0905
     21  CD         7.8250   24.5560    1.1660 C.2    24  GLN24       0.2608
     22  OE1        8.2530   23.5010    0.6980 O.2    24  GLN24      -0.2717
     23  NE2        6.6430   24.6430    1.7610 N.am   24  GLN24      -0.0878
     24  N          5.1160   25.5150   -3.7610 N.3    27  GLN27      -0.1231
     25  CA         4.1700   24.7690   -2.9310 C.3    27  GLN27       0.1698
     26  C          3.1840   25.6980   -2.2340 C.2    27  GLN27       0.2592
     27  O          1.9850   25.4180   -2.1920 O.2    27  GLN27      -0.2718
     28  CB         4.9090   23.9460   -1.8690 C.3    27  GLN27       0.0381
     29  CG         5.7250   22.7940   -2.4280 C.3    27  GLN27       0.0905
     30  CD         4.8610   21.7010   -3.0110 C.2    27  GLN27       0.2608
     31  OE1        3.7150   21.5120   -2.5960 O.2    27  GLN27      -0.2717
     32  NE2        5.4000   20.9770   -3.9830 N.am   27  GLN27      -0.0878
     33  N          3.6900   26.7920   -1.6690 N.am   28  VAL28      -0.1980
     34  CA         2.8490   27.7560   -0.9680 C.3    28  VAL28       0.1595
     35  C          1.8700   28.4500   -1.9100 C.2    28  VAL28       0.2287
     36  O          0.6850   28.5900   -1.6000 O.2    28  VAL28      -0.2864
     37  CB         3.7260   28.7920   -0.2240 C.3    28  VAL28       0.0276
     38  CG1        2.8840   29.9670    0.2850 C.3    28  VAL28       0.0022
     39  CG2        4.4510   28.1170    0.9360 C.3    28  VAL28       0.0022
     40  N          0.7750   27.3060   -4.7290 N.3    30  CYS30      -0.1221
     41  CA        -0.2220   26.3320   -5.1560 C.3    30  CYS30       0.1808
     42  C         -1.2660   26.0270   -4.0820 C.2    30  CYS30       0.2601
     43  O         -2.4550   25.9050   -4.3790 O.2    30  CYS30      -0.2717
     44  CB         0.4360   25.0300   -5.6400 C.3    30  CYS30       0.0970
     45  SG         1.3140   25.2060   -7.2150 S.3    30  CYS30      -0.0800
     46  N         -0.8280   25.8720   -2.8350 N.am   31  LYS31      -0.1965
     47  CA        -1.7520   25.5670   -1.7430 C.3    31  LYS31       0.1728
     48  C         -2.7060   26.7410   -1.5120 C.2    31  LYS31       0.2616
     49  O         -3.9330   26.5770   -1.4830 O.2    31  LYS31      -0.2715
     50  CB        -0.9740   25.2470   -0.4540 C.3    31  LYS31       0.0311
     51  CG        -1.8430   25.0610    0.7960 C.3    31  LYS31       0.0038
     52  CD        -2.6630   23.7940    0.7270 C.3    31  LYS31       0.0206
     53  CE        -3.1550   23.4000    2.1180 C.3    31  LYS31       0.1093
     54  NZ        -3.8270   24.5280    2.8330 N.3    31  LYS31      -0.1314
     55  N         -2.1400   27.9310   -1.3540 N.am   32  LEU32      -0.1977
     56  CA        -2.9710   29.1080   -1.1130 C.3    32  LEU32       0.1596
     57  C         -3.8240   29.4200   -2.3350 C.2    32  LEU32       0.2287
     58  O         -4.9720   29.8520   -2.2100 O.2    32  LEU32      -0.2864
     59  CB        -2.1150   30.3240   -0.7240 C.3    32  LEU32       0.0297
     60  CG        -1.7270   30.4170    0.7550 C.3    32  LEU32       0.0022
     61  CD1       -1.0630   29.1590    1.2910 C.3    32  LEU32       0.0001
     62  CD2       -0.8210   31.6170    0.9930 C.3    32  LEU32       0.0001
     63  N         -4.9850   27.1900   -4.5180 N.3    34  LYS34      -0.1231
     64  CA        -6.1000   26.2650   -4.5540 C.3    34  LYS34       0.1693
     65  C         -7.1970   26.6730   -3.5700 C.2    34  LYS34       0.2592
     66  O         -8.3890   26.6590   -3.9000 O.2    34  LYS34      -0.2718
     67  CB        -5.6280   24.8370   -4.2630 C.3    34  LYS34       0.0285
     68  CG        -6.7370   23.8210   -4.4800 C.3    34  LYS34       0.0035
     69  CD        -6.3020   22.4120   -4.2070 C.3    34  LYS34       0.0206
     70  CE        -7.4660   21.4520   -4.3400 C.3    34  LYS34       0.1093
     71  NZ        -7.0230   20.0420   -4.1820 N.3    34  LYS34      -0.1314
     72  N         -6.7830   27.0580   -2.3680 N.am   35  ASP35      -0.1974
     73  CA        -7.7120   27.3730   -1.2930 C.3    35  ASP35       0.1709
     74  C         -8.5180   28.6390   -1.5830 C.2    35  ASP35       0.2293
     75  O         -9.5560   28.8710   -0.9690 O.2    35  ASP35      -0.2864
     76  CB        -6.9580   27.5200    0.0300 C.3    35  ASP35       0.1436
     77  CG        -6.4610   26.1950    0.5830 C.2    35  ASP35       0.3671
     78  OD1       -6.8270   25.1270    0.0510 O.co2  35  ASP35      -0.2456
     79  OD2       -5.7080   26.2300    1.5780 O.co2  35  ASP35      -0.2456
     80  N          1.9150   30.8840    5.5350 N.3    76  PRO76      -0.2102
     81  CA         1.2400   29.7300    6.1250 C.3    76  PRO76       0.1504
     82  C          2.1660   28.9960    7.0800 C.2    76  PRO76       0.2576
     83  O          3.3890   28.9740    6.8920 O.2    76  PRO76      -0.2718
     84  CB         0.9410   28.8460    4.9140 C.3    76  PRO76       0.0282
     85  CG         2.0250   29.1940    3.9370 C.3    76  PRO76       0.0208
     86  CD         2.2430   30.6760    4.1120 C.3    76  PRO76       0.0893
     87  N          1.5610   28.4050    8.1060 N.am   77  VAL77      -0.1966
     88  CA         2.2870   27.5760    9.0570 C.3    77  VAL77       0.1727
     89  C          2.2150   26.1370    8.5720 C.2    77  VAL77       0.2616
     90  O          1.1350   25.6440    8.2160 O.2    77  VAL77      -0.2715
     91  CB         1.6870   27.7000   10.4680 C.3    77  VAL77       0.0290
     92  CG1        2.3230   26.6980   11.4160 C.3    77  VAL77       0.0023
     93  CG2        1.8590   29.1190   11.0020 C.3    77  VAL77       0.0023
     94  N          3.3680   25.4780    8.5380 N.am   78  ILE78      -0.1963
     95  CA         3.4580   24.0820    8.1270 C.3    78  ILE78       0.1727
     96  C          4.0710   23.2870    9.2720 C.2    78  ILE78       0.2616
     97  O          5.2010   23.5490    9.6870 O.2    78  ILE78      -0.2715
     98  CB         4.2950   23.9490    6.8500 C.3    78  ILE78       0.0290
     99  CG1        3.7020   24.8340    5.7420 C.3    78  ILE78       0.0022
    100  CG2        4.3710   22.5010    6.4010 C.3    78  ILE78       0.0023
    101  CD1        4.5480   24.9220    4.4710 C.3    78  ILE78       0.0001
    102  N          3.3240   22.3160    9.7840 N.am   79  HIS79      -0.1959
    103  CA         3.7920   21.5020   10.8980 C.3    79  HIS79       0.1787
    104  C          4.6030   20.3230   10.4000 C.2    79  HIS79       0.2620
    105  O          4.1480   19.5640    9.5370 O.2    79  HIS79      -0.2715
    106  CB         2.6260   21.0380   11.7680 C.3    79  HIS79       0.0785
    107  CG         2.1850   22.0620   12.7610 C.ar   79  HIS79       0.0821
    108  ND1        1.1080   22.8900   12.5480 N.ar   79  HIS79      -0.2267
    109  CD2        2.7010   22.4170   13.9590 C.ar   79  HIS79       0.1154
    110  CE1        0.9620   23.6990   13.5820 C.ar   79  HIS79       0.1986
    111  NE2        1.9230   23.4370   14.4510 N.ar   79  HIS79      -0.2212
    112  N          5.8100   20.1880   10.9440 N.am   80  ILE80      -0.1977
    113  CA         6.7410   19.1330   10.5700 C.3    80  ILE80       0.1596
    114  C          7.3670   18.5750   11.8440 C.2    80  ILE80       0.2287
    115  O          7.1640   19.1160   12.9280 O.2    80  ILE80      -0.2864
    116  CB         7.8440   19.6500    9.6200 C.3    80  ILE80       0.0276
    117  CG1        8.6770   20.7370   10.3080 C.3    80  ILE80       0.0022
    118  CG2        7.2360   20.1560    8.3230 C.3    80  ILE80       0.0022
    119  CD1        9.8570   21.2330    9.4750 C.3    80  ILE80       0.0001
    120  N         13.1170   17.1990    7.9360 N.3    85  ASP85      -0.1225
    121  CA        12.0170   17.0920    6.9740 C.3    85  ASP85       0.1805
    122  C         12.1080   18.1340    5.8600 C.2    85  ASP85       0.2598
    123  O         11.3530   18.0850    4.8860 O.2    85  ASP85      -0.2718
    124  CB        10.6680   17.2160    7.6820 C.3    85  ASP85       0.1424
    125  CG        10.3980   16.0660    8.6200 C.2    85  ASP85       0.3668
    126  OD1       10.7510   14.9250    8.2670 O.co2  85  ASP85      -0.2456
    127  OD2        9.8310   16.3060    9.7050 O.co2  85  ASP85      -0.2456
    128  N         13.0300   19.0790    6.0170 N.am   86  ILE86      -0.1966
    129  CA        13.2050   20.1790    5.0780 C.3    86  ILE86       0.1712
    130  C         14.3970   19.8600    4.1750 C.2    86  ILE86       0.2458
    131  O         15.4650   19.5270    4.6740 O.2    86  ILE86      -0.2730
    132  CB        13.4650   21.4930    5.8540 C.3    86  ILE86       0.0289
    133  CG1       12.2710   21.8290    6.7590 C.3    86  ILE86       0.0022
    134  CG2       13.7690   22.6420    4.9110 C.3    86  ILE86       0.0023
    135  CD1       12.5140   23.0000    7.7090 C.3    86  ILE86       0.0001
    136  N         14.2230   19.9610    2.8430 N.am   87  PRO87      -0.2727
    137  CA        15.3030   19.6200    1.9030 C.3    87  PRO87       0.1402
    138  C         16.5990   20.3860    2.1530 C.2    87  PRO87       0.2269
    139  O         16.5640   21.5250    2.6420 O.2    87  PRO87      -0.2865
    140  CB        14.7320   20.0330    0.5370 C.3    87  PRO87       0.0296
    141  CG        13.2520   20.0410    0.7260 C.3    87  PRO87       0.0237
    142  CD        13.0360   20.4900    2.1450 C.3    87  PRO87       0.0939
    143  N          7.7480   27.0670    9.3860 N.3   111  PHE111     -0.1241
    144  CA         7.7430   25.6770    9.8100 C.3   111  PHE111      0.1605
    145  C          7.6910   25.6140   11.3200 C.2   111  PHE111      0.2264
    146  O          8.4640   26.2900   12.0070 O.2   111  PHE111     -0.2867
    147  CB         8.9960   24.9510    9.3270 C.3   111  PHE111      0.0534
    148  CG         9.0560   24.7790    7.8420 C.ar  111  PHE111     -0.0203
    149  CD1        9.9590   25.5060    7.0770 C.ar  111  PHE111     -0.0042
    150  CD2        8.2120   23.8820    7.2090 C.ar  111  PHE111     -0.0042
    151  CE1       10.0170   25.3340    5.7010 C.ar  111  PHE111     -0.0003
    152  CE2        8.2520   23.7140    5.8300 C.ar  111  PHE111     -0.0003
    153  CZ         9.1600   24.4420    5.0790 C.ar  111  PHE111     -0.0000
@<TRIPOS>BOND
     1    14    13    1
     2     9     8    2
     3     8     7    1
     4    13    12    1
     5    11    10    1
     6    11    12    1
     7     7    10    1
     8     7     6    1
     9     1     2    1
    10     6     3   am
    11     4     3    2
    12     3     2    1
    13     2     5    1
    14    45    44    1
    15    44    41    1
    16    41    40    1
    17    41    42    1
    18    64    63    1
    19    64    67    1
    20    64    65    1
    21    68    67    1
    22    68    69    1
    23    43    42    2
    24    70    69    1
    25    70    71    1
    26    42    46   am
    27    32    30   am
    28    66    65    2
    29    24    25    1
    30    65    72   am
    31    30    31    2
    32    30    29    1
    33    25    26    1
    34    25    28    1
    35    46    47    1
    36    15    16    1
    37    29    28    1
    38    72    73    1
    39    57    58    2
    40    57    56    1
    41    26    27    2
    42    26    33   am
    43    35    36    2
    44    35    34    1
    45    47    48    1
    46    47    50    1
    47    17    16    1
    48    17    18    2
    49    33    34    1
    50    74    73    1
    51    74    75    2
    52    48    49    2
    53    48    55   am
    54    16    19    1
    55    55    56    1
    56    73    76    1
    57    56    59    1
    58    34    37    1
    59    59    60    1
    60    50    51    1
    61    37    38    1
    62    37    39    1
    63    19    20    1
    64    76    77    1
    65    78    77   ar
    66   140   141    1
    67   140   137    1
    68    77    79   ar
    69    22    21    2
    70   141   142    1
    71    52    51    1
    72    52    53    1
    73    60    62    1
    74    60    61    1
    75    20    21    1
    76    21    23   am
    77   137   138    1
    78   137   136    1
    79    53    54    1
    80   142   136    1
    81   138   139    2
    82   136   130   am
    83    85    86    1
    84    85    84    1
    85    86    80    1
    86   130   131    2
    87   130   129    1
    88   101    99    1
    89   123   122    2
    90   134   132    1
    91    84    81    1
    92   129   132    1
    93   129   128    1
    94   153   151   ar
    95   153   152   ar
    96    80    81    1
    97   151   149   ar
    98    99    98    1
    99   152   150   ar
   100   132   133    1
   101   122   128   am
   102   122   121    1
   103    81    82    1
   104   100    98    1
   105   133   135    1
   106    98    95    1
   107    83    82    2
   108   121   124    1
   109   121   120    1
   110   149   148   ar
   111    82    87   am
   112   150   148   ar
   113   124   125    1
   114   148   147    1
   115    87    88    1
   116    95    94    1
   117    95    96    1
   118    90    89    2
   119   126   125   ar
   120   118   116    1
   121    94    89   am
   122    89    88    1
   123   125   127   ar
   124    88    91    1
   125    96    97    2
   126    96   102   am
   127   147   144    1
   128   143   144    1
   129   119   117    1
   130   105   104    2
   131   116   117    1
   132   116   113    1
   133   102   103    1
   134   144   145    1
   135   104   103    1
   136   104   112   am
   137    91    93    1
   138    91    92    1
   139   113   112    1
   140   113   114    1
   141   103   106    1
   142   145   146    2
   143   106   107    1
   144   114   115    2
   145   108   107   ar
   146   108   110   ar
   147   107   109   ar
   148   110   111   ar
   149   109   111   ar
