@<TRIPOS>MOLECULE
tmp/4ibiB00.pdb
 153 147 0 0 0
SMALL
GASTEIGER

@<TRIPOS>ATOM
      1  N          3.8400   21.5950   31.9140 N.3     8  ALA8       -0.1245
      2  CA         2.6860   22.0270   31.1410 C.3     8  ALA8        0.1562
      3  C          1.4560   21.1950   31.4920 C.2     8  ALA8        0.2260
      4  O          0.3570   21.7340   31.6190 O.2     8  ALA8       -0.2867
      5  CB         2.9700   21.9600   29.6480 C.3     8  ALA8        0.0290
      6  N         -1.9360   22.5280   33.1890 N.3    12  ARG12      -0.1245
      7  CA        -3.1940   22.3140   32.4820 C.3    12  ARG12       0.1563
      8  C         -4.2100   21.6720   33.4150 C.2    12  ARG12       0.2260
      9  O         -5.3690   22.0800   33.4490 O.2    12  ARG12      -0.2867
     10  CB        -3.0140   21.4620   31.2170 C.3    12  ARG12       0.0307
     11  CG        -4.3390   21.1210   30.5150 C.3    12  ARG12       0.0489
     12  CD        -4.1160   20.3720   29.1920 C.3    12  ARG12       0.2205
     13  NE        -3.5580   19.0340   29.3740 N.pl3  12  ARG12      -0.0865
     14  CZ        -2.8790   18.3750   28.4380 C.cat  12  ARG12       0.5346
     15  NH1       -2.6620   18.9360   27.2520 N.pl3  12  ARG12       0.1354
     16  NH2       -2.4110   17.1570   28.6850 N.pl3  12  ARG12       0.1354
     17  N         -9.7190   24.9890   25.8760 N.3    28  GLN28      -0.1245
     18  CA        -8.7640   25.1630   24.7850 C.3    28  GLN28       0.1566
     19  C         -7.7760   26.3100   25.0290 C.2    28  GLN28       0.2260
     20  O         -6.5880   26.2020   24.6940 O.2    28  GLN28      -0.2867
     21  CB        -9.4710   25.3030   23.4300 C.3    28  GLN28       0.0367
     22  CG        -8.5070   25.4060   22.2400 C.3    28  GLN28       0.0905
     23  CD        -7.5480   24.2340   22.1320 C.2    28  GLN28       0.2608
     24  OE1       -7.7660   23.1730   22.7280 O.2    28  GLN28      -0.2717
     25  NE2       -6.4760   24.4180   21.3640 N.am   28  GLN28      -0.0878
     26  N         -5.1590   24.9870   27.0960 N.3    31  GLN31      -0.1231
     27  CA        -4.2320   24.2040   26.2670 C.3    31  GLN31       0.1698
     28  C         -3.1860   25.0750   25.5600 C.2    31  GLN31       0.2592
     29  O         -1.9830   24.7360   25.4990 O.2    31  GLN31      -0.2718
     30  CB        -5.0100   23.4010   25.2190 C.3    31  GLN31       0.0381
     31  CG        -5.7490   22.1690   25.7490 C.3    31  GLN31       0.0905
     32  CD        -4.8720   20.9330   25.7710 C.2    31  GLN31       0.2608
     33  OE1       -3.6800   21.0140   26.0500 O.2    31  GLN31      -0.2717
     34  NE2       -5.4580   19.7750   25.4620 N.am   31  GLN31      -0.0878
     35  N         -3.6630   26.2000   25.0200 N.am   32  VAL32      -0.1980
     36  CA        -2.8150   27.1330   24.2760 C.3    32  VAL32       0.1595
     37  C         -1.8430   27.8380   25.2160 C.2    32  VAL32       0.2287
     38  O         -0.6550   27.9550   24.9230 O.2    32  VAL32      -0.2864
     39  CB        -3.6890   28.1710   23.5130 C.3    32  VAL32       0.0276
     40  CG1       -2.8440   29.3410   23.0090 C.3    32  VAL32       0.0022
     41  CG2       -4.4300   27.4820   22.3720 C.3    32  VAL32       0.0022
     42  N         -0.7570   26.7850   28.0990 N.3    34  CYS34      -0.1221
     43  CA         0.2580   25.8540   28.5770 C.3    34  CYS34       0.1808
     44  C          1.2760   25.4740   27.5030 C.2    34  CYS34       0.2601
     45  O          2.4620   25.3320   27.8100 O.2    34  CYS34      -0.2717
     46  CB        -0.3850   24.5950   29.1680 C.3    34  CYS34       0.0970
     47  SG        -1.2930   24.9420   30.6990 S.3    34  CYS34      -0.0800
     48  N          0.8320   25.3240   26.2520 N.am   35  LYS35      -0.1965
     49  CA         1.7740   25.0280   25.1620 C.3    35  LYS35       0.1728
     50  C          2.7500   26.1870   24.8930 C.2    35  LYS35       0.2616
     51  O          3.9790   26.0080   24.8450 O.2    35  LYS35      -0.2715
     52  CB         1.0120   24.6450   23.8820 C.3    35  LYS35       0.0311
     53  CG         1.8730   24.5560   22.6140 C.3    35  LYS35       0.0038
     54  CD         2.8040   23.3590   22.6240 C.3    35  LYS35       0.0206
     55  CE         3.4980   23.1970   21.2580 C.3    35  LYS35       0.1093
     56  NZ         4.5700   22.1620   21.2640 N.3    35  LYS35      -0.1314
     57  N          2.2010   27.3850   24.7250 N.am   36  LEU36      -0.1977
     58  CA         3.0530   28.5410   24.4720 C.3    36  LEU36       0.1596
     59  C          3.9150   28.8460   25.6910 C.2    36  LEU36       0.2287
     60  O          5.0760   29.2380   25.5620 O.2    36  LEU36      -0.2864
     61  CB         2.2250   29.7630   24.0750 C.3    36  LEU36       0.0297
     62  CG         1.4720   29.6410   22.7420 C.3    36  LEU36       0.0022
     63  CD1        0.7810   30.9540   22.3840 C.3    36  LEU36       0.0001
     64  CD2        2.3840   29.2000   21.6210 C.3    36  LEU36       0.0001
     65  N          5.0190   26.6370   27.8320 N.3    38  LYS38      -0.1245
     66  CA         6.0940   25.6630   27.8650 C.3    38  LYS38       0.1561
     67  C          7.1960   26.0840   26.8990 C.2    38  LYS38       0.2260
     68  O          8.3910   26.0700   27.2430 O.2    38  LYS38      -0.2867
     69  CB         5.5530   24.2880   27.4700 C.3    38  LYS38       0.0271
     70  CG         6.6060   23.1970   27.3940 C.3    38  LYS38       0.0035
     71  CD         6.0010   21.9350   26.8130 C.3    38  LYS38       0.0206
     72  CE         7.0100   20.8040   26.7730 C.3    38  LYS38       0.1093
     73  NZ         6.5050   19.6740   25.9560 N.3    38  LYS38      -0.1314
     74  N         -1.8230   30.6180   17.8680 N.3    80  PRO80      -0.2102
     75  CA        -1.1330   29.4890   17.2470 C.3    80  PRO80       0.1504
     76  C         -2.0330   28.7880   16.2600 C.2    80  PRO80       0.2576
     77  O         -3.2580   28.7610   16.4320 O.2    80  PRO80      -0.2718
     78  CB        -0.8360   28.5600   18.4240 C.3    80  PRO80       0.0282
     79  CG        -1.8780   28.8890   19.4380 C.3    80  PRO80       0.0208
     80  CD        -2.1620   30.3710   19.2780 C.3    80  PRO80       0.0893
     81  N         -1.4180   28.2420   15.2200 N.am   81  VAL81      -0.1966
     82  CA        -2.1270   27.4240   14.2500 C.3    81  VAL81       0.1727
     83  C         -2.0530   25.9590   14.6820 C.2    81  VAL81       0.2616
     84  O         -0.9660   25.4200   14.9220 O.2    81  VAL81      -0.2715
     85  CB        -1.5290   27.5870   12.8460 C.3    81  VAL81       0.0290
     86  CG1       -2.1740   26.6000   11.8730 C.3    81  VAL81       0.0023
     87  CG2       -1.6950   29.0300   12.3610 C.3    81  VAL81       0.0023
     88  N         -3.2180   25.3270   14.7920 N.am   82  ILE82      -0.1963
     89  CA        -3.2980   23.9140   15.1570 C.3    82  ILE82       0.1727
     90  C         -3.9310   23.1640   14.0010 C.2    82  ILE82       0.2616
     91  O         -5.0650   23.4470   13.6110 O.2    82  ILE82      -0.2715
     92  CB        -4.1350   23.7140   16.4400 C.3    82  ILE82       0.0290
     93  CG1       -3.4810   24.4450   17.6040 C.3    82  ILE82       0.0022
     94  CG2       -4.2550   22.2270   16.7980 C.3    82  ILE82       0.0023
     95  CD1       -4.3600   24.5490   18.8330 C.3    82  ILE82       0.0001
     96  N         -3.2030   22.1970   13.4500 N.am   83  HIS83      -0.1959
     97  CA        -3.6950   21.4310   12.3100 C.3    83  HIS83       0.1787
     98  C         -4.6240   20.3320   12.7990 C.2    83  HIS83       0.2620
     99  O         -4.2880   19.5970   13.7240 O.2    83  HIS83      -0.2715
    100  CB        -2.5470   20.8100   11.5030 C.3    83  HIS83       0.0785
    101  CG        -3.0030   20.1080   10.2620 C.ar   83  HIS83       0.0821
    102  ND1       -3.2950   20.7750    9.0930 N.ar   83  HIS83      -0.2267
    103  CD2       -3.2230   18.7940   10.0100 C.ar   83  HIS83       0.1154
    104  CE1       -3.6800   19.9060    8.1750 C.ar   83  HIS83       0.1986
    105  NE2       -3.6480   18.6980    8.7070 N.ar   83  HIS83      -0.2212
    106  N         -5.7980   20.2380   12.1910 N.am   84  ILE84      -0.1977
    107  CA        -6.7600   19.1880   12.5270 C.3    84  ILE84       0.1596
    108  C         -7.3560   18.6690   11.2310 C.2    84  ILE84       0.2287
    109  O         -7.2340   19.3100   10.1850 O.2    84  ILE84      -0.2864
    110  CB        -7.9090   19.7130   13.4320 C.3    84  ILE84       0.0276
    111  CG1       -8.6680   20.8490   12.7450 C.3    84  ILE84       0.0022
    112  CG2       -7.3780   20.2120   14.7810 C.3    84  ILE84       0.0022
    113  CD1       -9.8930   21.2630   13.5120 C.3    84  ILE84       0.0001
    114  N        -13.1360   17.2150   14.8290 N.3    89  ASP89      -0.1225
    115  CA       -12.0820   17.0540   15.8390 C.3    89  ASP89       0.1805
    116  C        -12.1990   18.0590   17.0000 C.2    89  ASP89       0.2598
    117  O        -11.5690   17.8830   18.0390 O.2    89  ASP89      -0.2718
    118  CB       -10.6920   17.1960   15.2000 C.3    89  ASP89       0.1424
    119  CG       -10.3050   15.9960   14.3500 C.2    89  ASP89       0.3668
    120  OD1      -10.8740   14.9050   14.5550 O.co2  89  ASP89      -0.2456
    121  OD2       -9.4120   16.1460   13.4870 O.co2  89  ASP89      -0.2456
    122  N        -12.9910   19.1090   16.8130 N.am   90  ILE90      -0.1966
    123  CA       -13.1380   20.1590   17.8290 C.3    90  ILE90       0.1712
    124  C        -14.2520   19.7500   18.8090 C.2    90  ILE90       0.2458
    125  O        -15.3170   19.2920   18.3860 O.2    90  ILE90      -0.2730
    126  CB       -13.4300   21.5420   17.1550 C.3    90  ILE90       0.0289
    127  CG1      -12.2300   21.9770   16.3080 C.3    90  ILE90       0.0022
    128  CG2      -13.7410   22.6320   18.1800 C.3    90  ILE90       0.0023
    129  CD1      -12.5670   22.9920   15.2400 C.3    90  ILE90       0.0001
    130  N        -14.0140   19.9010   20.1290 N.am   91  PRO91      -0.2727
    131  CA       -15.0380   19.4450   21.0790 C.3    91  PRO91       0.1402
    132  C        -16.3770   20.1590   20.8930 C.2    91  PRO91       0.2269
    133  O        -16.3890   21.3280   20.4680 O.2    91  PRO91      -0.2865
    134  CB       -14.4530   19.8160   22.4530 C.3    91  PRO91       0.0296
    135  CG       -13.0080   20.1570   22.2120 C.3    91  PRO91       0.0237
    136  CD       -12.9140   20.6230   20.7960 C.3    91  PRO91       0.0939
    137  N        -16.9920   23.7110   22.0780 N.3    94  CYS94      -0.1235
    138  CA       -16.2920   24.7900   21.3690 C.3    94  CYS94       0.1677
    139  C        -16.9360   25.1600   20.0420 C.2    94  CYS94       0.2270
    140  O        -16.5900   26.1830   19.4600 O.2    94  CYS94      -0.2867
    141  CB       -14.8510   24.4010   21.0420 C.3    94  CYS94       0.0956
    142  SG       -13.6740   24.4520   22.3620 S.3    94  CYS94      -0.0801
    143  N         -7.6160   26.9810   13.8500 N.3   115  PHE115     -0.1241
    144  CA        -7.5820   25.5900   13.4120 C.3   115  PHE115      0.1605
    145  C         -7.4110   25.5590   11.9020 C.2   115  PHE115      0.2264
    146  O         -8.1390   26.2370   11.1630 O.2   115  PHE115     -0.2867
    147  CB        -8.8650   24.8580   13.8170 C.3   115  PHE115      0.0534
    148  CG        -8.9820   24.6270   15.2950 C.ar  115  PHE115     -0.0203
    149  CD1       -9.9230   25.3120   16.0560 C.ar  115  PHE115     -0.0042
    150  CD2       -8.1460   23.7110   15.9300 C.ar  115  PHE115     -0.0042
    151  CE1      -10.0310   25.0810   17.4270 C.ar  115  PHE115     -0.0003
    152  CE2       -8.2350   23.4920   17.3090 C.ar  115  PHE115     -0.0003
    153  CZ        -9.1840   24.1930   18.0570 C.ar  115  PHE115     -0.0000
@<TRIPOS>BOND
     1   104   105   ar
     2   104   102   ar
     3   105   103   ar
     4   102   101   ar
     5   103   101   ar
     6   109   108    2
     7   101   100    1
     8   146   145    2
     9   108   107    1
    10   100    97    1
    11    86    85    1
    12   145   144    1
    13   106   107    1
    14   106    98   am
    15    97    98    1
    16    97    96    1
    17    87    85    1
    18   107   110    1
    19   111   110    1
    20   111   113    1
    21    98    99    2
    22    85    82    1
    23   144   147    1
    24   144   143    1
    25   110   112    1
    26    96    90   am
    27   121   119   ar
    28    91    90    2
    29   147   148    1
    30    90    89    1
    31    82    83    1
    32    82    81    1
    33   119   120   ar
    34   119   118    1
    35    83    88   am
    36    83    84    2
    37    88    89    1
    38   114   115    1
    39    89    92    1
    40   118   115    1
    41    81    76   am
    42   129   127    1
    43   148   150   ar
    44   148   149   ar
    45   115   116    1
    46   150   152   ar
    47   149   151   ar
    48    76    77    2
    49    76    75    1
    50   127   126    1
    51    92    94    1
    52    92    93    1
    53   122   116   am
    54   122   123    1
    55   116   117    2
    56   126   123    1
    57   126   128    1
    58    75    74    1
    59    75    78    1
    60   152   153   ar
    61   151   153   ar
    62    93    95    1
    63   123   124    1
    64    74    80    1
    65   125   124    2
    66    78    79    1
    67   124   130   am
    68    80    79    1
    69   140   139    2
    70   139   138    1
    71   130   136    1
    72   130   131    1
    73   133   132    2
    74   136   135    1
    75   132   131    1
    76   141   138    1
    77   141   142    1
    78   131   134    1
    79    55    56    1
    80    55    54    1
    81    25    23   am
    82   138   137    1
    83    64    62    1
    84    23    22    1
    85    23    24    2
    86   135   134    1
    87    22    21    1
    88    41    39    1
    89    63    62    1
    90    53    54    1
    91    53    52    1
    92    62    61    1
    93    40    39    1
    94    21    18    1
    95    39    36    1
    96    52    49    1
    97    61    58    1
    98    36    35    1
    99    36    37    1
   100    58    57    1
   101    58    59    1
   102    20    19    2
   103    57    50   am
   104    18    19    1
   105    18    17    1
   106    51    50    2
   107    50    49    1
   108    38    37    2
   109    35    28   am
   110    49    48    1
   111    30    31    1
   112    30    27    1
   113    34    32   am
   114    29    28    2
   115    28    27    1
   116    60    59    2
   117    31    32    1
   118    32    33    2
   119    73    72    1
   120    48    44   am
   121    27    26    1
   122    72    71    1
   123    71    70    1
   124    67    68    2
   125    67    66    1
   126    15    14    1
   127    70    69    1
   128    69    66    1
   129    44    45    2
   130    44    43    1
   131    65    66    1
   132    42    43    1
   133    14    16    1
   134    14    13    2
   135    43    46    1
   136    46    47    1
   137    12    13    1
   138    12    11    1
   139     5     2    1
   140    11    10    1
   141     2     3    1
   142     2     1    1
   143    10     7    1
   144     3     4    2
   145     7     6    1
   146     7     8    1
   147     8     9    2
