@<TRIPOS>MOLECULE
tmp/4ibjB00.pdb
 162 156 0 0 0
SMALL
GASTEIGER

@<TRIPOS>ATOM
      1  N          3.9150   22.0620   32.2720 N.3     5  ALA5       -0.1231
      2  CA         2.7730   22.5130   31.4890 C.3     5  ALA5        0.1694
      3  C          1.5280   21.7090   31.8310 C.2     5  ALA5        0.2591
      4  O          0.4340   22.2570   31.9380 O.2     5  ALA5       -0.2718
      5  CB         3.0780   22.4300   30.0050 C.3     5  ALA5        0.0304
      6  N          1.6970   20.4040   31.9940 N.am    6  LYS6       -0.1980
      7  CA         0.5740   19.5460   32.3430 C.3     6  LYS6        0.1596
      8  C          0.0570   19.8520   33.7430 C.2     6  LYS6        0.2287
      9  O         -1.1550   19.8360   33.9690 O.2     6  LYS6       -0.2864
     10  CB         0.9640   18.0670   32.2390 C.3     6  LYS6        0.0298
     11  CG        -0.1780   17.1080   32.5870 C.3     6  LYS6        0.0038
     12  CD        -1.5090   17.6250   32.0400 C.3     6  LYS6        0.0206
     13  CE        -2.5250   16.5010   31.8230 C.3     6  LYS6        0.1093
     14  NZ        -3.8190   17.0330   31.2840 N.3     6  LYS6       -0.1314
     15  N         -1.9000   23.1200   33.4220 N.3     9  ARG9       -0.1245
     16  CA        -3.1640   22.8770   32.7440 C.3     9  ARG9        0.1563
     17  C         -4.1760   22.2730   33.7170 C.2     9  ARG9        0.2260
     18  O         -5.3480   22.6860   33.7580 O.2     9  ARG9       -0.2867
     19  CB        -2.9850   21.9540   31.5410 C.3     9  ARG9        0.0307
     20  CG        -4.3280   21.6340   30.8940 C.3     9  ARG9        0.0489
     21  CD        -4.1520   20.8780   29.5990 C.3     9  ARG9        0.2205
     22  NE        -3.5620   19.5670   29.8340 N.pl3   9  ARG9       -0.0865
     23  CZ        -2.8570   18.8880   28.9300 C.cat   9  ARG9        0.5346
     24  NH1       -2.6450   19.3940   27.7190 N.pl3   9  ARG9        0.1354
     25  NH2       -2.3590   17.7000   29.2340 N.pl3   9  ARG9        0.1354
     26  N         -9.6520   25.4240   26.0550 N.3    25  GLN25      -0.1245
     27  CA        -8.6910   25.5500   24.9630 C.3    25  GLN25       0.1566
     28  C         -7.7250   26.7070   25.1930 C.2    25  GLN25       0.2260
     29  O         -6.5500   26.6290   24.8210 O.2    25  GLN25      -0.2867
     30  CB        -9.3990   25.6750   23.6070 C.3    25  GLN25       0.0367
     31  CG        -8.4340   25.6910   22.4130 C.3    25  GLN25       0.0905
     32  CD        -7.4810   24.4870   22.3740 C.2    25  GLN25       0.2608
     33  OE1       -7.7560   23.4390   22.9540 O.2    25  GLN25      -0.2717
     34  NE2       -6.3610   24.6440   21.6830 N.am   25  GLN25      -0.0878
     35  N         -5.0330   25.4640   27.2970 N.3    28  GLN28      -0.1231
     36  CA        -4.0960   24.6880   26.4820 C.3    28  GLN28       0.1698
     37  C         -3.0780   25.5760   25.7800 C.2    28  GLN28       0.2592
     38  O         -1.8830   25.2630   25.7340 O.2    28  GLN28      -0.2718
     39  CB        -4.8480   23.8800   25.4150 C.3    28  GLN28       0.0381
     40  CG        -5.6410   22.6830   25.9390 C.3    28  GLN28       0.0905
     41  CD        -4.8070   21.4240   26.0360 C.2    28  GLN28       0.2608
     42  OE1       -3.6080   21.4840   26.2610 O.2    28  GLN28      -0.2717
     43  NE2       -5.4440   20.2730   25.8580 N.am   28  GLN28      -0.0878
     44  N         -3.5780   26.6650   25.1940 N.am   29  VAL29      -0.1980
     45  CA        -2.7520   27.6150   24.4520 C.3    29  VAL29       0.1595
     46  C         -1.7910   28.3310   25.3940 C.2    29  VAL29       0.2287
     47  O         -0.5940   28.4470   25.1130 O.2    29  VAL29      -0.2864
     48  CB        -3.6250   28.6380   23.6780 C.3    29  VAL29       0.0276
     49  CG1       -2.7680   29.7630   23.1070 C.3    29  VAL29       0.0022
     50  CG2       -4.3780   27.9420   22.5460 C.3    29  VAL29       0.0022
     51  N         -0.7010   27.3430   28.2640 N.3    31  CYS31      -0.1221
     52  CA         0.2880   26.4050   28.7850 C.3    31  CYS31       0.1808
     53  C          1.3340   26.0000   27.7420 C.2    31  CYS31       0.2601
     54  O          2.5160   25.8860   28.0570 O.2    31  CYS31      -0.2717
     55  CB        -0.3940   25.1690   29.3780 C.3    31  CYS31       0.0970
     56  SG        -1.2790   25.4560   30.9350 S.3    31  CYS31      -0.0800
     57  N          0.9130   25.7830   26.4970 N.am   32  LYS32      -0.1965
     58  CA         1.8570   25.4260   25.4330 C.3    32  LYS32       0.1728
     59  C          2.8040   26.5820   25.1130 C.2    32  LYS32       0.2616
     60  O          4.0110   26.3990   25.0430 O.2    32  LYS32      -0.2715
     61  CB         1.1160   24.9780   24.1700 C.3    32  LYS32       0.0311
     62  CG         2.0310   24.7630   22.9810 C.3    32  LYS32       0.0038
     63  CD         3.0680   23.6780   23.2180 C.3    32  LYS32       0.0206
     64  CE         3.9190   23.4670   21.9540 C.3    32  LYS32       0.1093
     65  NZ         5.0670   22.5460   22.1750 N.3    32  LYS32      -0.1314
     66  N          2.2650   27.7760   24.9120 N.am   33  LEU33      -0.1977
     67  CA         3.1070   28.9450   24.6600 C.3    33  LEU33       0.1596
     68  C          3.9600   29.2590   25.8820 C.2    33  LEU33       0.2287
     69  O          5.1410   29.6000   25.7640 O.2    33  LEU33      -0.2864
     70  CB         2.2570   30.1620   24.2780 C.3    33  LEU33       0.0297
     71  CG         1.9400   30.3110   22.7910 C.3    33  LEU33       0.0022
     72  CD1        1.4280   29.0240   22.2160 C.3    33  LEU33       0.0001
     73  CD2        0.9240   31.4160   22.5840 C.3    33  LEU33       0.0001
     74  N          5.0880   27.1110   28.0960 N.3    35  LYS35      -0.1245
     75  CA         6.1600   26.1270   28.1560 C.3    35  LYS35       0.1561
     76  C          7.2770   26.5130   27.2110 C.2    35  LYS35       0.2260
     77  O          8.4630   26.4860   27.5590 O.2    35  LYS35      -0.2867
     78  CB         5.6170   24.7540   27.7520 C.3    35  LYS35       0.0271
     79  CG         6.6660   23.6630   27.7090 C.3    35  LYS35       0.0035
     80  CD         6.0620   22.3620   27.1730 C.3    35  LYS35       0.0206
     81  CE         7.0800   21.2290   27.1870 C.3    35  LYS35       0.1093
     82  NZ         6.6480   20.1000   26.3100 N.3    35  LYS35      -0.1314
     83  N         -1.7930   30.7730   17.9890 N.3    77  PRO77      -0.2102
     84  CA        -1.1040   29.6750   17.3250 C.3    77  PRO77       0.1504
     85  C         -2.0380   28.9480   16.3850 C.2    77  PRO77       0.2576
     86  O         -3.2730   28.9830   16.5490 O.2    77  PRO77      -0.2718
     87  CB        -0.7390   28.7510   18.4770 C.3    77  PRO77       0.0282
     88  CG        -1.8450   28.9770   19.4760 C.3    77  PRO77       0.0208
     89  CD        -2.1140   30.4600   19.3940 C.3    77  PRO77       0.0893
     90  N         -1.4440   28.2880   15.3990 N.am   78  VAL78      -0.1966
     91  CA        -2.1930   27.5470   14.4090 C.3    78  VAL78       0.1727
     92  C         -2.1510   26.0870   14.8090 C.2    78  VAL78       0.2616
     93  O         -1.0770   25.5470   15.0910 O.2    78  VAL78      -0.2715
     94  CB        -1.5810   27.7120   13.0150 C.3    78  VAL78       0.0290
     95  CG1       -2.1980   26.7150   12.0390 C.3    78  VAL78       0.0023
     96  CG2       -1.7760   29.1400   12.5170 C.3    78  VAL78       0.0023
     97  N         -3.3190   25.4570   14.8530 N.am   79  ILE79      -0.1963
     98  CA        -3.4240   24.0430   15.2100 C.3    79  ILE79       0.1727
     99  C         -4.0300   23.2720   14.0400 C.2    79  ILE79       0.2616
    100  O         -5.1570   23.5540   13.5980 O.2    79  ILE79      -0.2715
    101  CB        -4.3030   23.8360   16.4650 C.3    79  ILE79       0.0290
    102  CG1       -3.6840   24.5260   17.6830 C.3    79  ILE79       0.0022
    103  CG2       -4.4700   22.3520   16.7600 C.3    79  ILE79       0.0023
    104  CD1       -4.6030   24.5730   18.9040 C.3    79  ILE79       0.0001
    105  N         -3.2930   22.2890   13.5270 N.am   80  HIS80      -0.1959
    106  CA        -3.7830   21.5080   12.3990 C.3    80  HIS80       0.1787
    107  C         -4.6690   20.3600   12.8560 C.2    80  HIS80       0.2620
    108  O         -4.2810   19.5700   13.7130 O.2    80  HIS80      -0.2715
    109  CB        -2.6180   21.0090   11.5330 C.3    80  HIS80       0.0785
    110  CG        -2.0480   22.0670   10.6390 C.ar   80  HIS80       0.0821
    111  ND1       -1.0480   22.9240   11.0410 N.ar   80  HIS80      -0.2267
    112  CD2       -2.3610   22.4210    9.3700 C.ar   80  HIS80       0.1154
    113  CE1       -0.7580   23.7530   10.0530 C.ar   80  HIS80       0.1986
    114  NE2       -1.5430   23.4710    9.0300 N.ar   80  HIS80      -0.2212
    115  N         -5.8650   20.2910   12.2800 N.am   81  ILE81      -0.1977
    116  CA        -6.8320   19.2370   12.5730 C.3    81  ILE81       0.1596
    117  C         -7.4410   18.7680   11.2660 C.2    81  ILE81       0.2287
    118  O         -7.2740   19.4060   10.2290 O.2    81  ILE81      -0.2864
    119  CB        -7.9650   19.7330   13.4890 C.3    81  ILE81       0.0276
    120  CG1       -8.6540   20.9550   12.8680 C.3    81  ILE81       0.0022
    121  CG2       -7.4440   20.0390   14.8950 C.3    81  ILE81       0.0022
    122  CD1       -9.8660   21.4460   13.6510 C.3    81  ILE81       0.0001
    123  N        -13.1620   17.4120   14.9720 N.3    86  ASP86      -0.1225
    124  CA       -12.0840   17.2350   15.9480 C.3    86  ASP86       0.1805
    125  C        -12.1360   18.2660   17.0830 C.2    86  ASP86       0.2598
    126  O        -11.4700   18.1180   18.1090 O.2    86  ASP86      -0.2718
    127  CB       -10.7170   17.3070   15.2550 C.3    86  ASP86       0.1424
    128  CG       -10.4720   16.1350   14.3300 C.2    86  ASP86       0.3668
    129  OD1      -11.1590   15.1060   14.4880 O.co2  86  ASP86      -0.2456
    130  OD2       -9.5910   16.2380   13.4470 O.co2  86  ASP86      -0.2456
    131  N        -12.9230   19.3160   16.8900 N.am   87  ILE87      -0.1966
    132  CA       -13.0500   20.3690   17.8850 C.3    87  ILE87       0.1712
    133  C        -14.1370   19.9830   18.8950 C.2    87  ILE87       0.2458
    134  O        -15.2010   19.4890   18.5010 O.2    87  ILE87      -0.2730
    135  CB       -13.3820   21.7140   17.2060 C.3    87  ILE87       0.0289
    136  CG1      -12.2730   22.0920   16.2140 C.3    87  ILE87       0.0022
    137  CG2      -13.5850   22.8110   18.2400 C.3    87  ILE87       0.0023
    138  CD1      -12.6060   23.2920   15.3290 C.3    87  ILE87       0.0001
    139  N        -13.8790   20.1980   20.2000 N.am   88  PRO88      -0.2727
    140  CA       -14.8470   19.7670   21.2200 C.3    88  PRO88       0.1402
    141  C        -16.2140   20.4290   21.0330 C.2    88  PRO88       0.2269
    142  O        -16.2760   21.5820   20.5930 O.2    88  PRO88      -0.2865
    143  CB       -14.2140   20.2450   22.5360 C.3    88  PRO88       0.0296
    144  CG       -12.7510   20.3990   22.2350 C.3    88  PRO88       0.0237
    145  CD       -12.6960   20.8460   20.7980 C.3    88  PRO88       0.0939
    146  N        -16.9180   24.0070   22.1870 N.3    91  CYS91      -0.1235
    147  CA       -16.2230   25.0630   21.4600 C.3    91  CYS91       0.1677
    148  C        -16.8800   25.4330   20.1380 C.2    91  CYS91       0.2270
    149  O        -16.5440   26.4690   19.5630 O.2    91  CYS91      -0.2867
    150  CB       -14.7910   24.6330   21.1420 C.3    91  CYS91       0.0956
    151  SG       -13.6050   24.8150   22.4800 S.3    91  CYS91      -0.0801
    152  N         -7.6550   27.1270   13.9290 N.3   112  PHE112     -0.1241
    153  CA        -7.6480   25.7380   13.5010 C.3   112  PHE112      0.1605
    154  C         -7.5150   25.7010   11.9960 C.2   112  PHE112      0.2264
    155  O         -8.3080   26.3220   11.2840 O.2   112  PHE112     -0.2867
    156  CB        -8.9410   25.0430   13.9250 C.3   112  PHE112      0.0534
    157  CG        -9.0640   24.8540   15.4040 C.ar  112  PHE112     -0.0203
    158  CD1       -9.9500   25.6270   16.1420 C.ar  112  PHE112     -0.0042
    159  CD2       -8.2860   23.9030   16.0540 C.ar  112  PHE112     -0.0042
    160  CE1      -10.0640   25.4530   17.5180 C.ar  112  PHE112     -0.0003
    161  CE2       -8.3880   23.7240   17.4290 C.ar  112  PHE112     -0.0003
    162  CZ        -9.2840   24.5050   18.1590 C.ar  112  PHE112     -0.0000
@<TRIPOS>BOND
     1   114   112   ar
     2   114   113   ar
     3   112   110   ar
     4   113   111   ar
     5   118   117    2
     6   110   111   ar
     7   110   109    1
     8   117   116    1
     9   155   154    2
    10   109   106    1
    11   154   153    1
    12    95    94    1
    13   115   116    1
    14   115   107   am
    15   106   107    1
    16   106   105    1
    17    96    94    1
    18   116   119    1
    19   107   108    2
    20   120   119    1
    21   120   122    1
    22    94    91    1
    23   130   128   ar
    24   119   121    1
    25   153   156    1
    26   153   152    1
    27   105    99   am
    28   100    99    2
    29   156   157    1
    30    99    98    1
    31   128   129   ar
    32   128   127    1
    33    91    92    1
    34    91    90    1
    35    92    97   am
    36    92    93    2
    37    97    98    1
    38   123   124    1
    39    98   101    1
    40   127   124    1
    41   138   136    1
    42    90    85   am
    43   157   159   ar
    44   157   158   ar
    45   124   125    1
    46   159   161   ar
    47   158   160   ar
    48   136   135    1
    49    85    86    2
    50    85    84    1
    51   101   103    1
    52   101   102    1
    53   131   125   am
    54   131   132    1
    55   125   126    2
    56   135   132    1
    57   135   137    1
    58    84    83    1
    59    84    87    1
    60   161   162   ar
    61   160   162   ar
    62   102   104    1
    63   132   133    1
    64    83    89    1
    65    87    88    1
    66   134   133    2
    67   133   139   am
    68    89    88    1
    69   149   148    2
    70   148   147    1
    71   139   145    1
    72   139   140    1
    73   142   141    2
    74   145   144    1
    75   141   140    1
    76   150   147    1
    77   150   151    1
    78   140   143    1
    79   147   146    1
    80    34    32   am
    81    64    65    1
    82    64    63    1
    83    72    71    1
    84   144   143    1
    85    32    31    1
    86    32    33    2
    87    31    30    1
    88    50    48    1
    89    73    71    1
    90    71    70    1
    91    62    63    1
    92    62    61    1
    93    49    48    1
    94    30    27    1
    95    48    45    1
    96    61    58    1
    97    70    67    1
    98    45    44    1
    99    45    46    1
   100    67    66    1
   101    67    68    1
   102    29    28    2
   103    66    59   am
   104    27    28    1
   105    27    26    1
   106    60    59    2
   107    59    58    1
   108    47    46    2
   109    44    37   am
   110    39    40    1
   111    39    36    1
   112    58    57    1
   113    38    37    2
   114    69    68    2
   115    37    36    1
   116    43    41   am
   117    40    41    1
   118    41    42    2
   119    82    81    1
   120    36    35    1
   121    57    53   am
   122    80    81    1
   123    80    79    1
   124    76    77    2
   125    76    75    1
   126    79    78    1
   127    24    23    1
   128    53    54    2
   129    53    52    1
   130    78    75    1
   131    74    75    1
   132    51    52    1
   133    52    55    1
   134    23    25    1
   135    23    22    2
   136    55    56    1
   137    21    22    1
   138    21    20    1
   139     5     2    1
   140    20    19    1
   141    14    13    1
   142     2     3    1
   143     2     1    1
   144    19    16    1
   145    13    12    1
   146     3     4    2
   147     3     6   am
   148     6     7    1
   149    12    11    1
   150    10     7    1
   151    10    11    1
   152     7     8    1
   153    16    15    1
   154    16    17    1
   155    17    18    2
   156     8     9    2
