@<TRIPOS>MOLECULE
tmp/4ibkB00.pdb
 147 142 0 0 0
SMALL
GASTEIGER

@<TRIPOS>ATOM
      1  N          3.8090   21.7420   31.7180 N.3     5  ALA5       -0.1245
      2  CA         2.6380   22.1830   30.9700 C.3     5  ALA5        0.1562
      3  C          1.4390   21.3260   31.3480 C.2     5  ALA5        0.2260
      4  O          0.3280   21.8320   31.4950 O.2     5  ALA5       -0.2867
      5  CB         2.8970   22.1070   29.4840 C.3     5  ALA5        0.0290
      6  N         -1.9410   22.7090   33.0950 N.3     9  ARG9       -0.1245
      7  CA        -3.2050   22.4710   32.3960 C.3     9  ARG9        0.1563
      8  C         -4.2300   21.8250   33.3320 C.2     9  ARG9        0.2260
      9  O         -5.3980   22.2400   33.3750 O.2     9  ARG9       -0.2867
     10  CB        -2.9740   21.5970   31.1560 C.3     9  ARG9        0.0307
     11  CG        -4.2080   21.3710   30.3010 C.3     9  ARG9        0.0489
     12  CD        -4.0010   20.1710   29.3900 C.3     9  ARG9        0.2205
     13  NE        -4.0120   18.9370   30.1680 N.pl3   9  ARG9       -0.0865
     14  CZ        -3.4690   17.7840   29.7840 C.cat   9  ARG9        0.5346
     15  NH1       -2.8460   17.6860   28.6150 N.pl3   9  ARG9        0.1354
     16  NH2       -3.5490   16.7240   30.5810 N.pl3   9  ARG9        0.1354
     17  N         -9.7280   25.1870   25.7270 N.3    25  GLN25      -0.1245
     18  CA        -8.7670   25.3260   24.6360 C.3    25  GLN25       0.1566
     19  C         -7.8030   26.4860   24.8870 C.2    25  GLN25       0.2260
     20  O         -6.6330   26.4220   24.5060 O.2    25  GLN25      -0.2867
     21  CB        -9.4600   25.4780   23.2750 C.3    25  GLN25       0.0367
     22  CG        -8.4870   25.5520   22.1010 C.3    25  GLN25       0.0905
     23  CD        -7.5870   24.3260   22.0000 C.2    25  GLN25       0.2608
     24  OE1       -7.9260   23.2530   22.4940 O.2    25  GLN25      -0.2717
     25  NE2       -6.4300   24.4850   21.3630 N.am   25  GLN25      -0.0878
     26  N         -5.1320   25.1800   26.9590 N.3    28  GLN28      -0.1231
     27  CA        -4.2040   24.4300   26.1090 C.3    28  GLN28       0.1698
     28  C         -3.1960   25.3410   25.3980 C.2    28  GLN28       0.2592
     29  O         -1.9990   25.0350   25.3080 O.2    28  GLN28      -0.2718
     30  CB        -4.9930   23.6320   25.0610 C.3    28  GLN28       0.0381
     31  CG        -5.7110   22.4020   25.6160 C.3    28  GLN28       0.0905
     32  CD        -4.8690   21.1470   25.4740 C.2    28  GLN28       0.2608
     33  OE1       -3.6940   21.1320   25.8310 O.2    28  GLN28      -0.2717
     34  NE2       -5.4630   20.0980   24.9280 N.am   28  GLN28      -0.0878
     35  N         -3.6950   26.4460   24.8760 N.am   29  VAL29      -0.1980
     36  CA        -2.8470   27.4070   24.1670 C.3    29  VAL29       0.1595
     37  C         -1.8630   28.0850   25.1120 C.2    29  VAL29       0.2287
     38  O         -0.6650   28.1950   24.8260 O.2    29  VAL29      -0.2864
     39  CB        -3.7060   28.4610   23.4250 C.3    29  VAL29       0.0276
     40  CG1       -2.8340   29.5780   22.8950 C.3    29  VAL29       0.0022
     41  CG2       -4.4890   27.8000   22.2960 C.3    29  VAL29       0.0022
     42  N         -0.7250   26.9760   27.9690 N.3    31  CYS31      -0.1221
     43  CA         0.3040   26.0560   28.4640 C.3    31  CYS31       0.1808
     44  C          1.3410   25.7220   27.3790 C.2    31  CYS31       0.2601
     45  O          2.5330   25.6410   27.6640 O.2    31  CYS31      -0.2717
     46  CB        -0.3390   24.7740   29.0280 C.3    31  CYS31       0.0970
     47  SG        -1.2950   25.0770   30.5380 S.3    31  CYS31      -0.0800
     48  N          0.8900   25.5660   26.1370 N.am   32  LYS32      -0.1965
     49  CA         1.7900   25.2530   25.0230 C.3    32  LYS32       0.1728
     50  C          2.7210   26.4350   24.7450 C.2    32  LYS32       0.2616
     51  O          3.9330   26.2640   24.6740 O.2    32  LYS32      -0.2715
     52  CB         0.9920   24.8600   23.7710 C.3    32  LYS32       0.0311
     53  CG         1.8130   24.7430   22.4660 C.3    32  LYS32       0.0038
     54  CD         2.8350   23.6270   22.5420 C.3    32  LYS32       0.0206
     55  CE         3.3760   23.2520   21.1420 C.3    32  LYS32       0.1093
     56  NZ         3.8440   24.4280   20.3340 N.3    32  LYS32      -0.1314
     57  N          2.1630   27.6380   24.6090 N.am   33  LEU33      -0.1977
     58  CA         3.0020   28.7960   24.3290 C.3    33  LEU33       0.1596
     59  C          3.8690   29.0970   25.5440 C.2    33  LEU33       0.2287
     60  O          5.0120   29.5250   25.4100 O.2    33  LEU33      -0.2864
     61  CB         2.1690   30.0190   23.9480 C.3    33  LEU33       0.0297
     62  CG         1.3880   29.8780   22.6340 C.3    33  LEU33       0.0022
     63  CD1        0.7790   31.2130   22.2160 C.3    33  LEU33       0.0001
     64  CD2        2.2860   29.3510   21.5560 C.3    33  LEU33       0.0001
     65  N          5.0070   26.8480   27.6620 N.3    35  LYS35      -0.1245
     66  CA         6.0910   25.8600   27.6710 C.3    35  LYS35       0.1561
     67  C          7.2010   26.2860   26.7070 C.2    35  LYS35       0.2260
     68  O          8.3870   26.2940   27.0690 O.2    35  LYS35      -0.2867
     69  CB         5.5580   24.4740   27.2990 C.3    35  LYS35       0.0271
     70  CG         6.6320   23.4020   27.1930 C.3    35  LYS35       0.0035
     71  CD         6.0100   22.0710   26.7950 C.3    35  LYS35       0.0206
     72  CE         7.0720   20.9980   26.6000 C.3    35  LYS35       0.1093
     73  NZ         6.5050   19.8010   25.9230 N.3    35  LYS35      -0.1314
     74  N         -1.8330   30.7970   17.7400 N.3    77  PRO77      -0.2102
     75  CA        -1.1250   29.6800   17.1260 C.3    77  PRO77       0.1504
     76  C         -2.0270   28.9750   16.1280 C.2    77  PRO77       0.2576
     77  O         -3.2530   28.9630   16.2960 O.2    77  PRO77      -0.2718
     78  CB        -0.8610   28.7420   18.3060 C.3    77  PRO77       0.0282
     79  CG        -1.9260   29.0920   19.3170 C.3    77  PRO77       0.0208
     80  CD        -2.1120   30.5690   19.1720 C.3    77  PRO77       0.0893
     81  N         -1.4150   28.3830   15.1090 N.am   78  VAL78      -0.1966
     82  CA        -2.1470   27.5980   14.1360 C.3    78  VAL78       0.1727
     83  C         -2.0710   26.1430   14.5780 C.2    78  VAL78       0.2616
     84  O         -0.9830   25.6380   14.8750 O.2    78  VAL78      -0.2715
     85  CB        -1.5690   27.7790   12.7190 C.3    78  VAL78       0.0290
     86  CG1       -2.2300   26.8180   11.7320 C.3    78  VAL78       0.0023
     87  CG2       -1.7430   29.2250   12.2610 C.3    78  VAL78       0.0023
     88  N         -3.2320   25.5030   14.6710 N.am   79  ILE79      -0.1963
     89  CA        -3.2980   24.0830   15.0020 C.3    79  ILE79       0.1727
     90  C         -3.9100   23.3260   13.8400 C.2    79  ILE79       0.2616
     91  O         -5.0620   23.5520   13.4760 O.2    79  ILE79      -0.2715
     92  CB        -4.1450   23.8390   16.2720 C.3    79  ILE79       0.0290
     93  CG1       -3.5880   24.6450   17.4460 C.3    79  ILE79       0.0022
     94  CG2       -4.1870   22.3400   16.6330 C.3    79  ILE79       0.0023
     95  CD1       -4.4990   24.6420   18.6520 C.3    79  ILE79       0.0001
     96  N         -3.1380   22.4100   13.2610 N.am   80  HIS80      -0.1959
     97  CA        -3.6180   21.6200   12.1380 C.3    80  HIS80       0.1787
     98  C         -4.5030   20.4650   12.6000 C.2    80  HIS80       0.2620
     99  O         -4.1070   19.6740   13.4530 O.2    80  HIS80      -0.2715
    100  CB        -2.4580   21.0580   11.3140 C.3    80  HIS80       0.0785
    101  CG        -2.9070   20.3640   10.0650 C.ar   80  HIS80       0.0821
    102  ND1       -3.3750   21.0500    8.9650 N.ar   80  HIS80      -0.2267
    103  CD2       -3.0010   19.0480    9.7560 C.ar   80  HIS80       0.1154
    104  CE1       -3.7240   20.1890    8.0260 C.ar   80  HIS80       0.1986
    105  NE2       -3.5040   18.9670    8.4790 N.ar   80  HIS80      -0.2212
    106  N         -5.6890   20.3600   12.0100 N.am   81  ILE81      -0.1977
    107  CA        -6.6540   19.3220   12.3570 C.3    81  ILE81       0.1596
    108  C         -7.3050   18.8020   11.0830 C.2    81  ILE81       0.2287
    109  O         -7.2420   19.4450   10.0350 O.2    81  ILE81      -0.2864
    110  CB        -7.7610   19.8580   13.2970 C.3    81  ILE81       0.0276
    111  CG1       -8.5760   20.9330   12.5980 C.3    81  ILE81       0.0022
    112  CG2       -7.1740   20.4310   14.5960 C.3    81  ILE81       0.0022
    113  CD1       -9.8140   21.2970   13.3550 C.3    81  ILE81       0.0001
    114  N        -13.0240   17.3480   14.7370 N.3    86  ASP86      -0.1225
    115  CA       -11.9520   17.1970   15.7210 C.3    86  ASP86       0.1805
    116  C        -12.0560   18.1970   16.8730 C.2    86  ASP86       0.2598
    117  O        -11.4370   18.0200   17.9260 O.2    86  ASP86      -0.2718
    118  CB       -10.5950   17.3680   15.0350 C.3    86  ASP86       0.1424
    119  CG       -10.2490   16.2020   14.1250 C.2    86  ASP86       0.3668
    120  OD1      -11.0870   15.2870   13.9870 O.co2  86  ASP86      -0.2456
    121  OD2       -9.1410   16.2090   13.5450 O.co2  86  ASP86      -0.2456
    122  N        -12.8150   19.2650   16.6610 N.am   87  ILE87      -0.1966
    123  CA       -12.9850   20.2820   17.6870 C.3    87  ILE87       0.1712
    124  C        -14.1140   19.8730   18.6390 C.2    87  ILE87       0.2458
    125  O        -15.1820   19.4540   18.1910 O.2    87  ILE87      -0.2730
    126  CB       -13.2650   21.6480   17.0310 C.3    87  ILE87       0.0289
    127  CG1      -12.0860   22.0210   16.1250 C.3    87  ILE87       0.0022
    128  CG2      -13.5090   22.7340   18.0890 C.3    87  ILE87       0.0023
    129  CD1      -12.3880   23.1050   15.1260 C.3    87  ILE87       0.0001
    130  N        -13.8730   19.9710   19.9560 N.am   88  PRO88      -0.2727
    131  CA       -14.8730   19.5760   20.9540 C.3    88  PRO88       0.1402
    132  C        -16.2200   20.2730   20.7550 C.2    88  PRO88       0.2269
    133  O        -16.2720   21.4230   20.3090 O.2    88  PRO88      -0.2865
    134  CB       -14.2310   20.0080   22.2750 C.3    88  PRO88       0.0296
    135  CG       -12.7740   19.9210   22.0180 C.3    88  PRO88       0.0237
    136  CD       -12.5990   20.3670   20.5860 C.3    88  PRO88       0.0939
    137  N         -7.5830   27.1400   13.7540 N.3   112  PHE112     -0.1241
    138  CA        -7.5640   25.7700   13.2710 C.3   112  PHE112      0.1605
    139  C         -7.3990   25.7480   11.7480 C.2   112  PHE112      0.2264
    140  O         -8.1420   26.4020   11.0210 O.2   112  PHE112     -0.2867
    141  CB        -8.8470   25.0410   13.6790 C.3   112  PHE112      0.0534
    142  CG        -8.9630   24.8040   15.1520 C.ar  112  PHE112     -0.0203
    143  CD1       -9.8530   25.5390   15.9190 C.ar  112  PHE112     -0.0042
    144  CD2       -8.1820   23.8330   15.7720 C.ar  112  PHE112     -0.0042
    145  CE1       -9.9740   25.3150   17.2810 C.ar  112  PHE112     -0.0003
    146  CE2       -8.2870   23.6020   17.1350 C.ar  112  PHE112     -0.0003
    147  CZ        -9.1910   24.3590   17.8960 C.ar  112  PHE112     -0.0000
@<TRIPOS>BOND
     1   104   105   ar
     2   104   102   ar
     3   105   103   ar
     4   102   101   ar
     5   103   101   ar
     6   109   108    2
     7   101   100    1
     8   140   139    2
     9   108   107    1
    10   100    97    1
    11    86    85    1
    12   139   138    1
    13   106   107    1
    14   106    98   am
    15    97    98    1
    16    97    96    1
    17    87    85    1
    18   107   110    1
    19   111   110    1
    20   111   113    1
    21    98    99    2
    22    85    82    1
    23    96    90   am
    24   138   141    1
    25   138   137    1
    26   110   112    1
    27    91    90    2
    28   121   119   ar
    29   141   142    1
    30    90    89    1
    31   120   119   ar
    32   119   118    1
    33    82    83    1
    34    82    81    1
    35    83    88   am
    36    83    84    2
    37    88    89    1
    38   114   115    1
    39    89    92    1
    40   118   115    1
    41    81    76   am
    42   129   127    1
    43   142   144   ar
    44   142   143   ar
    45   115   116    1
    46   144   146   ar
    47   143   145   ar
    48   127   126    1
    49    76    77    2
    50    76    75    1
    51    92    94    1
    52    92    93    1
    53   122   116   am
    54   122   123    1
    55   116   117    2
    56   126   123    1
    57   126   128    1
    58    75    74    1
    59    75    78    1
    60   146   147   ar
    61   145   147   ar
    62    93    95    1
    63   123   124    1
    64    74    80    1
    65   125   124    2
    66    78    79    1
    67   124   130   am
    68    80    79    1
    69   130   136    1
    70   130   131    1
    71   133   132    2
    72    56    55    1
    73   136   135    1
    74   132   131    1
    75   131   134    1
    76    55    54    1
    77    25    23   am
    78    64    62    1
    79    23    22    1
    80    23    24    2
    81   135   134    1
    82    22    21    1
    83    63    62    1
    84    41    39    1
    85    53    54    1
    86    53    52    1
    87    62    61    1
    88    40    39    1
    89    21    18    1
    90    39    36    1
    91    52    49    1
    92    61    58    1
    93    36    35    1
    94    36    37    1
    95    58    57    1
    96    58    59    1
    97    20    19    2
    98    57    50   am
    99    18    19    1
   100    18    17    1
   101    51    50    2
   102    50    49    1
   103    38    37    2
   104    35    28   am
   105    34    32   am
   106    49    48    1
   107    30    31    1
   108    30    27    1
   109    29    28    2
   110    28    27    1
   111    60    59    2
   112    32    31    1
   113    32    33    2
   114    73    72    1
   115    27    26    1
   116    48    44   am
   117    72    71    1
   118    67    68    2
   119    67    66    1
   120    71    70    1
   121    70    69    1
   122    69    66    1
   123    44    45    2
   124    44    43    1
   125    65    66    1
   126    42    43    1
   127    43    46    1
   128    15    14    1
   129    46    47    1
   130    12    13    1
   131    12    11    1
   132     5     2    1
   133    14    13    2
   134    14    16    1
   135    11    10    1
   136     2     3    1
   137     2     1    1
   138    10     7    1
   139     3     4    2
   140     7     6    1
   141     7     8    1
   142     8     9    2
