@<TRIPOS>MOLECULE
tmp/4ibmB00.pdb
 159 149 0 0 0
SMALL
GASTEIGER

@<TRIPOS>ATOM
      1  N        -24.5470   -3.2420   65.9950 N.3    14  ARG14      -0.1245
      2  CA       -23.4520   -4.1680   66.2700 C.3    14  ARG14       0.1563
      3  C        -22.4170   -4.1320   65.1640 C.2    14  ARG14       0.2260
      4  O        -22.7400   -3.8480   64.0090 O.2    14  ARG14      -0.2867
      5  CB       -23.9710   -5.6050   66.4350 C.3    14  ARG14       0.0307
      6  CG       -24.7380   -6.1230   65.2260 C.3    14  ARG14       0.0489
      7  CD       -24.9770   -7.6130   65.2840 C.3    14  ARG14       0.2205
      8  NE       -25.7570   -8.0540   64.1340 N.pl3  14  ARG14      -0.0865
      9  CZ       -25.6940   -9.2660   63.5860 C.cat  14  ARG14       0.5346
     10  NH1      -24.8730  -10.1930   64.0690 N.pl3  14  ARG14       0.1354
     11  NH2      -26.4530   -9.5450   62.5340 N.pl3  14  ARG14       0.1354
     12  N        -20.2990   -6.0270   62.4830 N.3    16  LEU16      -0.1231
     13  CA       -20.4430   -7.2130   61.6590 C.3    16  LEU16       0.1693
     14  C        -19.0710   -7.7650   61.2960 C.2    16  LEU16       0.2593
     15  O        -18.9030   -8.9720   61.1270 O.2    16  LEU16      -0.2718
     16  CB       -21.2600   -6.9020   60.3910 C.3    16  LEU16       0.0284
     17  CG       -22.7310   -6.5360   60.6200 C.3    16  LEU16       0.0019
     18  CD1      -23.4190   -6.0940   59.3260 C.3    16  LEU16       0.0001
     19  CD2      -23.4870   -7.7210   61.2480 C.3    16  LEU16       0.0001
     20  N        -18.0880   -6.8770   61.1840 N.am   17  GLY17      -0.1942
     21  CA       -16.7480   -7.2870   60.7850 C.3    17  GLY17       0.2014
     22  C        -16.0290   -6.2080   60.0070 C.2    17  GLY17       0.2638
     23  O        -16.6490   -5.2420   59.5480 O.2    17  GLY17      -0.2714
     24  N        -14.7180   -6.3710   59.8650 N.am   18  GLN18      -0.1977
     25  CA       -13.9090   -5.4120   59.1210 C.3    18  GLN18       0.1601
     26  C        -14.1530   -5.5020   57.6190 C.2    18  GLN18       0.2287
     27  O        -14.0850   -6.5880   57.0270 O.2    18  GLN18      -0.2864
     28  CB       -12.4170   -5.6020   59.4300 C.3    18  GLN18       0.0394
     29  CG       -11.9530   -4.9190   60.7080 C.3    18  GLN18       0.0908
     30  CD       -11.9400   -3.3990   60.6190 C.2    18  GLN18       0.2608
     31  OE1      -12.3330   -2.7130   61.5600 O.2    18  GLN18      -0.2717
     32  NE2      -11.4840   -2.8680   59.4930 N.am   18  GLN18      -0.0878
     33  N        -17.6390   -2.5590   59.5630 N.3    24  VAL24      -0.1245
     34  CA       -19.0210   -2.5670   59.0730 C.3    24  VAL24       0.1561
     35  C        -19.9430   -2.9530   60.2210 C.2    24  VAL24       0.2260
     36  O        -19.6400   -3.8750   60.9770 O.2    24  VAL24      -0.2867
     37  CB       -19.2180   -3.5530   57.9070 C.3    24  VAL24       0.0252
     38  CG1      -20.6710   -3.5130   57.3850 C.3    24  VAL24       0.0019
     39  CG2      -18.2560   -3.2230   56.7860 C.3    24  VAL24       0.0019
     40  N        -26.8470   -2.2740   56.5840 N.3    42  ALA42      -0.1245
     41  CA       -25.4350   -2.4110   56.9040 C.3    42  ALA42       0.1562
     42  C        -24.8310   -1.0250   56.7470 C.2    42  ALA42       0.2260
     43  O        -25.0970   -0.3350   55.7520 O.2    42  ALA42      -0.2867
     44  CB       -24.7440   -3.4140   55.9670 C.3    42  ALA42       0.0290
     45  N        -21.2890    1.0720   56.5500 N.3    44  LYS44      -0.1245
     46  CA       -19.8470    0.9880   56.3420 C.3    44  LYS44       0.1561
     47  C        -19.2010    2.2660   56.8200 C.2    44  LYS44       0.2260
     48  O        -19.7030    3.3540   56.5410 O.2    44  LYS44      -0.2867
     49  CB       -19.5230    0.7520   54.8560 C.3    44  LYS44       0.0271
     50  CG       -20.1890   -0.4900   54.3060 C.3    44  LYS44       0.0035
     51  CD       -19.5860   -0.9150   52.9760 C.3    44  LYS44       0.0206
     52  CE       -19.7510    0.1360   51.9040 C.3    44  LYS44       0.1093
     53  NZ       -19.5200   -0.5070   50.5810 N.3    44  LYS44      -0.1314
     54  N        -26.3490   -6.6530   45.7530 N.3    74  VAL74      -0.1245
     55  CA       -26.4990   -5.8700   46.9980 C.3    74  VAL74       0.1561
     56  C        -26.5420   -4.3650   46.7070 C.2    74  VAL74       0.2260
     57  O        -25.6390   -3.8280   46.0700 O.2    74  VAL74      -0.2867
     58  CB       -25.3670   -6.2180   48.0060 C.3    74  VAL74       0.0252
     59  CG1      -25.4160   -5.3100   49.2310 C.3    74  VAL74       0.0019
     60  CG2      -25.4700   -7.6690   48.4080 C.3    74  VAL74       0.0019
     61  N        -25.7450    0.3830   53.1730 N.3    87  MET87      -0.1230
     62  CA       -26.0880   -0.6790   52.2330 C.3    87  MET87       0.1702
     63  C        -27.2980   -1.4570   52.7150 C.2    87  MET87       0.2592
     64  O        -27.6000   -1.4820   53.9180 O.2    87  MET87      -0.2718
     65  CB       -24.9180   -1.6600   52.0840 C.3    87  MET87       0.0401
     66  CG       -23.5800   -0.9900   51.7390 C.3    87  MET87       0.0596
     67  SD       -23.6000   -0.1410   50.1270 S.3    87  MET87      -0.1393
     68  CE       -23.8280   -1.5170   48.9810 C.3    87  MET87       0.0692
     69  N        -27.9880   -2.1160   51.7890 N.am   88  GLU88      -0.1966
     70  CA       -28.9800   -3.0910   52.2130 C.3    88  GLU88       0.1733
     71  C        -28.3020   -4.1750   53.0630 C.2    88  GLU88       0.2616
     72  O        -27.1840   -4.6210   52.7550 O.2    88  GLU88      -0.2715
     73  CB       -29.7420   -3.6710   51.0100 C.3    88  GLU88       0.0429
     74  CG       -29.3210   -5.0210   50.5660 C.3    88  GLU88       0.1163
     75  CD       -30.1210   -5.5080   49.3690 C.2    88  GLU88       0.3649
     76  OE1      -31.1110   -6.2540   49.5730 O.co2  88  GLU88      -0.2457
     77  OE2      -29.7370   -5.1500   48.2370 O.co2  88  GLU88      -0.2457
     78  N        -28.9680   -4.5550   54.1500 N.am   89  LEU89      -0.1963
     79  CA       -28.4290   -5.5510   55.0690 C.3    89  LEU89       0.1728
     80  C        -28.6270   -6.9400   54.4770 C.2    89  LEU89       0.2616
     81  O        -29.7300   -7.2860   54.0410 O.2    89  LEU89      -0.2715
     82  CB       -29.1310   -5.4750   56.4270 C.3    89  LEU89       0.0311
     83  CG       -28.6650   -6.4900   57.4690 C.3    89  LEU89       0.0022
     84  CD1      -27.1770   -6.2760   57.8260 C.3    89  LEU89       0.0001
     85  CD2      -29.5560   -6.4520   58.7120 C.3    89  LEU89       0.0001
     86  N        -27.5640   -7.7310   54.4690 N.am   90  MET90      -0.1963
     87  CA       -27.6500   -9.1060   54.0300 C.3    90  MET90       0.1736
     88  C        -27.4440   -9.9430   55.2830 C.2    90  MET90       0.2616
     89  O        -26.3150  -10.2530   55.6610 O.2    90  MET90      -0.2715
     90  CB       -26.5890   -9.3610   52.9460 C.3    90  MET90       0.0427
     91  CG       -26.7760   -8.4540   51.7100 C.3    90  MET90       0.0599
     92  SD       -28.3450   -8.8060   50.8580 S.3    90  MET90      -0.1393
     93  CE       -27.9760  -10.4020   50.1250 C.3    90  MET90       0.0692
     94  N        -28.5540  -10.2680   55.9440 N.am   91  ALA91      -0.1963
     95  CA       -28.5350  -10.7150   57.3440 C.3    91  ALA91       0.1728
     96  C        -27.7970  -12.0160   57.5830 C.2    91  ALA91       0.2616
     97  O        -27.4090  -12.3090   58.7230 O.2    91  ALA91      -0.2715
     98  CB       -29.9480  -10.8120   57.8780 C.3    91  ALA91       0.0334
     99  N        -27.6290  -12.8190   56.5360 N.am   92  HIS92      -0.1959
    100  CA       -26.9020  -14.0850   56.6810 C.3    92  HIS92       0.1787
    101  C        -25.4420  -14.0250   56.2020 C.2    92  HIS92       0.2621
    102  O        -24.7500  -15.0580   56.0820 O.2    92  HIS92      -0.2715
    103  CB       -27.6960  -15.2320   56.0410 C.3    92  HIS92       0.0785
    104  CG       -28.8860  -15.6470   56.8500 C.ar   92  HIS92       0.0821
    105  ND1      -28.7670  -16.2740   58.0730 N.ar   92  HIS92      -0.2267
    106  CD2      -30.2130  -15.5240   56.6180 C.ar   92  HIS92       0.1154
    107  CE1      -29.9700  -16.5200   58.5610 C.ar   92  HIS92       0.1986
    108  NE2      -30.8660  -16.0740   57.7000 N.ar   92  HIS92      -0.2212
    109  N        -24.9800  -12.8020   55.9560 N.am   93  GLY93      -0.1940
    110  CA       -23.5780  -12.5450   55.6700 C.3    93  GLY93       0.2014
    111  C        -23.1180  -13.0140   54.2980 C.2    93  GLY93       0.2638
    112  O        -23.9320  -13.2320   53.3910 O.2    93  GLY93      -0.2714
    113  N        -21.8130  -13.2030   54.1440 N.am   94  ASP94      -0.1971
    114  CA       -21.3020  -13.6630   52.8390 C.3    94  ASP94       0.1709
    115  C        -21.6170  -15.1440   52.6620 C.2    94  ASP94       0.2293
    116  O        -21.7630  -15.8840   53.6440 O.2    94  ASP94      -0.2864
    117  CB       -19.8080  -13.3400   52.6590 C.3    94  ASP94       0.1436
    118  CG       -18.9130  -14.3050   53.4050 C.2    94  ASP94       0.3671
    119  OD1      -18.6960  -15.4170   52.8920 O.co2  94  ASP94      -0.2456
    120  OD2      -18.4380  -13.9520   54.5060 O.co2  94  ASP94      -0.2456
    121  N        -23.6010  -12.4990   48.8480 N.3   150  MET150     -0.1245
    122  CA       -24.1620  -12.3210   50.1940 C.3   150  MET150      0.1570
    123  C        -25.5510  -12.9190   50.2670 C.2   150  MET150      0.2261
    124  O        -26.1900  -13.1160   49.2290 O.2   150  MET150     -0.2867
    125  CB       -24.1900  -10.8430   50.5800 C.3   150  MET150      0.0387
    126  CG       -22.7810  -10.2720   50.8480 C.3   150  MET150      0.0595
    127  SD       -22.7860   -8.4980   51.1390 S.3   150  MET150     -0.1393
    128  CE       -21.0680   -8.2620   51.6560 C.3   150  MET150      0.0692
    129  N        -21.6990   -6.7790   47.9620 N.3   161  ASP161     -0.1239
    130  CA       -21.1130   -5.4410   47.9820 C.3   161  ASP161      0.1674
    131  C        -19.6570   -5.5710   47.5430 C.2   161  ASP161      0.2266
    132  O        -18.9250   -6.3660   48.1090 O.2   161  ASP161     -0.2867
    133  CB       -21.1910   -4.8980   49.4080 C.3   161  ASP161      0.1410
    134  CG       -20.8170   -3.4400   49.5000 C.2   161  ASP161      0.3668
    135  OD1      -20.5960   -2.7880   48.4540 O.co2 161  ASP161     -0.2456
    136  OD2      -20.7570   -2.9420   50.6380 O.co2 161  ASP161     -0.2456
    137  N        -15.6370   -6.3530   49.4900 N.3   164  MET164     -0.1230
    138  CA       -15.7960   -6.3820   50.9400 C.3   164  MET164      0.1702
    139  C        -15.1230   -7.5520   51.6780 C.2   164  MET164      0.2593
    140  O        -14.8970   -7.4830   52.9000 O.2   164  MET164     -0.2718
    141  CB       -17.2830   -6.2480   51.3030 C.3   164  MET164      0.0401
    142  CG       -17.8200   -4.8580   50.9910 C.3   164  MET164      0.0596
    143  SD       -16.9400   -3.5840   51.9350 S.3   164  MET164     -0.1393
    144  CE       -17.7130   -3.8070   53.5270 C.3   164  MET164      0.0692
    145  N        -14.7710   -8.5970   50.9470 N.am  165  THR165     -0.1953
    146  CA       -14.2720   -9.8340   51.5450 C.3   165  THR165      0.1897
    147  C        -12.9860  -10.3610   50.9000 C.2   165  THR165      0.2313
    148  O        -12.8860  -11.5540   50.5770 O.2   165  THR165     -0.2863
    149  CB       -15.3240  -10.9570   51.4430 C.3   165  THR165      0.1794
    150  OG1      -15.4290  -11.3970   50.0790 O.3   165  THR165     -0.2208
    151  CG2      -16.7010  -10.4990   51.9700 C.3   165  THR165      0.0378
    152  N        -10.8260  -10.6240   54.5300 N.3   168  ILE168     -0.1245
    153  CA       -11.3560  -11.8360   55.1440 C.3   168  ILE168      0.1561
    154  C        -11.1320  -12.8910   54.0710 C.2   168  ILE168      0.2260
    155  O        -11.3300  -12.5870   52.8890 O.2   168  ILE168     -0.2867
    156  CB       -12.8670  -11.7610   55.4130 C.3   168  ILE168      0.0252
    157  CG1      -13.3010  -10.3480   55.8170 C.3   168  ILE168      0.0019
    158  CG2      -13.2700  -12.8080   56.4750 C.3   168  ILE168      0.0019
    159  CD1      -14.8110  -10.1530   55.8090 C.3   168  ILE168      0.0001
@<TRIPOS>BOND
     1    54    55    1
     2    57    56    2
     3    56    55    1
     4    55    58    1
     5   131   130    1
     6   131   132    2
     7   129   130    1
     8   130   133    1
     9    58    60    1
    10    58    59    1
    11    77    75   ar
    12   135   134   ar
    13   121   122    1
    14    68    67    1
    15   124   123    2
    16    75    76   ar
    17    75    74    1
    18   133   134    1
    19   137   138    1
    20   134   136   ar
    21   150   149    1
    22    93    92    1
    23    67    66    1
    24   122   123    1
    25   122   125    1
    26    74    73    1
    27   148   147    2
    28   125   126    1
    29    53    52    1
    30   126   127    1
    31    92    91    1
    32   147   146    1
    33   138   141    1
    34   138   139    1
    35   145   146    1
    36   145   139   am
    37   142   141    1
    38   142   143    1
    39    73    70    1
    40   127   128    1
    41   149   146    1
    42   149   151    1
    43   139   140    2
    44    91    90    1
    45    66    65    1
    46    69    70    1
    47    69    63   am
    48    52    51    1
    49   143   144    1
    50    65    62    1
    51    70    71    1
    52    62    63    1
    53    62    61    1
    54   117   114    1
    55   117   118    1
    56   115   114    1
    57   115   116    2
    58    63    64    2
    59    72    71    2
    60   114   113    1
    61   155   154    2
    62   119   118   ar
    63    90    87    1
    64    51    50    1
    65    71    78   am
    66   112   111    2
    67   118   120   ar
    68    87    86    1
    69    87    88    1
    70    81    80    2
    71   154   153    1
    72   113   111   am
    73    78    79    1
    74   111   110    1
    75    50    49    1
    76    86    80   am
    77    80    79    1
    78   152   153    1
    79    49    46    1
    80    79    82    1
    81   153   156    1
    82    88    89    2
    83    88    94   am
    84   156   157    1
    85   156   158    1
    86   110   109    1
    87    43    42    2
    88   159   157    1
    89    94    95    1
    90   109   101   am
    91    44    41    1
    92   103   100    1
    93   103   104    1
    94   102   101    2
    95   101   100    1
    96    46    45    1
    97    46    47    1
    98    82    83    1
    99    99   100    1
   100    99    96   am
   101    48    47    2
   102    40    41    1
   103   106   104   ar
   104   106   108   ar
   105    42    41    1
   106    39    37    1
   107   104   105   ar
   108    27    26    2
   109    95    96    1
   110    95    98    1
   111    38    37    1
   112    83    84    1
   113    83    85    1
   114    96    97    2
   115    26    25    1
   116   108   107   ar
   117    37    34    1
   118   105   107   ar
   119    34    33    1
   120    34    35    1
   121    25    28    1
   122    25    24    1
   123    18    17    1
   124    28    29    1
   125    32    30   am
   126    23    22    2
   127    24    22   am
   128    22    21    1
   129    35    36    2
   130    16    17    1
   131    16    13    1
   132    30    29    1
   133    30    31    2
   134    17    19    1
   135    21    20    1
   136    15    14    2
   137    20    14   am
   138    14    13    1
   139    13    12    1
   140    11     9    1
   141     9    10    1
   142     9     8    2
   143     4     3    2
   144     8     7    1
   145     3     2    1
   146     6     7    1
   147     6     5    1
   148     1     2    1
   149     2     5    1
