@<TRIPOS>MOLECULE
tmp/4ibpA00.pdb
 163 159 0 0 0
SMALL
GASTEIGER

@<TRIPOS>ATOM
      1  N         28.1900   42.5990   11.3730 N.3    10  SER10      -0.1203
      2  CA        27.1810   42.1040   10.4380 C.3    10  SER10       0.2005
      3  C         26.3460   40.9410   10.9720 C.2    10  SER10       0.2461
      4  O         26.8920   39.9150   11.4090 O.2    10  SER10      -0.2732
      5  CB        27.8350   41.6900    9.1200 C.3    10  SER10       0.2103
      6  OG        26.8670   41.0800    8.2950 O.3    10  SER10      -0.2182
      7  N         25.0090   41.0820   10.9300 N.am   11  PRO11      -0.2717
      8  CA        24.1960   39.9770   11.4380 C.3    11  PRO11       0.1535
      9  C         24.1010   38.8480   10.4080 C.2    11  PRO11       0.2598
     10  O         23.8400   37.7040   10.7920 O.2    11  PRO11      -0.2715
     11  CB        22.8320   40.6350   11.6940 C.3    11  PRO11       0.0310
     12  CG        22.7580   41.7320   10.6470 C.3    11  PRO11       0.0237
     13  CD        24.1870   42.2200   10.4730 C.3    11  PRO11       0.0939
     14  N         24.3420   39.1400    9.1300 N.am   12  TYR12      -0.1974
     15  CA        24.3060   38.0740    8.1430 C.3    12  TYR12       0.1639
     16  C         25.5210   37.1870    8.3620 C.2    12  TYR12       0.2290
     17  O         25.4210   35.9540    8.3490 O.2    12  TYR12      -0.2864
     18  CB        24.3120   38.6320    6.7210 C.3    12  TYR12       0.0560
     19  CG        23.1490   39.5360    6.4130 C.ar   12  TYR12      -0.0198
     20  CD1       21.9320   39.0080    5.9840 C.ar   12  TYR12      -0.0009
     21  CD2       23.2640   40.9220    6.5280 C.ar   12  TYR12      -0.0009
     22  CE1       20.8640   39.8330    5.6910 C.ar   12  TYR12       0.0417
     23  CE2       22.1990   41.7550    6.2280 C.ar   12  TYR12       0.0417
     24  CZ        21.0020   41.2010    5.8090 C.ar   12  TYR12       0.1957
     25  OH        19.9300   42.0150    5.4990 O.3    12  TYR12      -0.2866
     26  N         25.0450   35.0310   11.4860 N.3    15  LYS15      -0.1245
     27  CA        24.3280   33.7730   11.2590 C.3    15  LYS15       0.1561
     28  C         25.3080   32.6600   10.9010 C.2    15  LYS15       0.2260
     29  O         25.2010   31.5520   11.4200 O.2    15  LYS15      -0.2867
     30  CB        23.3020   33.8740   10.1150 C.3    15  LYS15       0.0271
     31  CG        22.1550   34.8370   10.3240 C.3    15  LYS15       0.0035
     32  CD        21.0940   34.6640    9.2140 C.3    15  LYS15       0.0206
     33  CE        21.6440   35.0660    7.8690 C.3    15  LYS15       0.1093
     34  NZ        20.5980   34.8830    6.8020 N.3    15  LYS15      -0.1314
     35  N         33.2130   47.8120    4.8020 N.3    35  LEU35      -0.1231
     36  CA        32.5960   48.2190    3.5520 C.3    35  LEU35       0.1693
     37  C         31.2680   48.9210    3.7620 C.2    35  LEU35       0.2593
     38  O         30.7400   48.9730    4.8760 O.2    35  LEU35      -0.2718
     39  CB        32.4000   47.0190    2.6190 C.3    35  LEU35       0.0284
     40  CG        31.8040   45.6850    3.1020 C.3    35  LEU35       0.0019
     41  CD1       30.8300   45.7810    4.2740 C.3    35  LEU35       0.0001
     42  CD2       31.1230   45.0270    1.9330 C.3    35  LEU35       0.0001
     43  N         30.7390   49.4450    2.6630 N.am   36  SER36      -0.1939
     44  CA        29.4080   50.0250    2.6250 C.3    36  SER36       0.2040
     45  C         29.0360   50.0650    1.1480 C.2    36  SER36       0.2485
     46  O         29.8740   49.7670    0.2960 O.2    36  SER36      -0.2729
     47  CB        29.4170   51.4290    3.2380 C.3    36  SER36       0.2129
     48  OG        29.7070   52.4100    2.2640 O.3    36  SER36      -0.2179
     49  N         27.7770   50.3970    0.8290 N.am   37  PRO37      -0.2726
     50  CA        27.4420   50.5220   -0.5940 C.3    37  PRO37       0.1402
     51  C         28.2150   51.6530   -1.2790 C.2    37  PRO37       0.2269
     52  O         28.3890   51.6200   -2.4950 O.2    37  PRO37      -0.2865
     53  CB        25.9520   50.8590   -0.5690 C.3    37  PRO37       0.0296
     54  CG        25.4550   50.2890    0.7210 C.3    37  PRO37       0.0237
     55  CD        26.5810   50.4580    1.6900 C.3    37  PRO37       0.0939
     56  N         28.7110   41.3710   -5.8890 N.3    50  LEU50      -0.1231
     57  CA        27.7020   42.2270   -5.2820 C.3    50  LEU50       0.1693
     58  C         28.2910   43.1040   -4.1700 C.2    50  LEU50       0.2593
     59  O         27.6260   44.0130   -3.6670 O.2    50  LEU50      -0.2718
     60  CB        26.5440   41.3860   -4.7230 C.3    50  LEU50       0.0284
     61  CG        25.8510   40.4650   -5.7200 C.3    50  LEU50       0.0019
     62  CD1       24.8780   39.5060   -5.0150 C.3    50  LEU50       0.0001
     63  CD2       25.0970   41.3020   -6.7730 C.3    50  LEU50       0.0001
     64  N         29.5280   42.8210   -3.7750 N.am   51  GLY51      -0.1942
     65  CA        30.1790   43.5870   -2.7250 C.3    51  GLY51       0.2014
     66  C         29.4240   43.5110   -1.4100 C.2    51  GLY51       0.2639
     67  O         29.1490   44.5350   -0.7750 O.2    51  GLY51      -0.2714
     68  N         29.0660   42.2900   -1.0160 N.am   52  LYS52      -0.1963
     69  CA        28.4210   42.0670    0.2720 C.3    52  LYS52       0.1728
     70  C         29.0640   40.9300    1.0340 C.2    52  LYS52       0.2616
     71  O         29.5930   39.9960    0.4440 O.2    52  LYS52      -0.2715
     72  CB        26.9340   41.7620    0.0940 C.3    52  LYS52       0.0311
     73  CG        26.1360   42.8990   -0.5130 C.3    52  LYS52       0.0038
     74  CD        24.6640   42.6820   -0.3320 C.3    52  LYS52       0.0206
     75  CE        23.8850   43.8630   -0.8730 C.3    52  LYS52       0.1093
     76  NZ        22.4400   43.7120   -0.5540 N.3    52  LYS52      -0.1314
     77  N         28.9890   41.0140    2.3590 N.am   53  ILE53      -0.1964
     78  CA        29.4150   39.9210    3.2150 C.3    53  ILE53       0.1712
     79  C         28.1930   39.3230    3.9230 C.2    53  ILE53       0.2458
     80  O         27.2160   40.0290    4.1880 O.2    53  ILE53      -0.2730
     81  CB        30.4840   40.3720    4.2320 C.3    53  ILE53       0.0289
     82  CG1       29.9570   41.4780    5.1340 C.3    53  ILE53       0.0022
     83  CG2       31.7380   40.8420    3.5120 C.3    53  ILE53       0.0023
     84  CD1       31.0000   41.9580    6.1240 C.3    53  ILE53       0.0001
     85  N         28.2430   38.0200    4.2520 N.am   54  PRO54      -0.2727
     86  CA        29.3780   37.1050    4.0970 C.3    54  PRO54       0.1402
     87  C         29.5750   36.6400    2.6690 C.2    54  PRO54       0.2269
     88  O         28.6350   36.6710    1.8670 O.2    54  PRO54      -0.2865
     89  CB        28.9570   35.9000    4.9320 C.3    54  PRO54       0.0296
     90  CG        27.4410   35.8800    4.7630 C.3    54  PRO54       0.0237
     91  CD        27.0700   37.3460    4.8480 C.3    54  PRO54       0.0939
     92  N         24.6880   34.1890   -1.2610 N.3    66  ASP66      -0.1225
     93  CA        24.7950   35.0380   -0.0800 C.3    66  ASP66       0.1805
     94  C         24.6920   34.1820    1.1760 C.2    66  ASP66       0.2598
     95  O         24.9340   32.9730    1.1130 O.2    66  ASP66      -0.2718
     96  CB        23.6750   36.0880   -0.1110 C.3    66  ASP66       0.1424
     97  CG        22.2740   35.4630   -0.1870 C.2    66  ASP66       0.3668
     98  OD1       22.1490   34.2310   -0.2950 O.co2  66  ASP66      -0.2456
     99  OD2       21.2840   36.2120   -0.1600 O.co2  66  ASP66      -0.2456
    100  N         24.3250   34.7830    2.3030 N.am   67  SER67      -0.1938
    101  CA        24.3370   34.0690    3.5840 C.3    67  SER67       0.2055
    102  C         23.5020   32.7840    3.5740 C.2    67  SER67       0.2642
    103  O         23.9280   31.7450    4.0890 O.2    67  SER67      -0.2714
    104  CB        23.8920   34.9860    4.7360 C.3    67  SER67       0.2130
    105  OG        22.5620   35.4550    4.5680 O.3    67  SER67      -0.2179
    106  N         22.3070   32.8450    2.9960 N.am   68  ARG68      -0.1977
    107  CA        21.4440   31.6660    2.9840 C.3    68  ARG68       0.1597
    108  C         22.0430   30.5030    2.1960 C.2    68  ARG68       0.2287
    109  O         21.8570   29.3400    2.5770 O.2    68  ARG68      -0.2864
    110  CB        20.0470   32.0080    2.4760 C.3    68  ARG68       0.0334
    111  CG        19.2140   32.7760    3.4810 C.3    68  ARG68       0.0492
    112  CD        17.7980   32.8970    2.9660 C.3    68  ARG68       0.2205
    113  NE        17.5430   34.1860    2.3340 N.pl3  68  ARG68      -0.0865
    114  CZ        16.3790   34.5270    1.7970 C.cat  68  ARG68       0.5346
    115  NH1       15.3750   33.6620    1.7980 N.pl3  68  ARG68       0.1354
    116  NH2       16.2270   35.7230    1.2520 N.pl3  68  ARG68       0.1354
    117  N         15.6380   37.4120    7.9230 N.3   102  ASP102     -0.1239
    118  CA        16.4240   38.1090    6.9080 C.3   102  ASP102      0.1674
    119  C         15.7640   39.4240    6.4840 C.2   102  ASP102      0.2266
    120  O         16.4540   40.4120    6.2580 O.2   102  ASP102     -0.2867
    121  CB        16.6700   37.2280    5.6670 C.3   102  ASP102      0.1410
    122  CG        17.6860   36.1260    5.9230 C.2   102  ASP102      0.3668
    123  OD1       18.3130   36.1160    7.0030 O.co2 102  ASP102     -0.2456
    124  OD2       17.8740   35.2700    5.0340 O.co2 102  ASP102     -0.2456
    125  N         17.2640   43.0530    6.5030 N.3   105  ASP105     -0.1239
    126  CA        17.2990   43.8440    5.2710 C.3   105  ASP105      0.1674
    127  C         16.8150   45.2680    5.5450 C.2   105  ASP105      0.2266
    128  O         17.4420   46.2420    5.1340 O.2   105  ASP105     -0.2867
    129  CB        16.4060   43.2320    4.1840 C.3   105  ASP105      0.1410
    130  CG        16.9080   41.8790    3.6660 C.2   105  ASP105      0.3668
    131  OD1       18.0680   41.4990    3.9300 O.co2 105  ASP105     -0.2456
    132  OD2       16.1240   41.1970    2.9660 O.co2 105  ASP105     -0.2456
    133  N         19.1610   47.2120    8.0550 N.3   108  VAL108     -0.1245
    134  CA        20.3720   47.6710    7.3900 C.3   108  VAL108      0.1561
    135  C         20.0940   48.8650    6.4690 C.2   108  VAL108      0.2260
    136  O         20.9000   49.7900    6.4060 O.2   108  VAL108     -0.2867
    137  CB        21.0660   46.5100    6.6480 C.3   108  VAL108      0.0252
    138  CG1       22.1050   47.0110    5.6780 C.3   108  VAL108      0.0019
    139  CG2       21.6950   45.5580    7.6540 C.3   108  VAL108      0.0019
    140  N         21.9620   52.5730    6.9190 N.3   112  TYR112     -0.1241
    141  CA        22.7240   53.2440    5.8600 C.3   112  TYR112      0.1605
    142  C         22.1980   54.6500    5.6020 C.2   112  TYR112      0.2264
    143  O         22.9650   55.5790    5.3490 O.2   112  TYR112     -0.2867
    144  CB        22.6720   52.4370    4.5570 C.3   112  TYR112      0.0534
    145  CG        23.5230   51.1910    4.5720 C.ar  112  TYR112     -0.0201
    146  CD1       24.5630   51.0570    5.4790 C.ar  112  TYR112     -0.0009
    147  CD2       23.2830   50.1460    3.6860 C.ar  112  TYR112     -0.0009
    148  CE1       25.3400   49.9310    5.5070 C.ar  112  TYR112      0.0417
    149  CE2       24.0630   49.0090    3.7060 C.ar  112  TYR112      0.0417
    150  CZ        25.0910   48.9120    4.6190 C.ar  112  TYR112      0.1957
    151  OH        25.8840   47.7930    4.6640 O.3   112  TYR112     -0.2866
    152  N         20.9840   42.5000   16.2220 N.3   166  TYR166     -0.1241
    153  CA        21.3580   43.6500   15.4200 C.3   166  TYR166      0.1605
    154  C         20.4470   44.8390   15.7230 C.2   166  TYR166      0.2264
    155  O         20.8720   45.9920   15.6320 O.2   166  TYR166     -0.2867
    156  CB        21.3500   43.2990   13.9250 C.3   166  TYR166      0.0534
    157  CG        21.8620   44.4180   13.0440 C.ar  166  TYR166     -0.0201
    158  CD1       23.2240   44.6550   12.9060 C.ar  166  TYR166     -0.0009
    159  CD2       20.9800   45.2410   12.3660 C.ar  166  TYR166     -0.0009
    160  CE1       23.6910   45.6820   12.0990 C.ar  166  TYR166      0.0417
    161  CE2       21.4370   46.2730   11.5580 C.ar  166  TYR166      0.0417
    162  CZ        22.7900   46.4830   11.4290 C.ar  166  TYR166      0.1957
    163  OH        23.2430   47.5060   10.6250 O.3   166  TYR166     -0.2866
@<TRIPOS>BOND
     1    63    61    1
     2    56    57    1
     3    61    62    1
     4    61    60    1
     5    57    60    1
     6    57    58    1
     7    58    64   am
     8    58    59    2
     9    64    65    1
    10    65    66    1
    11    52    51    2
    12    66    68   am
    13    66    67    2
    14    51    50    1
    15    92    93    1
    16    68    69    1
    17    75    76    1
    18    75    74    1
    19    50    53    1
    20    50    49    1
    21    53    54    1
    22    73    74    1
    23    73    72    1
    24    98    97   ar
    25    97    99   ar
    26    97    96    1
    27    96    93    1
    28    93    94    1
    29    72    69    1
    30    69    70    1
    31    46    45    2
    32    71    70    2
    33    54    55    1
    34    49    45   am
    35    49    55    1
    36    70    77   am
    37    95    94    2
    38    45    44    1
    39    94   100   am
    40   116   114    1
    41   114   115    1
    42   114   113    2
    43    88    87    2
    44    42    40    1
    45   108   109    2
    46   108   107    1
    47    48    47    1
    48   100   101    1
    49   113   112    1
    50    77    78    1
    51   110   107    1
    52   110   111    1
    53    39    40    1
    54    39    36    1
    55    44    43    1
    56    44    47    1
    57    43    37   am
    58    87    86    1
    59   112   111    1
    60   132   130   ar
    61   107   106    1
    62   106   102   am
    63    40    41    1
    64    78    79    1
    65    78    81    1
    66    83    81    1
    67    36    37    1
    68    36    35    1
    69   102   101    1
    70   102   103    2
    71   101   104    1
    72   130   131   ar
    73   130   129    1
    74   147   149   ar
    75   147   145   ar
    76   149   150   ar
    77    37    38    2
    78    79    80    2
    79    79    85   am
    80    86    85    1
    81    86    89    1
    82   129   126    1
    83    81    82    1
    84    85    91    1
    85   144   145    1
    86   144   141    1
    87   105   104    1
    88   145   146   ar
    89   150   151    1
    90   150   148   ar
    91    90    91    1
    92    90    89    1
    93   124   122   ar
    94   128   127    2
    95    82    84    1
    96   126   127    1
    97   126   125    1
    98   143   142    2
    99   146   148   ar
   100    25    24    1
   101   142   141    1
   102   121   122    1
   103   121   118    1
   104   138   137    1
   105    22    24   ar
   106    22    20   ar
   107    24    23   ar
   108   141   140    1
   109   122   123   ar
   110    20    19   ar
   111    23    21   ar
   112   120   119    2
   113   136   135    2
   114    19    21   ar
   115    19    18    1
   116   135   134    1
   117   119   118    1
   118   137   134    1
   119   137   139    1
   120    18    15    1
   121    34    33    1
   122   118   117    1
   123   134   133    1
   124    33    32    1
   125    15    16    1
   126    15    14    1
   127     6     5    1
   128    17    16    2
   129     5     2    1
   130    14     9   am
   131    32    31    1
   132    30    31    1
   133    30    27    1
   134     9    10    2
   135     9     8    1
   136     2     3    1
   137     2     1    1
   138    13    12    1
   139    13     7    1
   140   163   162    1
   141    12    11    1
   142    28    27    1
   143    28    29    2
   144     7     3   am
   145     7     8    1
   146     3     4    2
   147    27    26    1
   148   162   161   ar
   149   162   160   ar
   150     8    11    1
   151   161   159   ar
   152   160   158   ar
   153   159   157   ar
   154   158   157   ar
   155   157   156    1
   156   156   153    1
   157   153   154    1
   158   153   152    1
   159   155   154    2
