@<TRIPOS>MOLECULE
tmp/4ic0A00.pdb
 112 110 0 0 0
SMALL
GASTEIGER

@<TRIPOS>ATOM
      1  N        -22.9490   15.6040    0.7190 N.3    33  TYR33      -0.1241
      2  CA       -22.8390   16.8200   -0.1250 C.3    33  TYR33       0.1605
      3  C        -21.4250   17.4450   -0.2540 C.2    33  TYR33       0.2264
      4  O        -20.9250   17.6580   -1.3900 O.2    33  TYR33      -0.2867
      5  CB       -23.8890   17.8670    0.2680 C.3    33  TYR33       0.0534
      6  CG       -23.6250   19.1900   -0.3550 C.ar   33  TYR33      -0.0201
      7  CD1      -23.9480   19.4100   -1.6880 C.ar   33  TYR33      -0.0009
      8  CD2      -22.9580   20.2180    0.3520 C.ar   33  TYR33      -0.0009
      9  CE1      -23.6660   20.6060   -2.3040 C.ar   33  TYR33       0.0417
     10  CE2      -22.7080   21.4420   -0.2650 C.ar   33  TYR33       0.0417
     11  CZ       -23.0580   21.6040   -1.6010 C.ar   33  TYR33       0.1957
     12  OH       -22.7940   22.7810   -2.2750 O.3    33  TYR33      -0.2866
     13  N        -18.7500   17.7410   -3.4550 N.3    37  SER37      -0.1217
     14  CA       -18.5380   19.0940   -3.9430 C.3    37  SER37       0.1889
     15  C        -17.0430   19.2920   -4.2090 C.2    37  SER37       0.2288
     16  O        -16.6700   19.6830   -5.3180 O.2    37  SER37      -0.2866
     17  CB       -19.0590   20.0980   -2.9180 C.3    37  SER37       0.2089
     18  OG       -19.1230   21.3890   -3.4640 O.3    37  SER37      -0.2183
     19  N        -14.8650   19.4020   -7.9620 N.3    41  MET41      -0.1245
     20  CA       -13.7880   20.3600   -8.2320 C.3    41  MET41       0.1570
     21  C        -12.4300   19.6930   -8.5820 C.2    41  MET41       0.2261
     22  O        -11.8100   20.0160   -9.6280 O.2    41  MET41      -0.2867
     23  CB       -13.6220   21.3690   -7.0970 C.3    41  MET41       0.0387
     24  CG       -14.8550   22.2370   -6.8860 C.3    41  MET41       0.0595
     25  SD       -14.5910   23.7540   -5.9800 S.3    41  MET41      -0.1393
     26  CE       -13.4730   23.2460   -4.6850 C.3    41  MET41       0.0692
     27  N        -25.3750   25.1220   -4.5230 N.3    75  TYR75      -0.1241
     28  CA       -24.6190   25.8550   -3.5040 C.3    75  TYR75       0.1605
     29  C        -25.3130   27.1930   -3.1560 C.2    75  TYR75       0.2264
     30  O        -25.5300   27.5100   -1.9760 O.2    75  TYR75      -0.2867
     31  CB       -23.1020   26.0470   -3.8790 C.3    75  TYR75       0.0534
     32  CG       -22.3780   27.0050   -2.9370 C.ar   75  TYR75      -0.0201
     33  CD1      -21.9550   26.5910   -1.6660 C.ar   75  TYR75      -0.0009
     34  CD2      -22.1480   28.3500   -3.3070 C.ar   75  TYR75      -0.0009
     35  CE1      -21.3370   27.4730   -0.7830 C.ar   75  TYR75       0.0417
     36  CE2      -21.5280   29.2480   -2.4400 C.ar   75  TYR75       0.0417
     37  CZ       -21.1340   28.8110   -1.1780 C.ar   75  TYR75       0.1957
     38  OH       -20.5410   29.7040   -0.3120 O.3    75  TYR75      -0.2866
     39  N        -20.5160   25.9760    4.8110 N.3    89  THR89      -0.1203
     40  CA       -19.7850   24.9780    4.0320 C.3    89  THR89       0.1994
     41  C        -18.6450   25.6440    3.3080 C.2    89  THR89       0.2619
     42  O        -18.8020   26.7240    2.7500 O.2    89  THR89      -0.2717
     43  CB       -20.6640   24.2260    3.0140 C.3    89  THR89       0.1784
     44  OG1      -21.0730   25.0880    1.9350 O.3    89  THR89      -0.2211
     45  CG2      -21.9230   23.7280    3.6890 C.3    89  THR89       0.0376
     46  N        -17.4860   25.0060    3.3110 N.am   90  THR90      -0.1938
     47  CA       -16.4450   25.4920    2.4600 C.3    90  THR90       0.2028
     48  C        -15.6710   24.3460    1.7850 C.2    90  THR90       0.2642
     49  O        -15.5010   23.2800    2.3730 O.2    90  THR90      -0.2714
     50  CB       -15.5930   26.4900    3.2260 C.3    90  THR90       0.1808
     51  OG1      -14.7900   27.2540    2.3050 O.3    90  THR90      -0.2208
     52  CG2      -14.7570   25.8190    4.4630 C.3    90  THR90       0.0379
     53  N        -15.2980   24.5560    0.5270 N.am   91  ASP91      -0.1971
     54  CA       -14.4500   23.6440   -0.2590 C.3    91  ASP91       0.1709
     55  C        -13.2080   24.4750   -0.5310 C.2    91  ASP91       0.2293
     56  O        -13.3440   25.6980   -0.6370 O.2    91  ASP91      -0.2864
     57  CB       -15.0860   23.4190   -1.6300 C.3    91  ASP91       0.1436
     58  CG       -16.4560   22.7360   -1.5680 C.2    91  ASP91       0.3671
     59  OD1      -16.9680   22.4220   -0.4620 O.co2  91  ASP91      -0.2456
     60  OD2      -17.0140   22.4730   -2.6470 O.co2  91  ASP91      -0.2456
     61  N        -16.7900   27.0070  -11.3460 N.3   113  PHE113     -0.1227
     62  CA       -17.1000   26.9920   -9.9230 C.3   113  PHE113      0.1736
     63  C        -17.2730   28.3450   -9.2150 C.2   113  PHE113      0.2595
     64  O        -17.7990   28.3740   -8.0930 O.2   113  PHE113     -0.2718
     65  CB       -16.1050   26.1340   -9.1540 C.3   113  PHE113      0.0547
     66  CG       -15.9100   24.7780   -9.7370 C.ar  113  PHE113     -0.0202
     67  CD1      -14.7030   24.4470  -10.3650 C.ar  113  PHE113     -0.0042
     68  CD2      -16.9340   23.8380   -9.6830 C.ar  113  PHE113     -0.0042
     69  CE1      -14.5350   23.1900  -10.9290 C.ar  113  PHE113     -0.0003
     70  CE2      -16.7660   22.5840  -10.2350 C.ar  113  PHE113     -0.0003
     71  CZ       -15.5620   22.2610  -10.8650 C.ar  113  PHE113     -0.0000
     72  N        -16.8560   29.4530   -9.8490 N.am  114  ARG114     -0.1966
     73  CA       -16.9410   30.7750   -9.2060 C.3   114  ARG114      0.1729
     74  C        -16.1260   30.8470   -7.9690 C.2   114  ARG114      0.2616
     75  O        -16.5020   31.5450   -7.0630 O.2   114  ARG114     -0.2715
     76  CB       -18.3890   31.1620   -8.8010 C.3   114  ARG114      0.0348
     77  CG       -19.3820   31.0890   -9.9310 C.3   114  ARG114      0.0492
     78  CD       -18.9420   31.9000  -11.1570 C.3   114  ARG114      0.2205
     79  NE       -20.1930   32.3690  -11.7350 N.pl3 114  ARG114     -0.0865
     80  CZ       -20.7210   31.9520  -12.8780 C.cat 114  ARG114      0.5346
     81  NH1      -20.0650   31.0880  -13.6820 N.pl3 114  ARG114      0.1354
     82  NH2      -21.9020   32.4360  -13.2220 N.pl3 114  ARG114      0.1354
     83  N        -15.0560   30.0580   -7.9050 N.am  115  SER115     -0.1950
     84  CA       -14.0130   30.2340   -6.8890 C.3   115  SER115      0.1924
     85  C        -12.7050   29.8080   -7.5690 C.2   115  SER115      0.2314
     86  O        -12.7390   29.3320   -8.7250 O.2   115  SER115     -0.2863
     87  CB       -14.3790   29.4600   -5.6000 C.3   115  SER115      0.2116
     88  OG       -14.2400   28.0870   -5.7920 O.3   115  SER115     -0.2180
     89  N         -8.2890   29.8760    6.1310 N.3   135  TRP135     -0.1241
     90  CA        -9.3290   29.7540    5.1090 C.3   135  TRP135      0.1605
     91  C        -10.6080   29.1240    5.6920 C.2   135  TRP135      0.2264
     92  O        -11.7550   29.6480    5.5820 O.2   135  TRP135     -0.2867
     93  CB        -8.7950   28.9150    3.9700 C.3   135  TRP135      0.0550
     94  CG        -9.9100   28.7400    3.0150 C.ar  135  TRP135      0.0003
     95  CD1      -10.9230   27.7810    3.0440 C.ar  135  TRP135      0.0946
     96  CD2      -10.2490   29.6440    1.9240 C.ar  135  TRP135      0.0152
     97  NE1      -11.8280   27.9980    2.0330 N.ar  135  TRP135     -0.2442
     98  CE2      -11.4800   29.0990    1.3110 C.ar  135  TRP135      0.0810
     99  CE3       -9.6660   30.7960    1.3890 C.ar  135  TRP135      0.0012
    100  CZ2      -12.0760   29.7030    0.2250 C.ar  135  TRP135      0.0191
    101  CZ3      -10.2770   31.3790    0.2980 C.ar  135  TRP135      0.0001
    102  CH2      -11.4530   30.8500   -0.2710 C.ar  135  TRP135      0.0015
    103  N        -14.3710   30.9830    6.3230 N.3   139  HIS139     -0.1241
    104  CA       -15.5480   30.5950    5.5580 C.3   139  HIS139      0.1621
    105  C        -16.5560   29.8000    6.3260 C.2   139  HIS139      0.2264
    106  O        -17.5600   29.3680    5.7720 O.2   139  HIS139     -0.2867
    107  CB       -15.1310   29.9530    4.2190 C.3   139  HIS139      0.0745
    108  CG       -14.2920   30.8870    3.3930 C.ar  139  HIS139      0.0817
    109  ND1      -13.0010   31.1040    3.6560 N.ar  139  HIS139     -0.2268
    110  CD2      -14.6360   31.7720    2.3790 C.ar  139  HIS139      0.1154
    111  CE1      -12.5230   32.0540    2.8400 C.ar  139  HIS139      0.1986
    112  NE2      -13.5240   32.4650    2.0580 N.ar  139  HIS139     -0.2212
@<TRIPOS>BOND
     1    81    80    1
     2    82    80    1
     3    80    79    2
     4    79    78    1
     5    61    62    1
     6    78    77    1
     7    69    71   ar
     8    69    67   ar
     9    71    70   ar
    10    67    66   ar
    11    70    68   ar
    12    77    76    1
    13    62    63    1
    14    62    65    1
    15    72    63   am
    16    72    73    1
    17    66    68   ar
    18    66    65    1
    19    22    21    2
    20    63    64    2
    21    73    76    1
    22    73    74    1
    23    86    85    2
    24    21    20    1
    25    20    19    1
    26    20    23    1
    27    74    83   am
    28    74    75    2
    29    83    84    1
    30    85    84    1
    31    23    24    1
    32    84    87    1
    33    24    25    1
    34    25    26    1
    35    88    87    1
    36    16    15    2
    37    27    28    1
    38    15    14    1
    39    14    13    1
    40    14    17    1
    41    31    28    1
    42    31    32    1
    43    28    29    1
    44    18    17    1
    45    34    32   ar
    46    34    36   ar
    47    29    30    2
    48    32    33   ar
    49    60    58   ar
    50    36    37   ar
    51     9     7   ar
    52     9    11   ar
    53    12    11    1
    54     7     6   ar
    55    33    35   ar
    56    57    58    1
    57    57    54    1
    58    11    10   ar
    59    58    59   ar
    60     4     3    2
    61    37    35   ar
    62    37    38    1
    63    56    55    2
    64    55    54    1
    65     6     5    1
    66     6     8   ar
    67   102   100   ar
    68   102   101   ar
    69    10     8   ar
    70    54    53    1
    71     3     2    1
    72     2     5    1
    73     2     1    1
    74   100    98   ar
    75   101    99   ar
    76    53    48   am
    77    98    96   ar
    78    98    97   ar
    79    99    96   ar
    80    48    49    2
    81    48    47    1
    82    96    94   ar
    83    44    43    1
    84    97    95   ar
    85   112   110   ar
    86   112   111   ar
    87    51    50    1
    88   110   108   ar
    89    47    50    1
    90    47    46    1
    91    42    41    2
    92   111   109   ar
    93    43    45    1
    94    43    40    1
    95    94    95   ar
    96    94    93    1
    97    50    52    1
    98    41    46   am
    99    41    40    1
   100   108   109   ar
   101   108   107    1
   102    93    90    1
   103    40    39    1
   104   107   104    1
   105    90    91    1
   106    90    89    1
   107   104   103    1
   108   104   105    1
   109    92    91    2
   110   106   105    2
