@<TRIPOS>MOLECULE
tmp/4ic7A00.pdb
 187 174 0 0 0
SMALL
GASTEIGER

@<TRIPOS>ATOM
      1  N         14.5790  -11.0680   10.1120 N.3    16  ILE16      -0.1231
      2  CA        14.3940  -12.4650   10.4190 C.3    16  ILE16       0.1692
      3  C         15.8010  -13.0350   10.4430 C.2    16  ILE16       0.2593
      4  O         16.5560  -12.8790    9.4920 O.2    16  ILE16      -0.2718
      5  CB        13.4380  -13.1770    9.4010 C.3    16  ILE16       0.0266
      6  CG1       14.1740  -14.1540    8.4790 C.3    16  ILE16       0.0019
      7  CG2       12.6670  -12.1630    8.5660 C.3    16  ILE16       0.0020
      8  CD1       14.6520  -13.5330    7.1660 C.3    16  ILE16       0.0001
      9  N         16.1910  -13.6270   11.5580 N.am   17  GLY17      -0.1942
     10  CA        17.5170  -14.2040   11.6570 C.3    17  GLY17       0.2014
     11  C         18.5870  -13.3140   12.2710 C.2    17  GLY17       0.2639
     12  O         18.5920  -12.0860   12.1140 O.2    17  GLY17      -0.2714
     13  N         19.4910  -13.9730   12.9950 N.am   18  ASN18      -0.1958
     14  CA        20.6470  -13.3590   13.6390 C.3    18  ASN18       0.1819
     15  C         21.7050  -14.4250   13.8890 C.2    18  ASN18       0.2622
     16  O         21.3890  -15.6090   14.0150 O.2    18  ASN18      -0.2715
     17  CB        20.2540  -12.7290   14.9740 C.3    18  ASN18       0.1195
     18  CG        19.9760  -11.2430   14.8640 C.2    18  ASN18       0.2630
     19  OD1       18.8300  -10.8050   14.9850 O.2    18  ASN18      -0.2716
     20  ND2       21.0270  -10.4530   14.6610 N.am   18  ASN18      -0.0877
     21  N         22.9520  -13.9900   14.0000 N.am   19  GLY19      -0.1940
     22  CA        24.0650  -14.8780   14.2800 C.3    19  GLY19       0.2014
     23  C         25.3020  -14.0300   14.4930 C.2    19  GLY19       0.2639
     24  O         25.1970  -12.8310   14.7740 O.2    19  GLY19      -0.2714
     25  N         26.4760  -14.6420   14.3980 N.am   20  ALA20      -0.1963
     26  CA        27.6740  -13.8520   14.1710 C.3    20  ALA20       0.1728
     27  C         27.8280  -13.7330   12.6590 C.2    20  ALA20       0.2616
     28  O         27.0790  -14.3510   11.8870 O.2    20  ALA20      -0.2715
     29  CB        28.8850  -14.5250   14.7680 C.3    20  ALA20       0.0334
     30  N         28.8000  -12.9320   12.2430 N.am   21  TYR21      -0.1960
     31  CA        29.1130  -12.7220   10.8290 C.3    21  TYR21       0.1771
     32  C         27.9020  -12.2640   10.0070 C.2    21  TYR21       0.2620
     33  O         27.9210  -12.3470    8.7840 O.2    21  TYR21      -0.2715
     34  CB        29.6970  -13.9990   10.1990 C.3    21  TYR21       0.0574
     35  CG        30.6420  -14.7860   11.0840 C.ar   21  TYR21      -0.0198
     36  CD1       31.9750  -14.4120   11.2180 C.ar   21  TYR21      -0.0009
     37  CD2       30.2030  -15.9170   11.7720 C.ar   21  TYR21      -0.0009
     38  CE1       32.8410  -15.1330   12.0250 C.ar   21  TYR21       0.0417
     39  CE2       31.0640  -16.6430   12.5830 C.ar   21  TYR21       0.0417
     40  CZ        32.3810  -16.2470   12.7070 C.ar   21  TYR21       0.1957
     41  OH        33.2410  -16.9660   13.5090 O.3    21  TYR21      -0.2866
     42  N         26.8490  -11.7850   10.6600 N.am   22  GLY22      -0.1954
     43  CA        25.7410  -11.2000    9.9300 C.3    22  GLY22       0.1869
     44  C         24.3520  -11.2680   10.5440 C.2    22  GLY22       0.2309
     45  O         24.0840  -12.0360   11.4660 O.2    22  GLY22      -0.2863
     46  N         20.1270  -11.2210    9.1480 N.3    24  VAL24      -0.1245
     47  CA        19.3120  -11.4370    7.9650 C.3    24  VAL24       0.1561
     48  C         17.9840  -10.7110    8.1120 C.2    24  VAL24       0.2260
     49  O         17.5110  -10.5000    9.2180 O.2    24  VAL24      -0.2867
     50  CB        19.1020  -12.9210    7.7530 C.3    24  VAL24       0.0252
     51  CG1       18.2710  -13.1860    6.5110 C.3    24  VAL24       0.0019
     52  CG2       20.4480  -13.6090    7.6730 C.3    24  VAL24       0.0019
     53  N         15.3830  -12.7840    1.1030 N.3    37  ALA37      -0.1245
     54  CA        16.1640  -12.5480    2.3010 C.3    37  ALA37       0.1562
     55  C         17.3830  -11.7140    1.9500 C.2    37  ALA37       0.2260
     56  O         18.0030  -11.9160    0.9090 O.2    37  ALA37      -0.2867
     57  CB        16.6010  -13.8670    2.8990 C.3    37  ALA37       0.0290
     58  N         21.0640  -10.5640    3.7030 N.3    39  LYS39      -0.1245
     59  CA        21.9480  -10.8310    4.8220 C.3    39  LYS39       0.1561
     60  C         23.0720   -9.8240    4.8530 C.2    39  LYS39       0.2260
     61  O         23.9480   -9.8300    4.0010 O.2    39  LYS39      -0.2867
     62  CB        22.5170  -12.2450    4.7520 C.3    39  LYS39       0.0271
     63  CG        23.6030  -12.5220    5.7980 C.3    39  LYS39       0.0035
     64  CD        23.8630  -14.0230    5.8950 C.3    39  LYS39       0.0206
     65  CE        25.2810  -14.3340    6.3450 C.3    39  LYS39       0.1093
     66  NZ        25.5370  -15.7830    6.1120 N.3    39  LYS39      -0.1314
     67  N         36.2110  -16.3660    5.7690 N.3    53  ARG53      -0.1245
     68  CA        34.9230  -17.0450    5.9310 C.3    53  ARG53       0.1563
     69  C         33.8650  -16.4570    5.0060 C.2    53  ARG53       0.2260
     70  O         32.9960  -17.1710    4.5150 O.2    53  ARG53      -0.2867
     71  CB        34.4600  -16.9440    7.3870 C.3    53  ARG53       0.0307
     72  CG        33.1330  -17.6030    7.6950 C.3    53  ARG53       0.0489
     73  CD        32.7450  -17.3770    9.1640 C.3    53  ARG53       0.2205
     74  NE        31.9240  -18.4640    9.6930 N.pl3  53  ARG53      -0.0865
     75  CZ        30.6000  -18.5140    9.5880 C.cat  53  ARG53       0.5346
     76  NH1       29.9490  -17.5290    8.9740 N.pl3  53  ARG53       0.1354
     77  NH2       29.9270  -19.5420   10.0970 N.pl3  53  ARG53       0.1354
     78  N         32.2460  -18.1010    1.6900 N.3    57  GLU57      -0.1245
     79  CA        30.8030  -18.2930    1.6230 C.3    57  GLU57       0.1567
     80  C         30.2460  -17.9140    0.2480 C.2    57  GLU57       0.2260
     81  O         29.3870  -18.6120   -0.2850 O.2    57  GLU57      -0.2867
     82  CB        30.1010  -17.5120    2.7420 C.3    57  GLU57       0.0388
     83  CG        28.5830  -17.5600    2.6920 C.3    57  GLU57       0.1160
     84  CD        27.9280  -16.8020    3.8360 C.2    57  GLU57       0.3649
     85  OE1       28.3950  -16.9430    4.9930 O.co2  57  GLU57      -0.2457
     86  OE2       26.9460  -16.0670    3.5810 O.co2  57  GLU57      -0.2457
     87  N         20.9400  -23.3810   -0.4670 N.3    70  ILE70      -0.1245
     88  CA        20.4550  -22.0070   -0.4860 C.3    70  ILE70       0.1561
     89  C         21.2050  -21.2150   -1.5450 C.2    70  ILE70       0.2260
     90  O         22.4040  -21.3890   -1.7320 O.2    70  ILE70      -0.2867
     91  CB        20.5520  -21.3290    0.9190 C.3    70  ILE70       0.0252
     92  CG1       19.8090  -19.9930    0.9170 C.3    70  ILE70       0.0019
     93  CG2       21.9970  -21.1450    1.3570 C.3    70  ILE70       0.0019
     94  CD1       18.2870  -20.1300    1.0200 C.3    70  ILE70       0.0001
     95  N         19.1250  -13.5180   -0.9600 N.3    92  LEU92      -0.1231
     96  CA        18.9200  -14.9620   -1.0420 C.3    92  LEU92       0.1693
     97  C         17.4410  -15.2820   -1.1050 C.2    92  LEU92       0.2592
     98  O         16.6160  -14.4000   -0.9050 O.2    92  LEU92      -0.2718
     99  CB        19.5290  -15.6510    0.1750 C.3    92  LEU92       0.0284
    100  CG        20.9960  -15.3640    0.4950 C.3    92  LEU92       0.0019
    101  CD1       21.1850  -15.2480    2.0030 C.3    92  LEU92       0.0001
    102  CD2       21.8880  -16.4550   -0.0710 C.3    92  LEU92       0.0001
    103  N         17.1150  -16.5380   -1.4010 N.am   93  ASP93      -0.1960
    104  CA        15.7460  -17.0270   -1.2900 C.3    93  ASP93       0.1840
    105  C         15.2340  -16.7910    0.1260 C.2    93  ASP93       0.2622
    106  O         15.9280  -17.0570    1.1010 O.2    93  ASP93      -0.2715
    107  CB        15.6740  -18.5300   -1.5750 C.3    93  ASP93       0.1450
    108  CG        15.5820  -18.8540   -3.0570 C.2    93  ASP93       0.3671
    109  OD1       15.0890  -18.0110   -3.8470 O.co2  93  ASP93      -0.2456
    110  OD2       15.9870  -19.9830   -3.4210 O.co2  93  ASP93      -0.2456
    111  N         14.0130  -16.2950    0.2310 N.am   94  LEU94      -0.1963
    112  CA        13.3880  -16.0950    1.5110 C.3    94  LEU94       0.1728
    113  C         12.8290  -17.4360    1.9810 C.2    94  LEU94       0.2616
    114  O         11.9800  -18.0390    1.3060 O.2    94  LEU94      -0.2715
    115  CB        12.2890  -15.0400    1.3740 C.3    94  LEU94       0.0311
    116  CG        11.6650  -14.4740    2.6490 C.3    94  LEU94       0.0022
    117  CD1       10.4640  -15.3000    3.0420 C.3    94  LEU94       0.0001
    118  CD2       12.6930  -14.4450    3.7740 C.3    94  LEU94       0.0001
    119  N         13.3190  -17.9110    3.1300 N.am   95  MET95      -0.1977
    120  CA        12.8270  -19.1580    3.7100 C.3    95  MET95       0.1605
    121  C         12.0680  -18.8270    4.9810 C.2    95  MET95       0.2287
    122  O         12.5590  -18.0840    5.8140 O.2    95  MET95      -0.2864
    123  CB        13.9700  -20.1340    3.9970 C.3    95  MET95       0.0413
    124  CG        14.5940  -20.7750    2.7440 C.3    95  MET95       0.0598
    125  SD        13.4270  -21.6270    1.6450 S.3    95  MET95      -0.1393
    126  CE        13.3260  -23.2760    2.3480 C.3    95  MET95       0.0692
    127  N         11.0180  -20.6630    7.7010 N.3    97  SER97      -0.1202
    128  CA        11.3740  -21.2710    8.9800 C.3    97  SER97       0.2020
    129  C         12.6150  -22.1490    8.9160 C.2    97  SER97       0.2618
    130  O         13.3930  -22.0520    8.0000 O.2    97  SER97      -0.2717
    131  CB        10.2110  -22.0820    9.5470 C.3    97  SER97       0.2103
    132  OG        10.3790  -22.2690   10.9460 O.3    97  SER97      -0.2182
    133  N         12.8370  -22.9560    9.9420 N.am   98  ASP98      -0.1973
    134  CA        13.9100  -23.9330    9.8750 C.3    98  ASP98       0.1709
    135  C         13.6090  -25.1940   10.6570 C.2    98  ASP98       0.2293
    136  O         12.6830  -25.2310   11.4660 O.2    98  ASP98      -0.2864
    137  CB        15.2760  -23.3390   10.2360 C.3    98  ASP98       0.1436
    138  CG        15.3680  -22.8810   11.6670 C.2    98  ASP98       0.3671
    139  OD1       15.0210  -23.6710   12.5730 O.co2  98  ASP98      -0.2456
    140  OD2       15.8190  -21.7270   11.8810 O.co2  98  ASP98      -0.2456
    141  N         29.3950  -27.9980    9.6850 N.3   137  ASP137     -0.1239
    142  CA        28.4600  -27.7270   10.7700 C.3   137  ASP137      0.1674
    143  C         27.0280  -27.8310   10.2550 C.2   137  ASP137      0.2266
    144  O         26.3740  -26.8200   10.0080 O.2   137  ASP137     -0.2867
    145  CB        28.7410  -26.3060   11.2880 C.3   137  ASP137      0.1410
    146  CG        27.7690  -25.8510   12.3740 C.2   137  ASP137      0.3668
    147  OD1       27.2960  -26.7110   13.1590 O.co2 137  ASP137     -0.2456
    148  OD2       27.4910  -24.6240   12.4370 O.co2 137  ASP137     -0.2456
    149  N         23.2950  -28.7730   11.2960 N.3   139  LYS139     -0.1245
    150  CA        22.3980  -28.9400   12.4400 C.3   139  LYS139      0.1561
    151  C         21.0180  -28.4520   12.0210 C.2   139  LYS139      0.2260
    152  O         20.9190  -27.7070   11.0460 O.2   139  LYS139     -0.2867
    153  CB        22.9390  -28.2040   13.6880 C.3   139  LYS139      0.0271
    154  CG        23.6610  -26.8830   13.3960 C.3   139  LYS139      0.0035
    155  CD        23.5520  -25.9150   14.5470 C.3   139  LYS139      0.0206
    156  CE        23.8230  -24.4760   14.1130 C.3   139  LYS139      0.1093
    157  NZ        23.6560  -23.4670   15.2340 N.3   139  LYS139     -0.1314
    158  N         19.0460  -26.1780   12.7140 N.3   141  SER141     -0.1202
    159  CA        18.8570  -24.7480   12.5180 C.3   141  SER141      0.2020
    160  C         19.5190  -24.2190   11.2310 C.2   141  SER141      0.2618
    161  O         19.1360  -23.1710   10.7080 O.2   141  SER141     -0.2717
    162  CB        19.3160  -23.9700   13.7560 C.3   141  SER141      0.2103
    163  OG        20.6000  -24.3890   14.1750 O.3   141  SER141     -0.2182
    164  N         20.5060  -24.9440   10.7180 N.am  142  ASN142     -0.1974
    165  CA        21.1490  -24.5750    9.4580 C.3   142  ASN142      0.1688
    166  C         20.3880  -25.0790    8.2220 C.2   142  ASN142      0.2292
    167  O         20.8090  -24.8520    7.1030 O.2   142  ASN142     -0.2864
    168  CB        22.5650  -25.1260    9.4090 C.3   142  ASN142      0.1181
    169  CG        23.5270  -24.3290   10.2410 C.2   142  ASN142      0.2629
    170  OD1       23.2680  -23.1730   10.5740 O.2   142  ASN142     -0.2716
    171  ND2       24.6650  -24.9360   10.5670 N.am  142  ASN142     -0.0877
    172  N         17.0740  -24.6840    6.2870 N.3   144  LEU144     -0.1245
    173  CA        15.9250  -23.8030    6.1780 C.3   144  LEU144      0.1561
    174  C         14.7440  -24.5500    5.5910 C.2   144  LEU144      0.2260
    175  O         14.9100  -25.4820    4.8060 O.2   144  LEU144     -0.2867
    176  CB        16.2710  -22.6070    5.3200 C.3   144  LEU144      0.0270
    177  CG        17.5660  -21.8890    5.6750 C.3   144  LEU144      0.0019
    178  CD1       17.8630  -20.8940    4.5810 C.3   144  LEU144      0.0001
    179  CD2       17.4590  -21.1870    7.0170 C.3   144  LEU144      0.0001
    180  N         24.4610  -21.8880    5.6250 N.3   155  ASP155     -0.1239
    181  CA        25.6250  -21.7250    6.5000 C.3   155  ASP155      0.1674
    182  C         26.8960  -22.4140    6.0130 C.2   155  ASP155      0.2266
    183  O         27.3320  -23.4100    6.5860 O.2   155  ASP155     -0.2867
    184  CB        25.2860  -22.1940    7.9180 C.3   155  ASP155      0.1410
    185  CG        26.0620  -21.4410    8.9960 C.2   155  ASP155      0.3668
    186  OD1       27.2710  -21.7080    9.1950 O.co2 155  ASP155     -0.2456
    187  OD2       25.4480  -20.5790    9.6520 O.co2 155  ASP155     -0.2456
@<TRIPOS>BOND
     1   109   108   ar
     2   110   108   ar
     3   108   107    1
     4    90    89    2
     5   107   104    1
     6    89    88    1
     7   103   104    1
     8   103    97   am
     9   104   105    1
    10    97    96    1
    11    97    98    2
    12    96    95    1
    13    96    99    1
    14    88    87    1
    15    88    91    1
    16    81    80    2
    17   102   100    1
    18   105   111   am
    19   105   106    2
    20    99   100    1
    21   111   112    1
    22    80    79    1
    23   100   101    1
    24    56    55    2
    25    92    91    1
    26    92    94    1
    27    91    93    1
    28    53    54    1
    29   114   113    2
    30   115   112    1
    31   115   116    1
    32   112   113    1
    33    79    78    1
    34    79    82    1
    35   125   126    1
    36   125   124    1
    37    55    54    1
    38   113   119   am
    39    54    57    1
    40   116   117    1
    41   116   118    1
    42    83    82    1
    43    83    84    1
    44   124   123    1
    45   119   120    1
    46    86    84   ar
    47    58    59    1
    48   120   123    1
    49   120   121    1
    50    84    85   ar
    51    61    60    2
    52    70    69    2
    53   178   177    1
    54    62    59    1
    55    62    63    1
    56   175   174    2
    57    59    60    1
    58   121   122    2
    59    69    68    1
    60   176   177    1
    61   176   173    1
    62   174   173    1
    63   180   181    1
    64   177   179    1
    65    67    68    1
    66    63    64    1
    67    64    65    1
    68    68    71    1
    69   182   181    1
    70   182   183    2
    71    66    65    1
    72   173   172    1
    73   181   184    1
    74    51    50    1
    75   167   166    2
    76     8     6    1
    77    71    72    1
    78    52    50    1
    79    72    73    1
    80   127   128    1
    81    50    47    1
    82   184   185    1
    83    47    48    1
    84    47    46    1
    85   130   129    2
    86    48    49    2
    87   166   165    1
    88     6     5    1
    89     7     5    1
    90    33    32    2
    91   129   128    1
    92   129   133   am
    93    76    75    1
    94   128   131    1
    95   185   186   ar
    96   185   187   ar
    97    73    74    1
    98     5     2    1
    99   168   165    1
   100   168   169    1
   101   165   164    1
   102     4     3    2
   103   131   132    1
   104    75    74    2
   105    75    77    1
   106   141   142    1
   107   134   133    1
   108   134   137    1
   109   134   135    1
   110    43    44    1
   111    43    42    1
   112    32    42   am
   113    32    31    1
   114   144   143    2
   115     1     2    1
   116    34    31    1
   117    34    35    1
   118   137   138    1
   119   169   171   am
   120   169   170    2
   121   143   142    1
   122     2     3    1
   123     3     9   am
   124    44    45    2
   125   135   136    2
   126   161   160    2
   127   164   160   am
   128   142   145    1
   129    31    30    1
   130   152   151    2
   131    35    36   ar
   132    35    37   ar
   133    36    38   ar
   134   160   159    1
   135   145   146    1
   136   149   150    1
   137     9    10    1
   138    10    11    1
   139   138   140   ar
   140   138   139   ar
   141    37    39   ar
   142    28    27    2
   143   151   150    1
   144    38    40   ar
   145    12    11    2
   146    30    27   am
   147    11    13   am
   148   146   148   ar
   149   146   147   ar
   150   150   153    1
   151   159   158    1
   152   159   162    1
   153    39    40   ar
   154    27    26    1
   155    40    41    1
   156    13    14    1
   157   154   153    1
   158   154   155    1
   159    14    15    1
   160    14    17    1
   161   162   163    1
   162    15    21   am
   163    15    16    2
   164    21    22    1
   165   156   155    1
   166   156   157    1
   167    26    25    1
   168    26    29    1
   169    22    23    1
   170    25    23   am
   171    23    24    2
   172    20    18   am
   173    18    17    1
   174    18    19    2
