@<TRIPOS>MOLECULE
tmp/4icaA00.pdb
 85 80 0 0 0
SMALL
GASTEIGER

@<TRIPOS>ATOM
      1  N          7.6590   -0.2320   12.9070 N.3    20  VAL20      -0.1245
      2  CA         8.4750   -1.2910   12.3220 C.3    20  VAL20       0.1561
      3  C          8.1760   -2.6300   12.9950 C.2    20  VAL20       0.2260
      4  O          8.2670   -3.6870   12.3700 O.2    20  VAL20      -0.2867
      5  CB         9.9790   -0.9680   12.4350 C.3    20  VAL20       0.0252
      6  CG1       10.8050   -1.9820   11.6590 C.3    20  VAL20       0.0019
      7  CG2       10.2540    0.4390   11.9250 C.3    20  VAL20       0.0019
      8  N          9.6460    0.9290   17.2820 N.3    27  LYS27      -0.1231
      9  CA        10.0490    2.2080   16.7090 C.3    27  LYS27       0.1693
     10  C          9.0790    2.6640   15.6240 C.2    27  LYS27       0.2591
     11  O          8.1730    1.9290   15.2350 O.2    27  LYS27      -0.2718
     12  CB        11.4560    2.1030   16.1140 C.3    27  LYS27       0.0285
     13  CG        12.4720    1.3930   16.9970 C.3    27  LYS27       0.0035
     14  CD        12.8020    2.1970   18.2430 C.3    27  LYS27       0.0206
     15  CE        13.8850    1.5090   19.0600 C.3    27  LYS27       0.1093
     16  NZ        14.2560    2.2870   20.2740 N.3    27  LYS27      -0.1314
     17  N          9.2810    3.8850   15.1390 N.am   28  LYS28      -0.1980
     18  CA         8.5100    4.4120   14.0210 C.3    28  LYS28       0.1596
     19  C          9.4230    4.5950   12.8140 C.2    28  LYS28       0.2287
     20  O         10.6150    4.8610   12.9670 O.2    28  LYS28      -0.2864
     21  CB         7.8640    5.7480   14.3960 C.3    28  LYS28       0.0298
     22  CG         6.7030    5.6370   15.3720 C.3    28  LYS28       0.0038
     23  CD         5.4790    5.0280   14.7060 C.3    28  LYS28       0.0206
     24  CE         4.2820    5.0210   15.6440 C.3    28  LYS28       0.1093
     25  NZ         4.5140    4.1670   16.8400 N.3    28  LYS28      -0.1314
     26  N         11.3870    6.2250    9.9110 N.3    30  GLY30      -0.1225
     27  CA        11.9470    7.5380    9.6440 C.3    30  GLY30       0.1811
     28  C         12.3030    7.6890    8.1780 C.2    30  GLY30       0.2280
     29  O         12.2700    6.7170    7.4260 O.2    30  GLY30      -0.2866
     30  N         15.1610    8.2360    6.9420 N.3    32  GLY32      -0.1210
     31  CA        16.3940    7.5110    6.7030 C.3    32  GLY32       0.1956
     32  C         16.1460    6.0620    6.3340 C.2    32  GLY32       0.2611
     33  O         16.9010    5.4710    5.5620 O.2    32  GLY32      -0.2717
     34  N         15.0830    5.4900    6.8900 N.am   33  ASN33      -0.1974
     35  CA        14.7070    4.1130    6.5970 C.3    33  ASN33       0.1688
     36  C         14.3610    3.9240    5.1250 C.2    33  ASN33       0.2292
     37  O         14.7790    2.9500    4.4980 O.2    33  ASN33      -0.2864
     38  CB        13.5200    3.6860    7.4640 C.3    33  ASN33       0.1181
     39  CG        13.8350    3.7270    8.9450 C.2    33  ASN33       0.2629
     40  OD1       13.7760    4.7820    9.5750 O.2    33  ASN33      -0.2716
     41  ND2       14.1680    2.5730    9.5110 N.am   33  ASN33      -0.0877
     42  N         15.0700    6.0830    2.4950 N.3    35  ARG35      -0.1231
     43  CA        16.2020    6.4190    1.6410 C.3    35  ARG35       0.1694
     44  C         17.1780    5.2520    1.5690 C.2    35  ARG35       0.2592
     45  O         17.7420    4.9640    0.5140 O.2    35  ARG35      -0.2718
     46  CB        16.9170    7.6690    2.1500 C.3    35  ARG35       0.0321
     47  CG        16.1270    8.9510    1.9750 C.3    35  ARG35       0.0489
     48  CD        17.0080   10.1670    2.2040 C.3    35  ARG35       0.2205
     49  NE        16.3140   11.4150    1.9000 N.pl3  35  ARG35      -0.0865
     50  CZ        16.2470   11.9570    0.6890 C.cat  35  ARG35       0.5346
     51  NH1       16.8270   11.3600   -0.3430 N.pl3  35  ARG35       0.1354
     52  NH2       15.5950   13.0980    0.5070 N.pl3  35  ARG35       0.1354
     53  N         17.3680    4.5810    2.7010 N.am   36  TRP36      -0.1976
     54  CA        18.2360    3.4130    2.7590 C.3    36  TRP36       0.1640
     55  C         17.6430    2.2610    1.9600 C.2    36  TRP36       0.2290
     56  O         18.3450    1.6000    1.1980 O.2    36  TRP36      -0.2864
     57  CB        18.4650    2.9770    4.2090 C.3    36  TRP36       0.0576
     58  CG        19.2910    1.7280    4.3360 C.ar   36  TRP36       0.0006
     59  CD1       20.6520    1.6490    4.3990 C.ar   36  TRP36       0.0946
     60  CD2       18.8080    0.3810    4.4150 C.ar   36  TRP36       0.0152
     61  NE1       21.0460    0.3380    4.5120 N.ar   36  TRP36      -0.2442
     62  CE2       19.9320   -0.4610    4.5240 C.ar   36  TRP36       0.0810
     63  CE3       17.5330   -0.1960    4.4040 C.ar   36  TRP36       0.0012
     64  CZ2       19.8220   -1.8470    4.6220 C.ar   36  TRP36       0.0191
     65  CZ3       17.4260   -1.5720    4.5010 C.ar   36  TRP36       0.0001
     66  CH2       18.5630   -2.3820    4.6090 C.ar   36  TRP36       0.0015
     67  N         17.7050    3.0160   -1.9120 N.3    39  ARG39      -0.1245
     68  CA        19.0710    2.9900   -2.3720 C.3    39  ARG39       0.1563
     69  C         19.6220    1.6080   -2.4060 C.2    39  ARG39       0.2260
     70  O         20.3170    1.2270   -3.2980 O.2    39  ARG39      -0.2867
     71  CB        19.9560    3.8530   -1.4750 C.3    39  ARG39       0.0307
     72  CG        21.1160    4.5560   -2.1490 C.3    39  ARG39       0.0489
     73  CD        21.4240    5.9250   -1.5750 C.3    39  ARG39       0.2205
     74  NE        21.3970    5.8260   -0.1310 N.pl3  39  ARG39      -0.0865
     75  CZ        21.0860    6.7820    0.7310 C.cat  39  ARG39       0.5346
     76  NH1       20.7700    7.9860    0.3360 N.pl3  39  ARG39       0.1354
     77  NH2       21.0770    6.4960    2.0160 N.pl3  39  ARG39       0.1354
     78  N         14.1480   -6.2500    5.3310 N.3    81  MET81      -0.1245
     79  CA        13.8590   -4.9110    5.8310 C.3    81  MET81       0.1570
     80  C         13.6200   -3.9320    4.6880 C.2    81  MET81       0.2261
     81  O         12.7380   -3.0800    4.7670 O.2    81  MET81      -0.2867
     82  CB        14.9980   -4.4040    6.7180 C.3    81  MET81       0.0387
     83  CG        14.7720   -4.6070    8.2070 C.3    81  MET81       0.0595
     84  SD        16.0540   -3.8250    9.2070 S.3    81  MET81      -0.1393
     85  CE        15.3960   -4.0680   10.8550 C.3    81  MET81       0.0692
@<TRIPOS>BOND
     1    70    69    2
     2    69    68    1
     3    68    67    1
     4    68    71    1
     5    72    73    1
     6    72    71    1
     7    73    74    1
     8    51    50    1
     9    74    75    2
    10    76    75    1
    11    52    50    1
    12    45    44    2
    13    50    49    2
    14    75    77    1
    15    56    55    2
    16    44    43    1
    17    44    53   am
    18    43    46    1
    19    43    42    1
    20    49    48    1
    21    55    54    1
    22    47    46    1
    23    47    48    1
    24    53    54    1
    25    54    57    1
    26    57    58    1
    27    58    59   ar
    28    58    60   ar
    29    59    61   ar
    30    63    60   ar
    31    63    65   ar
    32    60    62   ar
    33    37    36    2
    34    65    66   ar
    35    61    62   ar
    36    62    64   ar
    37    66    64   ar
    38    80    81    2
    39    80    79    1
    40    36    35    1
    41    78    79    1
    42    33    32    2
    43    79    82    1
    44    32    31    1
    45    32    34   am
    46    35    34    1
    47    35    38    1
    48    31    30    1
    49    82    83    1
    50    29    28    2
    51    38    39    1
    52    28    27    1
    53    83    84    1
    54    39    41   am
    55    39    40    2
    56    84    85    1
    57    27    26    1
    58     6     5    1
    59     7     5    1
    60     2     5    1
    61     2     1    1
    62     2     3    1
    63     4     3    2
    64    19    20    2
    65    19    18    1
    66    18    21    1
    67    18    17    1
    68    21    22    1
    69    23    22    1
    70    23    24    1
    71    17    10   am
    72    11    10    2
    73    10     9    1
    74    24    25    1
    75    12     9    1
    76    12    13    1
    77     9     8    1
    78    13    14    1
    79    14    15    1
    80    15    16    1
