@<TRIPOS>MOLECULE
tmp/4iccA01.pdb
 165 168 0 0 0
SMALL
GASTEIGER

@<TRIPOS>ATOM
      1  N         -4.8600   32.2150    1.9480 N.3    20  TRP20      -0.1241
      2  CA        -3.7000   31.8920    1.1120 C.3    20  TRP20       0.1605
      3  C         -2.8840   33.1540    0.8010 C.2    20  TRP20       0.2264
      4  O         -3.4340   34.1620    0.3480 O.2    20  TRP20      -0.2867
      5  CB        -4.1030   31.1890   -0.1880 C.3    20  TRP20       0.0550
      6  CG        -2.9330   31.0140   -1.1220 C.ar   20  TRP20       0.0003
      7  CD1       -1.8020   30.2880   -0.8850 C.ar   20  TRP20       0.0946
      8  CD2       -2.7790   31.5800   -2.4330 C.ar   20  TRP20       0.0152
      9  NE1       -0.9550   30.3650   -1.9660 N.ar   20  TRP20      -0.2442
     10  CE2       -1.5350   31.1480   -2.9320 C.ar   20  TRP20       0.0810
     11  CE3       -3.5810   32.3910   -3.2420 C.ar   20  TRP20       0.0012
     12  CZ2       -1.0600   31.5270   -4.1900 C.ar   20  TRP20       0.0191
     13  CZ3       -3.1120   32.7600   -4.4930 C.ar   20  TRP20       0.0001
     14  CH2       -1.8630   32.3230   -4.9570 C.ar   20  TRP20       0.0015
     15  N         -0.1920   24.1990    4.1750 N.3    44  VAL44      -0.1231
     16  CA         0.7290   24.6640    3.1360 C.3    44  VAL44       0.1692
     17  C          0.8300   26.1880    3.0620 C.2    44  VAL44       0.2592
     18  O          1.7470   26.7300    2.4220 O.2    44  VAL44      -0.2718
     19  CB         0.3600   24.0440    1.7670 C.3    44  VAL44       0.0266
     20  CG1       -0.8830   24.7060    1.2100 C.3    44  VAL44       0.0020
     21  CG2        1.5430   24.1160    0.7580 C.3    44  VAL44       0.0020
     22  N         -0.0790   26.8880    3.7400 N.am   45  TYR45      -0.1976
     23  CA        -0.0520   28.3540    3.6970 C.3    45  TYR45       0.1639
     24  C          1.0080   28.8890    4.6520 C.2    45  TYR45       0.2290
     25  O          1.4480   30.0190    4.4950 O.2    45  TYR45      -0.2864
     26  CB        -1.4020   28.9930    4.0380 C.3    45  TYR45       0.0560
     27  CG        -2.5680   28.5690    3.1560 C.ar   45  TYR45      -0.0198
     28  CD1       -2.3560   27.8620    1.9820 C.ar   45  TYR45      -0.0009
     29  CD2       -3.8710   28.8780    3.5040 C.ar   45  TYR45      -0.0009
     30  CE1       -3.4070   27.4580    1.1790 C.ar   45  TYR45       0.0417
     31  CE2       -4.9430   28.4760    2.6970 C.ar   45  TYR45       0.0417
     32  CZ        -4.6980   27.7630    1.5440 C.ar   45  TYR45       0.1957
     33  OH        -5.7440   27.3460    0.7450 O.3    45  TYR45      -0.2866
     34  N         -6.5530   21.8910    5.9700 N.3    72  LYS72      -0.1245
     35  CA        -6.3770   20.9440    4.8660 C.3    72  LYS72       0.1561
     36  C         -5.0980   20.1220    5.0190 C.2    72  LYS72       0.2260
     37  O         -4.0590   20.6380    5.4210 O.2    72  LYS72      -0.2867
     38  CB        -6.3080   21.7010    3.5290 C.3    72  LYS72       0.0271
     39  CG        -7.3640   22.8290    3.3550 C.3    72  LYS72       0.0035
     40  CD        -7.3080   23.4270    1.9400 C.3    72  LYS72       0.0206
     41  CE        -8.2320   24.6600    1.8000 C.3    72  LYS72       0.1093
     42  NZ        -7.6520   25.8330    2.5110 N.3    72  LYS72      -0.1314
     43  N         -2.0300   18.3630    3.3230 N.3    74  TRP74      -0.1241
     44  CA        -1.2610   18.4820    2.0720 C.3    74  TRP74       0.1605
     45  C         -0.8330   17.0810    1.6030 C.2    74  TRP74       0.2264
     46  O         -0.5850   16.2110    2.4350 O.2    74  TRP74      -0.2867
     47  CB        -0.0500   19.4030    2.3090 C.3    74  TRP74       0.0550
     48  CG         0.6670   19.8070    1.0680 C.ar   74  TRP74       0.0003
     49  CD1        1.9350   19.4460    0.7040 C.ar   74  TRP74       0.0946
     50  CD2        0.1690   20.6470    0.0110 C.ar   74  TRP74       0.0152
     51  NE1        2.2540   20.0050   -0.5150 N.ar   74  TRP74      -0.2442
     52  CE2        1.1830   20.7280   -0.9710 C.ar   74  TRP74       0.0810
     53  CE3       -1.0470   21.2970   -0.2210 C.ar   74  TRP74       0.0012
     54  CZ2        1.0340   21.4700   -2.1470 C.ar   74  TRP74       0.0191
     55  CZ3       -1.2020   22.0200   -1.4010 C.ar   74  TRP74       0.0001
     56  CH2       -0.1650   22.1050   -2.3470 C.ar   74  TRP74       0.0015
     57  N         -6.4480   18.2540    0.6460 N.3   103  HIS103     -0.1226
     58  CA        -6.2000   19.4990   -0.1190 C.3   103  HIS103      0.1752
     59  C         -6.2460   19.3090   -1.6460 C.2   103  HIS103      0.2596
     60  O         -6.7680   20.1680   -2.3700 O.2   103  HIS103     -0.2718
     61  CB        -4.8690   20.1230    0.3260 C.3   103  HIS103      0.0759
     62  CG        -4.7800   21.6090    0.1610 C.ar  103  HIS103      0.0818
     63  ND1       -4.0560   22.4040    1.0280 N.ar  103  HIS103     -0.2268
     64  CD2       -5.2600   22.4400   -0.7970 C.ar  103  HIS103      0.1154
     65  CE1       -4.1200   23.6610    0.6290 C.ar  103  HIS103      0.1986
     66  NE2       -4.8330   23.7100   -0.4810 N.ar  103  HIS103     -0.2212
     67  N         -5.6960   18.1870   -2.1190 N.am  104  TRP104     -0.1976
     68  CA        -5.6590   17.8060   -3.5420 C.3   104  TRP104      0.1640
     69  C         -5.7100   16.2890   -3.5800 C.2   104  TRP104      0.2290
     70  O         -5.1820   15.6510   -2.6700 O.2   104  TRP104     -0.2864
     71  CB        -4.3410   18.2430   -4.1950 C.3   104  TRP104      0.0576
     72  CG        -4.2520   19.6980   -4.5040 C.ar  104  TRP104      0.0006
     73  CD1       -3.7520   20.6750   -3.7020 C.ar  104  TRP104      0.0946
     74  CD2       -4.6750   20.3400   -5.7120 C.ar  104  TRP104      0.0152
     75  NE1       -3.8420   21.8980   -4.3340 N.ar  104  TRP104     -0.2442
     76  CE2       -4.4120   21.7170   -5.5660 C.ar  104  TRP104      0.0810
     77  CE3       -5.2790   19.8870   -6.8920 C.ar  104  TRP104      0.0012
     78  CZ2       -4.7080   22.6420   -6.5650 C.ar  104  TRP104      0.0191
     79  CZ3       -5.5610   20.8030   -7.8820 C.ar  104  TRP104      0.0001
     80  CH2       -5.2740   22.1640   -7.7130 C.ar  104  TRP104      0.0015
     81  N        -10.6040   20.1140   -4.6290 N.3   152  ASN152     -0.1240
     82  CA       -10.1370   19.8500   -5.9880 C.3   152  ASN152      0.1653
     83  C        -10.3920   18.4290   -6.4470 C.2   152  ASN152      0.2266
     84  O         -9.5840   17.8660   -7.1780 O.2   152  ASN152     -0.2867
     85  CB        -8.6480   20.1860   -6.1600 C.3   152  ASN152      0.1155
     86  CG        -8.3460   21.6240   -5.8450 C.2   152  ASN152      0.2627
     87  OD1       -8.7890   22.5460   -6.5530 O.2   152  ASN152     -0.2716
     88  ND2       -7.6140   21.8400   -4.7620 N.am  152  ASN152     -0.0877
     89  N        -13.6580   28.5500   -4.0110 N.3   199  TYR199     -0.1227
     90  CA       -12.4160   29.2660   -3.7930 C.3   199  TYR199      0.1736
     91  C        -12.0810   30.1840   -4.9760 C.2   199  TYR199      0.2596
     92  O        -12.7160   30.0930   -6.0570 O.2   199  TYR199     -0.2718
     93  CB       -11.2740   28.3140   -3.3680 C.3   199  TYR199      0.0548
     94  CG       -10.5350   27.4460   -4.3980 C.ar  199  TYR199     -0.0200
     95  CD1       -9.8300   28.0030   -5.4660 C.ar  199  TYR199     -0.0009
     96  CD2      -10.4410   26.0650   -4.2140 C.ar  199  TYR199     -0.0009
     97  CE1       -9.1030   27.1820   -6.3580 C.ar  199  TYR199      0.0417
     98  CE2       -9.7260   25.2510   -5.0840 C.ar  199  TYR199      0.0417
     99  CZ        -9.0370   25.8170   -6.1440 C.ar  199  TYR199      0.1957
    100  OH        -8.3080   25.0040   -6.9990 O.3   199  TYR199     -0.2866
    101  N        -11.1410   31.1030   -4.7500 N.am  200  SER200     -0.1952
    102  CA       -10.7870   32.1280   -5.7410 C.3   200  SER200      0.1924
    103  C        -12.0100   32.8130   -6.3610 C.2   200  SER200      0.2314
    104  O        -12.1020   32.9500   -7.5930 O.2   200  SER200     -0.2863
    105  CB        -9.9240   31.5220   -6.8520 C.3   200  SER200      0.2116
    106  OG        -8.6920   31.0380   -6.3390 O.3   200  SER200     -0.2180
    107  N         -2.5650   36.3840   -8.0700 N.3   207  ARG207     -0.1231
    108  CA        -1.8160   35.1700   -8.3740 C.3   207  ARG207      0.1679
    109  C         -0.5990   35.5760   -9.2130 C.2   207  ARG207      0.2434
    110  O         -0.7240   36.3120  -10.1880 O.2   207  ARG207     -0.2733
    111  CB        -2.7010   34.1400   -9.0880 C.3   207  ARG207      0.0321
    112  CG        -3.1670   34.5780  -10.4610 C.3   207  ARG207      0.0489
    113  CD        -4.3340   33.7700  -11.0050 C.3   207  ARG207      0.2205
    114  NE        -4.6020   34.1850  -12.3780 N.pl3 207  ARG207     -0.0865
    115  CZ        -5.2420   35.3020  -12.7150 C.cat 207  ARG207      0.5346
    116  NH1       -5.7150   36.1180  -11.7780 N.pl3 207  ARG207      0.1354
    117  NH2       -5.4180   35.5990  -13.9960 N.pl3 207  ARG207      0.1354
    118  N          0.5950   35.1420   -8.7910 N.am  208  PRO208     -0.2718
    119  CA         1.8690   35.6560   -9.3080 C.3   208  PRO208      0.1535
    120  C          2.0920   35.2410  -10.7520 C.2   208  PRO208      0.2598
    121  O          3.0500   35.6800  -11.3950 O.2   208  PRO208     -0.2715
    122  CB         2.9170   34.9700   -8.4140 C.3   208  PRO208      0.0310
    123  CG         2.1430   34.3500   -7.2720 C.3   208  PRO208      0.0237
    124  CD         0.7940   34.0490   -7.8260 C.3   208  PRO208      0.0939
    125  N          1.1970   34.3990  -11.2540 N.am  209  TRP209     -0.1974
    126  CA         1.3690   33.7930  -12.5600 C.3   209  TRP209      0.1640
    127  C          0.3670   34.3610  -13.5660 C.2   209  TRP209      0.2290
    128  O          0.2400   33.8770  -14.6950 O.2   209  TRP209     -0.2864
    129  CB         1.3040   32.2670  -12.4290 C.3   209  TRP209      0.0576
    130  CG        -0.0670   31.6570  -12.4240 C.ar  209  TRP209      0.0006
    131  CD1       -0.9430   31.5610  -11.3710 C.ar  209  TRP209      0.0946
    132  CD2       -0.6960   31.0060  -13.5280 C.ar  209  TRP209      0.0152
    133  NE1       -2.0860   30.9050  -11.7700 N.ar  209  TRP209     -0.2442
    134  CE2       -1.9580   30.5550  -13.0910 C.ar  209  TRP209      0.0810
    135  CE3       -0.3160   30.7700  -14.8530 C.ar  209  TRP209      0.0012
    136  CZ2       -2.8410   29.8810  -13.9380 C.ar  209  TRP209      0.0191
    137  CZ3       -1.1880   30.1030  -15.6870 C.ar  209  TRP209      0.0001
    138  CH2       -2.4370   29.6640  -15.2280 C.ar  209  TRP209      0.0015
    139  N         -8.0540   29.8310  -12.6920 N.3   283  ALA283     -0.1231
    140  CA        -6.8880   30.5460  -12.1640 C.3   283  ALA283      0.1694
    141  C         -5.9040   29.5330  -11.5850 C.2   283  ALA283      0.2592
    142  O         -4.6900   29.7590  -11.5590 O.2   283  ALA283     -0.2718
    143  CB        -7.3070   31.5500  -11.0950 C.3   283  ALA283      0.0304
    144  N         -6.4410   28.4050  -11.1330 N.am  284  CYS284     -0.1956
    145  CA        -5.6510   27.3860  -10.4490 C.3   284  CYS284      0.1843
    146  C         -5.6580   26.0830  -11.2360 C.2   284  CYS284      0.2625
    147  O         -6.4620   25.1920  -10.9740 O.2   284  CYS284     -0.2714
    148  CB        -6.1880   27.1570   -9.0220 C.3   284  CYS284      0.0997
    149  SG        -5.9110   28.5770   -7.9250 S.3   284  CYS284     -0.0797
    150  N         -4.7390   25.9870  -12.1970 N.am  285  ASN285     -0.1958
    151  CA        -4.5840   24.8040  -13.0430 C.3   285  ASN285      0.1819
    152  C         -3.6920   23.7210  -12.4460 C.2   285  ASN285      0.2621
    153  O         -3.8770   22.5360  -12.7400 O.2   285  ASN285     -0.2715
    154  CB        -3.9970   25.2150  -14.3960 C.3   285  ASN285      0.1195
    155  CG        -5.0550   25.4350  -15.4480 C.2   285  ASN285      0.2630
    156  OD1       -6.0540   24.7190  -15.4940 O.2   285  ASN285     -0.2716
    157  ND2       -4.8390   26.4250  -16.3100 N.am  285  ASN285     -0.0877
    158  N         -2.7300   24.1350  -11.6180 N.am  286  LEU286     -0.1977
    159  CA        -1.6930   23.2410  -11.0870 C.3   286  LEU286      0.1596
    160  C         -1.1280   22.3250  -12.1820 C.2   286  LEU286      0.2287
    161  O         -0.9980   21.1160  -11.9900 O.2   286  LEU286     -0.2864
    162  CB        -2.2300   22.4120   -9.9080 C.3   286  LEU286      0.0297
    163  CG        -1.1610   21.9560   -8.9060 C.3   286  LEU286      0.0022
    164  CD1       -0.4850   23.1580   -8.3020 C.3   286  LEU286      0.0001
    165  CD2       -1.7550   21.0780   -7.8090 C.3   286  LEU286      0.0001
@<TRIPOS>BOND
     1   157   155   am
     2   137   138   ar
     3   137   135   ar
     4   156   155    2
     5   155   154    1
     6   138   136   ar
     7   135   132   ar
     8   128   127    2
     9   154   151    1
    10   117   115    1
    11   136   134   ar
    12   127   126    1
    13   132   134   ar
    14   132   130   ar
    15   134   133   ar
    16   151   152    1
    17   151   150    1
    18   153   152    2
    19   115   114    2
    20   115   116    1
    21   139   140    1
    22   126   129    1
    23   126   125    1
    24   152   158   am
    25   129   130    1
    26   130   131   ar
    27   114   113    1
    28   150   146   am
    29   160   161    2
    30   160   159    1
    31   140   141    1
    32   140   143    1
    33   133   131   ar
    34   158   159    1
    35   141   142    2
    36   141   144   am
    37   121   120    2
    38   125   120   am
    39   146   147    2
    40   146   145    1
    41   144   145    1
    42   159   162    1
    43   113   112    1
    44   120   119    1
    45   112   111    1
    46   145   148    1
    47   110   109    2
    48   162   163    1
    49   119   118    1
    50   119   122    1
    51   109   118   am
    52   109   108    1
    53   111   108    1
    54   148   149    1
    55   163   164    1
    56   163   165    1
    57   118   124    1
    58   122   123    1
    59   108   107    1
    60    79    80   ar
    61    79    77   ar
    62   124   123    1
    63    80    78   ar
    64   104   103    2
    65    84    83    2
    66   100    99    1
    67    77    74   ar
    68   105   106    1
    69   105   102    1
    70    78    76   ar
    71    87    86    2
    72    83    82    1
    73   103   102    1
    74    97    99   ar
    75    97    95   ar
    76    85    82    1
    77    85    86    1
    78    99    98   ar
    79    92    91    2
    80    82    81    1
    81    86    88   am
    82   102   101    1
    83    74    76   ar
    84    74    72   ar
    85    76    75   ar
    86    95    94   ar
    87    98    96   ar
    88    91   101   am
    89    91    90    1
    90    14    13   ar
    91    14    12   ar
    92    72    71    1
    93    72    73   ar
    94    13    11   ar
    95    94    96   ar
    96    94    93    1
    97    75    73   ar
    98    71    68    1
    99    12    10   ar
   100    89    90    1
   101    90    93    1
   102    69    68    1
   103    69    70    2
   104    68    67    1
   105    11     8   ar
   106    10     8   ar
   107    10     9   ar
   108     8     6   ar
   109    60    59    2
   110    56    54   ar
   111    56    55   ar
   112    54    52   ar
   113    67    59   am
   114     9     7   ar
   115    59    58    1
   116    55    53   ar
   117     6     7   ar
   118     6     5    1
   119    52    51   ar
   120    52    50   ar
   121    64    66   ar
   122    64    62   ar
   123    51    49   ar
   124    66    65   ar
   125    53    50   ar
   126     5     2    1
   127    58    61    1
   128    58    57    1
   129    50    48   ar
   130    62    61    1
   131    62    63   ar
   132     4     3    2
   133    65    63   ar
   134    49    48   ar
   135    33    32    1
   136    21    19    1
   137     3     2    1
   138    48    47    1
   139     2     1    1
   140    30    32   ar
   141    30    28   ar
   142    20    19    1
   143    32    31   ar
   144    45    44    1
   145    45    46    2
   146    19    16    1
   147    41    40    1
   148    41    42    1
   149    40    39    1
   150    28    27   ar
   151    44    47    1
   152    44    43    1
   153    18    17    2
   154    31    29   ar
   155    17    16    1
   156    17    22   am
   157    16    15    1
   158    27    29   ar
   159    27    26    1
   160    39    38    1
   161    38    35    1
   162    23    22    1
   163    23    26    1
   164    23    24    1
   165    25    24    2
   166    35    36    1
   167    35    34    1
   168    36    37    2
