@<TRIPOS>MOLECULE
tmp/4ichA00.pdb
 119 121 0 0 0
SMALL
GASTEIGER

@<TRIPOS>ATOM
      1  N         13.6820   65.2180   46.7480 N.3    88  GLN88      -0.1245
      2  CA        14.4500   66.2840   46.1080 C.3    88  GLN88       0.1566
      3  C         15.8300   65.8820   45.7430 C.2    88  GLN88       0.2260
      4  O         16.5720   66.6790   45.1510 O.2    88  GLN88      -0.2867
      5  CB        14.4820   67.5370   46.9920 C.3    88  GLN88       0.0367
      6  CG        13.1730   68.0320   47.5570 C.3    88  GLN88       0.0905
      7  CD        11.9510   67.9300   46.6540 C.2    88  GLN88       0.2608
      8  OE1       10.8520   67.4450   47.1060 O.2    88  GLN88      -0.2717
      9  NE2       12.0720   68.4190   45.4220 N.am   88  GLN88      -0.0878
     10  N         15.4090   65.6610   36.0960 N.3    98  GLU98      -0.1231
     11  CA        14.7050   66.8580   36.5080 C.3    98  GLU98       0.1699
     12  C         15.6740   67.9220   37.0450 C.2    98  GLU98       0.2592
     13  O         15.6230   69.1030   36.6580 O.2    98  GLU98      -0.2718
     14  CB        13.6150   66.4970   37.5190 C.3    98  GLU98       0.0402
     15  CG        12.5330   65.6410   36.9030 C.3    98  GLU98       0.1161
     16  CD        11.4270   65.2840   37.8830 C.2    98  GLU98       0.3649
     17  OE1       11.6030   65.4840   39.0740 O.co2  98  GLU98      -0.2457
     18  OE2       10.4040   64.7260   37.4610 O.co2  98  GLU98      -0.2457
     19  N         16.6010   67.5470   37.9240 N.am   99  TRP99      -0.1976
     20  CA        17.6200   68.5630   38.3080 C.3    99  TRP99       0.1640
     21  C         18.3210   69.2100   37.1270 C.2    99  TRP99       0.2290
     22  O         18.5310   70.4430   37.0890 O.2    99  TRP99      -0.2864
     23  CB        18.6370   67.9360   39.2500 C.3    99  TRP99       0.0576
     24  CG        18.1400   67.8960   40.6560 C.ar   99  TRP99       0.0006
     25  CD1       17.3630   66.9470   41.2740 C.ar   99  TRP99       0.0946
     26  CD2       18.4770   68.8500   41.6500 C.ar   99  TRP99       0.0152
     27  NE1       17.1040   67.3280   42.5700 N.ar   99  TRP99      -0.2442
     28  CE2       17.8500   68.4480   42.8510 C.ar   99  TRP99       0.0810
     29  CE3       19.2420   70.0220   41.6460 C.ar   99  TRP99       0.0012
     30  CZ2       17.9270   69.2020   44.0190 C.ar   99  TRP99       0.0191
     31  CZ3       19.3450   70.7700   42.8560 C.ar   99  TRP99       0.0001
     32  CH2       18.6960   70.3360   44.0170 C.ar   99  TRP99       0.0015
     33  N         16.0300   71.6910   35.7590 N.3   102  TRP102     -0.1241
     34  CA        15.8150   72.8790   36.6350 C.3   102  TRP102      0.1605
     35  C         17.0250   73.8000   36.6510 C.2   102  TRP102      0.2264
     36  O         16.8690   74.9920   36.6030 O.2   102  TRP102     -0.2867
     37  CB        15.3200   72.4880   38.0510 C.3   102  TRP102      0.0550
     38  CG        13.9340   71.9260   38.0200 C.ar  102  TRP102      0.0003
     39  CD1       13.5890   70.6160   38.2450 C.ar  102  TRP102      0.0946
     40  CD2       12.7180   72.5860   37.5990 C.ar  102  TRP102      0.0152
     41  NE1       12.2540   70.4170   38.0520 N.ar  102  TRP102     -0.2442
     42  CE2       11.6790   71.5980   37.6490 C.ar  102  TRP102      0.0810
     43  CE3       12.4000   73.8920   37.1860 C.ar  102  TRP102      0.0012
     44  CZ2       10.3650   71.8820   37.3540 C.ar  102  TRP102      0.0191
     45  CZ3       11.0600   74.1970   36.8840 C.ar  102  TRP102      0.0001
     46  CH2       10.0540   73.1840   36.9730 C.ar  102  TRP102      0.0015
     47  N         16.7360   77.7760   35.6690 N.3   106  TRP106     -0.1241
     48  CA        17.2050   78.9250   36.4260 C.3   106  TRP106      0.1605
     49  C         17.7820   79.9660   35.5110 C.2   106  TRP106      0.2264
     50  O         17.5500   81.1320   35.6710 O.2   106  TRP106     -0.2867
     51  CB        18.2300   78.5500   37.5180 C.3   106  TRP106      0.0550
     52  CG        17.7510   77.6500   38.4870 C.ar  106  TRP106      0.0003
     53  CD1       16.4740   77.5480   38.9580 C.ar  106  TRP106      0.0946
     54  CD2       18.5420   76.7570   39.2810 C.ar  106  TRP106      0.0152
     55  NE1       16.4190   76.6300   39.8960 N.ar  106  TRP106     -0.2442
     56  CE2       17.6770   76.1890   40.2060 C.ar  106  TRP106      0.0810
     57  CE3       19.9190   76.4770   39.3640 C.ar  106  TRP106      0.0012
     58  CZ2       18.0870   75.1990   41.1320 C.ar  106  TRP106      0.0191
     59  CZ3       20.3630   75.5120   40.3160 C.ar  106  TRP106      0.0001
     60  CH2       19.4180   74.8800   41.1650 C.ar  106  TRP106      0.0015
     61  N          8.3040   78.7590   36.8160 N.3   119  TYR119     -0.1241
     62  CA         9.2750   78.3640   37.8030 C.3   119  TYR119      0.1605
     63  C          8.8900   78.9440   39.1580 C.2   119  TYR119      0.2264
     64  O          8.8650   78.2250   40.1650 O.2   119  TYR119     -0.2867
     65  CB        10.7030   78.8600   37.4390 C.3   119  TYR119      0.0534
     66  CG        11.6840   78.5900   38.5870 C.ar  119  TYR119     -0.0201
     67  CD1       12.0260   77.3150   38.8840 C.ar  119  TYR119     -0.0009
     68  CD2       12.1290   79.6100   39.4490 C.ar  119  TYR119     -0.0009
     69  CE1       12.8500   76.9970   39.9450 C.ar  119  TYR119      0.0417
     70  CE2       12.9270   79.2940   40.5510 C.ar  119  TYR119      0.0417
     71  CZ        13.3160   77.9890   40.7530 C.ar  119  TYR119      0.1957
     72  OH        14.1180   77.6390   41.8020 O.3   119  TYR119     -0.2866
     73  N          5.9190   77.0930   40.6900 N.3   122  ALA122     -0.1231
     74  CA         6.2270   75.7570   41.1650 C.3   122  ALA122      0.1694
     75  C          7.0710   75.8240   42.4660 C.2   122  ALA122      0.2592
     76  O          6.8590   75.0560   43.3880 O.2   122  ALA122     -0.2718
     77  CB         6.9710   74.9760   40.1200 C.3   122  ALA122      0.0304
     78  N          8.0030   76.7730   42.5030 N.am  123  TYR123     -0.1976
     79  CA         8.8570   76.9780   43.6610 C.3   123  TYR123      0.1639
     80  C          8.0350   77.3690   44.8650 C.2   123  TYR123      0.2290
     81  O          8.2050   76.8140   45.9720 O.2   123  TYR123     -0.2864
     82  CB         9.8940   78.0910   43.3920 C.3   123  TYR123      0.0560
     83  CG        10.6450   78.3930   44.6430 C.ar  123  TYR123     -0.0198
     84  CD1       11.7570   77.6510   45.0070 C.ar  123  TYR123     -0.0009
     85  CD2       10.1680   79.3280   45.4980 C.ar  123  TYR123     -0.0009
     86  CE1       12.4020   77.9090   46.2040 C.ar  123  TYR123      0.0417
     87  CE2       10.7780   79.5900   46.6800 C.ar  123  TYR123      0.0417
     88  CZ        11.8940   78.8730   47.0460 C.ar  123  TYR123      0.1957
     89  OH        12.4610   79.1920   48.2830 O.3   123  TYR123     -0.2866
     90  N          6.2100   74.4960   46.5120 N.3   126  TRP126     -0.1241
     91  CA         7.1510   73.6750   47.2540 C.3   126  TRP126      0.1605
     92  C          7.5060   74.4020   48.5610 C.2   126  TRP126      0.2264
     93  O          7.5910   73.8040   49.5930 O.2   126  TRP126     -0.2867
     94  CB         8.3890   73.5080   46.3470 C.3   126  TRP126      0.0550
     95  CG         9.6330   73.2060   46.9590 C.ar  126  TRP126      0.0003
     96  CD1       10.7550   73.9650   46.9700 C.ar  126  TRP126      0.0946
     97  CD2        9.9220   72.0350   47.7170 C.ar  126  TRP126      0.0152
     98  NE1       11.7620   73.3180   47.6620 N.ar  126  TRP126     -0.2442
     99  CE2       11.2710   72.1280   48.1320 C.ar  126  TRP126      0.0810
    100  CE3        9.1810   70.9100   48.0420 C.ar  126  TRP126      0.0012
    101  CZ2       11.8640   71.1730   48.9360 C.ar  126  TRP126      0.0191
    102  CZ3        9.7740   69.9330   48.8000 C.ar  126  TRP126      0.0001
    103  CH2       11.1140   70.0500   49.2160 C.ar  126  TRP126      0.0015
    104  N         19.1000   72.9270   49.8880 N.3   158  ILE158     -0.1231
    105  CA        18.8610   71.8290   48.9830 C.3   158  ILE158      0.1692
    106  C         19.3970   72.1420   47.6030 C.2   158  ILE158      0.2592
    107  O         20.1010   71.3190   46.9800 O.2   158  ILE158     -0.2718
    108  CB        17.3780   71.5200   48.9190 C.3   158  ILE158      0.0266
    109  CG1       16.9390   70.8140   50.2240 C.3   158  ILE158      0.0019
    110  CG2       17.0310   70.6420   47.7110 C.3   158  ILE158      0.0020
    111  CD1       15.4230   70.7170   50.3140 C.3   158  ILE158      0.0001
    112  N         19.0020   73.2870   47.0920 N.am  159  ASP159     -0.1974
    113  CA        19.4830   73.7170   45.7470 C.3   159  ASP159      0.1709
    114  C         20.9890   73.7790   45.6450 C.2   159  ASP159      0.2293
    115  O         21.6190   73.2500   44.7280 O.2   159  ASP159     -0.2864
    116  CB        18.8720   75.0620   45.3340 C.3   159  ASP159      0.1436
    117  CG        17.4210   74.9650   44.9750 C.2   159  ASP159      0.3671
    118  OD1       16.9500   73.8410   44.7850 O.co2 159  ASP159     -0.2456
    119  OD2       16.7790   76.0070   44.8010 O.co2 159  ASP159     -0.2456
@<TRIPOS>BOND
     1    49    50    2
     2    49    48    1
     3    47    48    1
     4    33    34    1
     5    10    11    1
     6    48    51    1
     7    11    12    1
     8    11    14    1
     9    36    35    2
    10    34    35    1
    11    34    37    1
    12    13    12    2
    13    61    62    1
    14    45    46   ar
    15    45    43   ar
    16    15    14    1
    17    15    16    1
    18    46    44   ar
    19    12    19   am
    20    22    21    2
    21    21    20    1
    22    43    40   ar
    23    44    42   ar
    24    65    62    1
    25    65    66    1
    26    18    16   ar
    27    51    52    1
    28    40    42   ar
    29    40    38   ar
    30    42    41   ar
    31    62    63    1
    32    16    17   ar
    33    19    20    1
    34    38    37    1
    35    38    39   ar
    36    41    39   ar
    37    20    23    1
    38    52    53   ar
    39    52    54   ar
    40    66    67   ar
    41    66    68   ar
    42    67    69   ar
    43    53    55   ar
    44    63    64    2
    45    23    24    1
    46    54    57   ar
    47    54    56   ar
    48    57    59   ar
    49    68    70   ar
    50    55    56   ar
    51    69    71   ar
    52    77    74    1
    53    56    58   ar
    54    59    60   ar
    55    70    71   ar
    56    24    25   ar
    57    24    26   ar
    58    73    74    1
    59    71    72    1
    60    58    60   ar
    61    74    75    1
    62    25    27   ar
    63    29    26   ar
    64    29    31   ar
    65    26    28   ar
    66    75    78   am
    67    75    76    2
    68    78    79    1
    69    27    28   ar
    70    28    30   ar
    71    31    32   ar
    72    82    79    1
    73    82    83    1
    74    79    80    1
    75    32    30   ar
    76    83    84   ar
    77    83    85   ar
    78   115   114    2
    79   118   117   ar
    80   119   117   ar
    81    80    81    2
    82   117   116    1
    83    84    86   ar
    84     4     3    2
    85   116   113    1
    86     9     7   am
    87    85    87   ar
    88   114   113    1
    89     3     2    1
    90   113   112    1
    91     2     1    1
    92     2     5    1
    93    86    88   ar
    94    94    95    1
    95    94    91    1
    96    90    91    1
    97     7     8    2
    98     7     6    1
    99    87    88   ar
   100    95    96   ar
   101    95    97   ar
   102    96    98   ar
   103   107   106    2
   104     5     6    1
   105    88    89    1
   106   112   106   am
   107    91    92    1
   108   106   105    1
   109    98    99   ar
   110   110   108    1
   111    97   100   ar
   112    97    99   ar
   113   100   102   ar
   114    99   101   ar
   115    92    93    2
   116   102   103   ar
   117   108   105    1
   118   108   109    1
   119   101   103   ar
   120   105   104    1
   121   109   111    1
