@<TRIPOS>MOLECULE
tmp/4iciA00.pdb
 138 138 0 0 0
SMALL
GASTEIGER

@<TRIPOS>ATOM
      1  N         42.4000   25.5500   21.2080 N.3    10  SER10      -0.1202
      2  CA        42.9340   26.6000   22.0470 C.3    10  SER10       0.2020
      3  C         42.0080   27.7980   21.9630 C.2    10  SER10       0.2619
      4  O         41.7310   28.2970   20.8650 O.2    10  SER10      -0.2717
      5  CB        44.3240   26.9790   21.5840 C.3    10  SER10       0.2103
      6  OG        44.9190   27.9450   22.4470 O.3    10  SER10      -0.2182
      7  N         41.5300   28.2610   23.1050 N.am   11  ALA11      -0.1965
      8  CA        40.6650   29.4390   23.1430 C.3    11  ALA11       0.1728
      9  C         41.4240   30.7440   23.2980 C.2    11  ALA11       0.2616
     10  O         41.0090   31.7690   22.7130 O.2    11  ALA11      -0.2715
     11  CB        39.6150   29.2930   24.2570 C.3    11  ALA11       0.0334
     12  N         42.5020   30.7390   24.0920 N.am   12  THR12      -0.1951
     13  CA        43.3280   31.9350   24.2730 C.3    12  THR12       0.1897
     14  C         44.8170   31.7860   23.9470 C.2    12  THR12       0.2313
     15  O         45.6380   32.6190   24.3850 O.2    12  THR12      -0.2863
     16  CB        43.1760   32.5440   25.6830 C.3    12  THR12       0.1794
     17  OG1       43.3460   31.5600   26.6950 O.3    12  THR12      -0.2208
     18  CG2       41.7980   33.2480   25.8370 C.3    12  THR12       0.0378
     19  N         47.2060   29.5020   24.6900 N.3    14  THR14      -0.1203
     20  CA        48.1700   28.8030   25.5510 C.3    14  THR14       0.1994
     21  C         48.4220   27.3790   25.0360 C.2    14  THR14       0.2618
     22  O         49.5550   26.9270   24.9170 O.2    14  THR14      -0.2717
     23  CB        47.6950   28.7410   27.0120 C.3    14  THR14       0.1784
     24  OG1       47.2440   30.0300   27.4330 O.3    14  THR14      -0.2211
     25  CG2       48.8030   28.2590   27.9500 C.3    14  THR14       0.0376
     26  N         47.3420   26.6750   24.7350 N.am   15  THR15      -0.1952
     27  CA        47.4510   25.3210   24.2070 C.3    15  THR15       0.1897
     28  C         48.0210   25.3250   22.8040 C.2    15  THR15       0.2313
     29  O         48.7380   24.3860   22.4260 O.2    15  THR15      -0.2863
     30  CB        46.0890   24.6040   24.2560 C.3    15  THR15       0.1794
     31  OG1       45.5530   24.7750   25.5730 O.3    15  THR15      -0.2208
     32  CG2       46.2280   23.1160   23.9690 C.3    15  THR15       0.0378
     33  N         33.9890   32.4820   27.9540 N.3    44  LEU44      -0.1245
     34  CA        34.9820   31.8240   28.8140 C.3    44  LEU44       0.1561
     35  C         34.9020   32.2050   30.2950 C.2    44  LEU44       0.2260
     36  O         35.7610   31.8150   31.0840 O.2    44  LEU44      -0.2867
     37  CB        36.3700   32.1180   28.2590 C.3    44  LEU44       0.0270
     38  CG        36.6150   31.6410   26.8220 C.3    44  LEU44       0.0019
     39  CD1       37.9460   32.2170   26.2210 C.3    44  LEU44       0.0001
     40  CD2       36.5490   30.1130   26.6880 C.3    44  LEU44       0.0001
     41  N         34.1410   31.5910   33.6170 N.3    46  TRP46      -0.1241
     42  CA        33.7890   30.4940   34.5260 C.3    46  TRP46       0.1605
     43  C         33.0820   30.9250   35.8090 C.2    46  TRP46       0.2264
     44  O         32.5940   30.0720   36.5420 O.2    46  TRP46      -0.2867
     45  CB        35.0360   29.6510   34.8700 C.3    46  TRP46       0.0550
     46  CG        36.0590   30.4080   35.5980 C.ar   46  TRP46       0.0003
     47  CD1       36.0070   30.8190   36.9230 C.ar   46  TRP46       0.0946
     48  CD2       37.2970   30.8750   35.0880 C.ar   46  TRP46       0.0152
     49  NE1       37.1380   31.5150   37.2370 N.ar   46  TRP46      -0.2442
     50  CE2       37.9550   31.5560   36.1360 C.ar   46  TRP46       0.0810
     51  CE3       37.9310   30.7660   33.8610 C.ar   46  TRP46       0.0012
     52  CZ2       39.2140   32.1390   35.9790 C.ar   46  TRP46       0.0191
     53  CZ3       39.1820   31.3490   33.6920 C.ar   46  TRP46       0.0001
     54  CH2       39.8160   32.0210   34.7530 C.ar   46  TRP46       0.0015
     55  N         30.6280   28.5090   28.1240 N.3    53  SER53      -0.1217
     56  CA        31.4850   27.4330   28.6250 C.3    53  SER53       0.1889
     57  C         30.8530   26.7260   29.8270 C.2    53  SER53       0.2288
     58  O         30.9410   25.5080   29.9270 O.2    53  SER53      -0.2866
     59  CB        32.8950   27.9230   28.9410 C.3    53  SER53       0.2089
     60  OG        32.9550   28.9010   29.9720 O.3    53  SER53      -0.2183
     61  N         42.8380   23.0250   26.5170 N.3    82  PRO82      -0.2102
     62  CA        42.8620   23.5990   27.8500 C.3    82  PRO82       0.1504
     63  C         41.9780   22.7690   28.7780 C.2    82  PRO82       0.2576
     64  O         40.9470   22.2450   28.3410 O.2    82  PRO82      -0.2718
     65  CB        42.2410   24.9690   27.6430 C.3    82  PRO82       0.0282
     66  CG        41.2730   24.7780   26.4980 C.3    82  PRO82       0.0208
     67  CD        41.9430   23.7560   25.6090 C.3    82  PRO82       0.0893
     68  N         42.3520   22.6360   30.0340 N.am   83  ILE83      -0.1966
     69  CA        41.4960   21.9950   31.0480 C.3    83  ILE83       0.1727
     70  C         40.3720   22.9490   31.4140 C.2    83  ILE83       0.2616
     71  O         40.6440   24.0680   31.8120 O.2    83  ILE83      -0.2715
     72  CB        42.2700   21.6830   32.3470 C.3    83  ILE83       0.0290
     73  CG1       43.4280   20.7030   32.1060 C.3    83  ILE83       0.0022
     74  CG2       41.3130   21.1650   33.4640 C.3    83  ILE83       0.0023
     75  CD1       43.0290   19.3810   31.4240 C.3    83  ILE83       0.0001
     76  N         39.1210   22.5360   31.2410 N.am   84  TRP84      -0.1960
     77  CA        37.9390   23.2940   31.6400 C.3    84  TRP84       0.1771
     78  C         37.1490   22.4600   32.6530 C.2    84  TRP84       0.2620
     79  O         36.6690   21.3810   32.3320 O.2    84  TRP84      -0.2715
     80  CB        37.0380   23.6080   30.4520 C.3    84  TRP84       0.0590
     81  CG        37.5010   24.6670   29.5270 C.ar   84  TRP84       0.0006
     82  CD1       38.7050   25.3370   29.5310 C.ar   84  TRP84       0.0946
     83  CD2       36.7980   25.1380   28.3700 C.ar   84  TRP84       0.0152
     84  NE1       38.7620   26.2210   28.4710 N.ar   84  TRP84      -0.2442
     85  CE2       37.6100   26.1080   27.7470 C.ar   84  TRP84       0.0810
     86  CE3       35.5510   24.8460   27.8080 C.ar   84  TRP84       0.0012
     87  CZ2       37.2220   26.7960   26.6040 C.ar   84  TRP84       0.0191
     88  CZ3       35.1820   25.5410   26.6720 C.ar   84  TRP84       0.0001
     89  CH2       36.0210   26.5050   26.0790 C.ar   84  TRP84       0.0015
     90  N         37.0580   22.9640   33.8930 N.am   85  TRP85      -0.1960
     91  CA        36.3790   22.2430   34.9620 C.3    85  TRP85       0.1771
     92  C         36.8690   20.7800   35.0700 C.2    85  TRP85       0.2619
     93  O         36.0890   19.8440   35.2270 O.2    85  TRP85      -0.2715
     94  CB        34.8680   22.3150   34.7450 C.3    85  TRP85       0.0590
     95  CG        34.3370   23.7130   34.8040 C.ar   85  TRP85       0.0006
     96  CD1       34.1090   24.5770   33.7460 C.ar   85  TRP85       0.0946
     97  CD2       34.0290   24.4560   35.9980 C.ar   85  TRP85       0.0152
     98  NE1       33.6690   25.7850   34.2270 N.ar   85  TRP85      -0.2442
     99  CE2       33.6060   25.7360   35.5940 C.ar   85  TRP85       0.0810
    100  CE3       34.0610   24.1540   37.3560 C.ar   85  TRP85       0.0012
    101  CZ2       33.2260   26.7250   36.5050 C.ar   85  TRP85       0.0191
    102  CZ3       33.6780   25.1380   38.2750 C.ar   85  TRP85       0.0001
    103  CH2       33.2660   26.4080   37.8400 C.ar   85  TRP85       0.0015
    104  N         38.1900   20.6170   35.0140 N.am   86  ASP86      -0.1971
    105  CA        38.8740   19.3170   35.1380 C.3    86  ASP86       0.1709
    106  C         38.5410   18.3280   34.0170 C.2    86  ASP86       0.2293
    107  O         38.7420   17.1160   34.1830 O.2    86  ASP86      -0.2864
    108  CB        38.6000   18.6940   36.5270 C.3    86  ASP86       0.1436
    109  CG        39.7890   17.9220   37.0970 C.2    86  ASP86       0.3671
    110  OD1       40.9210   17.9640   36.5320 O.co2  86  ASP86      -0.2456
    111  OD2       39.5260   17.2370   38.1170 O.co2  86  ASP86      -0.2456
    112  N         46.9940   22.2050   28.5750 N.3   111  THR111     -0.1203
    113  CA        47.4620   23.2820   29.4360 C.3   111  THR111      0.1994
    114  C         46.3800   23.6040   30.4540 C.2   111  THR111      0.2619
    115  O         45.2150   23.2520   30.2700 O.2   111  THR111     -0.2717
    116  CB        47.8890   24.5500   28.6510 C.3   111  THR111      0.1784
    117  OG1       46.7660   25.2060   28.0760 O.3   111  THR111     -0.2211
    118  CG2       48.9450   24.2360   27.5780 C.3   111  THR111      0.0376
    119  N         46.7620   24.2450   31.5650 N.am  112  SER112     -0.1937
    120  CA        45.8220   24.5090   32.6600 C.3   112  SER112      0.2055
    121  C         46.3500   25.6110   33.5400 C.2   112  SER112      0.2644
    122  O         47.5260   26.0170   33.4380 O.2   112  SER112     -0.2714
    123  CB        45.6090   23.2780   33.5250 C.3   112  SER112      0.2130
    124  OG        46.7250   23.0580   34.3770 O.3   112  SER112     -0.2179
    125  N         45.4680   26.0240   34.4340 N.am  113  GLY113     -0.1939
    126  CA        45.8190   26.9390   35.5110 C.3   113  GLY113      0.2014
    127  C         46.3370   26.2630   36.7600 C.2   113  GLY113      0.2639
    128  O         46.4310   26.9230   37.8100 O.2   113  GLY113     -0.2714
    129  N         46.6810   24.9820   36.6630 N.am  114  GLY114     -0.1939
    130  CA        47.1330   24.2130   37.8250 C.3   114  GLY114      0.2014
    131  C         46.6520   22.7730   37.8740 C.2   114  GLY114      0.2639
    132  O         47.3540   21.8830   38.4080 O.2   114  GLY114     -0.2714
    133  N         45.4410   22.5240   37.3770 N.am  115  SER115     -0.1949
    134  CA        44.9260   21.1690   37.4090 C.3   115  SER115      0.1924
    135  C         45.8150   20.2450   36.6000 C.2   115  SER115      0.2314
    136  O         46.3490   20.6220   35.5520 O.2   115  SER115     -0.2863
    137  CB        43.5270   21.0980   36.8280 C.3   115  SER115      0.2116
    138  OG        42.5840   21.7060   37.6900 O.3   115  SER115     -0.2180
@<TRIPOS>BOND
     1     4     3    2
     2     1     2    1
     3     5     2    1
     4     5     6    1
     5     3     2    1
     6     3     7   am
     7    29    28    2
     8    10     9    2
     9    28    27    1
    10     7     8    1
    11     8     9    1
    12     8    11    1
    13     9    12   am
    14    14    13    1
    15    14    15    2
    16    32    30    1
    17    12    13    1
    18    27    30    1
    19    27    26    1
    20    30    31    1
    21    13    16    1
    22    19    20    1
    23    26    21   am
    24    22    21    2
    25    21    20    1
    26    20    23    1
    27    67    66    1
    28    67    61    1
    29    16    18    1
    30    16    17    1
    31    89    87   ar
    32    89    88   ar
    33    39    38    1
    34    66    65    1
    35    61    62    1
    36    87    85   ar
    37    88    86   ar
    38    40    38    1
    39    38    37    1
    40    23    24    1
    41    23    25    1
    42   118   116    1
    43    65    62    1
    44    85    83   ar
    45    85    84   ar
    46    86    83   ar
    47    62    63    1
    48    33    34    1
    49   117   116    1
    50    55    56    1
    51    37    34    1
    52    64    63    2
    53    83    81   ar
    54    84    82   ar
    55   112   113    1
    56    56    59    1
    57    56    57    1
    58   116   113    1
    59    63    68   am
    60    34    35    1
    61    59    60    1
    62   113   114    1
    63    81    82   ar
    64    81    80    1
    65    57    58    2
    66    68    69    1
    67   115   114    2
    68    35    36    2
    69    80    77    1
    70   114   119   am
    71    69    70    1
    72    69    72    1
    73    76    70   am
    74    76    77    1
    75    70    71    2
    76    75    73    1
    77   119   120    1
    78    77    78    1
    79    73    72    1
    80    79    78    2
    81    72    74    1
    82    78    90   am
    83   120   123    1
    84   120   121    1
    85   122   121    2
    86   123   124    1
    87   121   125   am
    88    41    42    1
    89    53    51   ar
    90    53    54   ar
    91    96    98   ar
    92    96    95   ar
    93    51    48   ar
    94    90    91    1
    95   106   107    2
    96   106   105    1
    97    98    99   ar
    98   125   126    1
    99    42    45    1
   100    42    43    1
   101    94    95    1
   102    94    91    1
   103    54    52   ar
   104    95    97   ar
   105    45    46    1
   106    91    92    1
   107   104    92   am
   108   104   105    1
   109    92    93    2
   110    48    46   ar
   111    48    50   ar
   112   105   108    1
   113   126   127    1
   114   136   135    2
   115    99    97   ar
   116    99   101   ar
   117    46    47   ar
   118    43    44    2
   119    52    50   ar
   120    97   100   ar
   121    50    49   ar
   122   101   103   ar
   123   108   109    1
   124   110   109   ar
   125   135   134    1
   126   129   127   am
   127   129   130    1
   128   127   128    2
   129   137   134    1
   130   137   138    1
   131    47    49   ar
   132   109   111   ar
   133   100   102   ar
   134   133   134    1
   135   133   131   am
   136   130   131    1
   137   103   102   ar
   138   131   132    2
