@<TRIPOS>MOLECULE
tmp/4iclA01.pdb
 109 103 0 0 0
SMALL
GASTEIGER

@<TRIPOS>ATOM
      1  N         48.6320  -25.2320   71.6350 N.3    43  MET43      -0.1245
      2  CA        49.1170  -24.2000   70.7220 C.3    43  MET43       0.1570
      3  C         50.2340  -23.4040   71.3870 C.2    43  MET43       0.2261
      4  O         51.1900  -22.9930   70.7230 O.2    43  MET43      -0.2867
      5  CB        48.0070  -23.2190   70.2970 C.3    43  MET43       0.0387
      6  CG        46.8610  -23.7790   69.4930 C.3    43  MET43       0.0595
      7  SD        45.5920  -22.5250   69.0820 S.3    43  MET43      -0.1393
      8  CE        46.5160  -21.4430   67.9860 C.3    43  MET43       0.0692
      9  N         52.6460  -21.1070   69.0020 N.3    48  LYS48      -0.1245
     10  CA        51.7280  -20.3620   68.1360 C.3    48  LYS48       0.1561
     11  C         51.1010  -19.1390   68.8420 C.2    48  LYS48       0.2260
     12  O         50.8520  -18.1060   68.2160 O.2    48  LYS48      -0.2867
     13  CB        50.6180  -21.2940   67.6680 C.3    48  LYS48       0.0271
     14  CG        51.0930  -22.4790   66.8750 C.3    48  LYS48       0.0035
     15  CD        49.9430  -23.4080   66.5040 C.3    48  LYS48       0.0206
     16  CE        50.4290  -24.6010   65.7130 C.3    48  LYS48       0.1093
     17  NZ        49.3640  -25.5890   65.4440 N.3    48  LYS48      -0.1314
     18  N         36.5880  -28.0230   68.4720 N.3    74  ARG74      -0.1231
     19  CA        37.5270  -27.2040   67.7270 C.3    74  ARG74       0.1694
     20  C         37.3040  -25.7390   68.1620 C.2    74  ARG74       0.2591
     21  O         36.1880  -25.3230   68.4840 O.2    74  ARG74      -0.2718
     22  CB        37.2640  -27.3520   66.2320 C.3    74  ARG74       0.0321
     23  CG        38.0690  -26.3760   65.3970 C.3    74  ARG74       0.0489
     24  CD        39.4500  -27.0220   65.1120 C.3    74  ARG74       0.2205
     25  NE        40.3570  -26.2280   64.2810 N.pl3  74  ARG74      -0.0865
     26  CZ        41.6690  -26.4480   64.2050 C.cat  74  ARG74       0.5346
     27  NH1       42.2180  -27.4450   64.8970 N.pl3  74  ARG74       0.1354
     28  NH2       42.4350  -25.6870   63.4270 N.pl3  74  ARG74       0.1354
     29  N         38.3690  -24.9550   68.1700 N.am   75  LYS75      -0.1980
     30  CA        38.2560  -23.5350   68.4480 C.3    75  LYS75       0.1596
     31  C         37.9450  -22.6880   67.2380 C.2    75  LYS75       0.2287
     32  O         38.2620  -23.0480   66.1020 O.2    75  LYS75      -0.2864
     33  CB        39.5570  -22.9960   69.0780 C.3    75  LYS75       0.0298
     34  CG        40.6730  -22.6790   68.0590 C.3    75  LYS75       0.0038
     35  CD        41.7270  -21.7830   68.6760 C.3    75  LYS75       0.0206
     36  CE        42.6300  -21.1270   67.6390 C.3    75  LYS75       0.1093
     37  NZ        42.9920  -22.0780   66.5760 N.3    75  LYS75      -0.1314
     38  N         51.9430  -27.4260   54.9930 N.3   114  GLY114     -0.1210
     39  CA        51.1140  -26.9930   56.0990 C.3   114  GLY114      0.1956
     40  C         51.9000  -26.7420   57.3850 C.2   114  GLY114      0.2611
     41  O         51.5940  -25.8210   58.1300 O.2   114  GLY114     -0.2717
     42  N         52.9340  -27.5350   57.6430 N.am  115  ASP115     -0.1973
     43  CA        53.7250  -27.2710   58.8470 C.3   115  ASP115      0.1709
     44  C         54.6110  -26.0300   58.6890 C.2   115  ASP115      0.2293
     45  O         54.7690  -25.2560   59.6600 O.2   115  ASP115     -0.2864
     46  CB        54.5580  -28.4870   59.2430 C.3   115  ASP115      0.1436
     47  CG        53.6920  -29.6660   59.6570 C.2   115  ASP115      0.3671
     48  OD1       52.6320  -29.4410   60.2970 O.co2 115  ASP115     -0.2456
     49  OD2       54.1000  -30.8170   59.4010 O.co2 115  ASP115     -0.2456
     50  N         53.9720  -23.3270   57.3640 N.3   117  TYR117     -0.1227
     51  CA        53.1380  -22.1460   57.6340 C.3   117  TYR117      0.1736
     52  C         53.4290  -21.5410   59.0000 C.2   117  TYR117      0.2595
     53  O         53.5650  -20.3160   59.1340 O.2   117  TYR117     -0.2718
     54  CB        51.6720  -22.5500   57.5480 C.3   117  TYR117      0.0548
     55  CG        50.6380  -21.5070   57.9120 C.ar  117  TYR117     -0.0200
     56  CD1       49.9750  -20.7990   56.9280 C.ar  117  TYR117     -0.0009
     57  CD2       50.3770  -21.1860   59.2520 C.ar  117  TYR117     -0.0009
     58  CE1       49.0190  -19.8590   57.2450 C.ar  117  TYR117      0.0417
     59  CE2       49.4170  -20.2520   59.5900 C.ar  117  TYR117      0.0417
     60  CZ        48.7520  -19.5700   58.5600 C.ar  117  TYR117      0.1957
     61  OH        47.7810  -18.6550   58.8590 O.3   117  TYR117     -0.2866
     62  N         53.6120  -22.3780   60.0280 N.am  118  PHE118     -0.1976
     63  CA        53.8470  -21.8020   61.3610 C.3   118  PHE118      0.1639
     64  C         55.2860  -21.4040   61.6510 C.2   118  PHE118      0.2290
     65  O         55.5590  -20.8670   62.7290 O.2   118  PHE118     -0.2864
     66  CB        53.4130  -22.8020   62.4620 C.3   118  PHE118      0.0560
     67  CG        51.9610  -23.1710   62.3870 C.ar  118  PHE118     -0.0200
     68  CD1       51.0100  -22.2360   62.7800 C.ar  118  PHE118     -0.0042
     69  CD2       51.5380  -24.3940   61.9050 C.ar  118  PHE118     -0.0042
     70  CE1       49.6440  -22.5270   62.6930 C.ar  118  PHE118     -0.0003
     71  CE2       50.1880  -24.7000   61.8260 C.ar  118  PHE118     -0.0003
     72  CZ        49.2390  -23.7690   62.2040 C.ar  118  PHE118     -0.0000
     73  N         48.5600  -14.0760   69.4700 N.3   148  TYR148     -0.1241
     74  CA        49.2450  -14.8510   68.4520 C.3   148  TYR148      0.1605
     75  C         50.6600  -14.3850   68.1680 C.2   148  TYR148      0.2264
     76  O         50.9790  -13.2020   68.2090 O.2   148  TYR148     -0.2867
     77  CB        48.4830  -14.7970   67.1090 C.3   148  TYR148      0.0534
     78  CG        47.3970  -15.8270   66.9410 C.ar  148  TYR148     -0.0201
     79  CD1       47.6780  -16.9930   66.2120 C.ar  148  TYR148     -0.0009
     80  CD2       46.1010  -15.6730   67.4560 C.ar  148  TYR148     -0.0009
     81  CE1       46.7240  -17.9780   66.0100 C.ar  148  TYR148      0.0417
     82  CE2       45.1400  -16.6740   67.2560 C.ar  148  TYR148      0.0417
     83  CZ        45.4510  -17.8190   66.5450 C.ar  148  TYR148      0.1957
     84  OH        44.5030  -18.8090   66.3080 O.3   148  TYR148     -0.2866
     85  N         50.6090  -16.4170   61.9780 N.3   151  LEU151     -0.1245
     86  CA        49.4550  -15.9270   61.1650 C.3   151  LEU151      0.1561
     87  C         48.1880  -16.6690   61.6170 C.2   151  LEU151      0.2260
     88  O         48.0500  -17.8880   61.3690 O.2   151  LEU151     -0.2867
     89  CB        49.7800  -16.2130   59.6910 C.3   151  LEU151      0.0270
     90  CG        51.0640  -15.5700   59.1290 C.3   151  LEU151      0.0019
     91  CD1       51.3640  -15.9940   57.6890 C.3   151  LEU151      0.0001
     92  CD2       51.0020  -14.0500   59.1830 C.3   151  LEU151      0.0001
     93  N         44.5600  -18.2760   61.6890 N.3   153  GLN153     -0.1245
     94  CA        43.5790  -18.6930   60.7260 C.3   153  GLN153      0.1566
     95  C         42.4130  -17.7280   60.7940 C.2   153  GLN153      0.2260
     96  O         41.9300  -17.4080   61.8780 O.2   153  GLN153     -0.2867
     97  CB        43.1190  -20.1040   61.0220 C.3   153  GLN153      0.0367
     98  CG        42.0400  -20.6130   60.0840 C.3   153  GLN153      0.0905
     99  CD        41.7510  -22.0600   60.3430 C.2   153  GLN153      0.2608
    100  OE1       41.3940  -22.4370   61.4600 O.2   153  GLN153     -0.2717
    101  NE2       41.9580  -22.8990   59.3250 N.am  153  GLN153     -0.0878
    102  N         47.8360  -25.2520   51.4090 N.3   187  ASP187     -0.1239
    103  CA        48.9490  -25.8730   52.1280 C.3   187  ASP187      0.1674
    104  C         49.7630  -26.7970   51.2260 C.2   187  ASP187      0.2266
    105  O         50.4940  -27.6460   51.7300 O.2   187  ASP187     -0.2867
    106  CB        48.4440  -26.6930   53.3210 C.3   187  ASP187      0.1410
    107  CG        48.1040  -25.8270   54.5250 C.2   187  ASP187      0.3668
    108  OD1       48.3860  -24.6100   54.5000 O.co2 187  ASP187     -0.2456
    109  OD2       47.4810  -26.3500   55.4690 O.co2 187  ASP187     -0.2456
@<TRIPOS>BOND
     1   104   105    2
     2   104   103    1
     3   102   103    1
     4   103   106    1
     5   106   107    1
     6   108   107   ar
     7   107   109   ar
     8    38    39    1
     9    39    40    1
    10    56    58   ar
    11    56    55   ar
    12    58    60   ar
    13    50    51    1
    14    40    42   am
    15    40    41    2
    16    54    51    1
    17    54    55    1
    18    51    52    1
    19    42    43    1
    20    91    90    1
    21    55    57   ar
    22    60    61    1
    23    60    59   ar
    24    44    43    1
    25    44    45    2
    26    43    46    1
    27    52    53    2
    28    52    62   am
    29    90    92    1
    30    90    89    1
    31    46    47    1
    32    57    59   ar
    33   101    99   am
    34    49    47   ar
    35    47    48   ar
    36    89    86    1
    37    62    63    1
    38    98    99    1
    39    98    97    1
    40    99   100    2
    41    94    95    1
    42    94    97    1
    43    94    93    1
    44    95    96    2
    45    86    87    1
    46    86    85    1
    47    63    64    1
    48    63    66    1
    49    88    87    2
    50    64    65    2
    51    71    69   ar
    52    71    72   ar
    53    69    67   ar
    54    72    70   ar
    55    67    66    1
    56    67    68   ar
    57    70    68   ar
    58    28    26    1
    59    26    25    2
    60    26    27    1
    61    25    24    1
    62    24    23    1
    63    23    22    1
    64    17    16    1
    65    16    15    1
    66    81    79   ar
    67    81    83   ar
    68    32    31    2
    69    79    78   ar
    70    22    19    1
    71    84    83    1
    72    15    14    1
    73    83    82   ar
    74    37    36    1
    75    14    13    1
    76    78    77    1
    77    78    80   ar
    78    77    74    1
    79    31    30    1
    80    82    80   ar
    81    36    35    1
    82    13    10    1
    83    19    20    1
    84    19    18    1
    85     8     7    1
    86    34    35    1
    87    34    33    1
    88    10    11    1
    89    10     9    1
    90    20    29   am
    91    20    21    2
    92    75    76    2
    93    75    74    1
    94    29    30    1
    95    12    11    2
    96    30    33    1
    97    74    73    1
    98     7     6    1
    99     6     5    1
   100     5     2    1
   101     2     3    1
   102     2     1    1
   103     4     3    2
