@<TRIPOS>MOLECULE
tmp/4icsB00.pdb
 147 140 0 0 0
SMALL
GASTEIGER

@<TRIPOS>ATOM
      1  N         53.9810   26.2140  118.6780 N.3   140  ASN140     -0.1240
      2  CA        52.7530   25.4420  118.6070 C.3   140  ASN140      0.1653
      3  C         51.7450   25.7110  119.7280 C.2   140  ASN140      0.2266
      4  O         51.0340   24.8150  120.1240 O.2   140  ASN140     -0.2867
      5  CB        53.0840   23.9500  118.4900 C.3   140  ASN140      0.1155
      6  CG        53.9280   23.6340  117.2280 C.2   140  ASN140      0.2627
      7  OD1       54.0180   24.4450  116.3010 O.2   140  ASN140     -0.2716
      8  ND2       54.5400   22.4490  117.1980 N.am  140  ASN140     -0.0877
      9  N         48.3920   25.7000  113.2990 N.3   144  TRP144     -0.1241
     10  CA        48.5770   26.6060  112.1670 C.3   144  TRP144      0.1605
     11  C         48.9550   25.7560  110.9740 C.2   144  TRP144      0.2264
     12  O         49.5710   24.6990  111.1420 O.2   144  TRP144     -0.2867
     13  CB        49.6860   27.6490  112.4070 C.3   144  TRP144      0.0550
     14  CG        51.0320   27.0230  112.8580 C.ar  144  TRP144      0.0003
     15  CD1       51.3330   26.5510  114.1200 C.ar  144  TRP144      0.0946
     16  CD2       52.2300   26.7990  112.0580 C.ar  144  TRP144      0.0152
     17  NE1       52.6050   26.0280  114.1420 N.ar  144  TRP144     -0.2442
     18  CE2       53.1930   26.2040  112.9080 C.ar  144  TRP144      0.0810
     19  CE3       52.5790   27.0630  110.7290 C.ar  144  TRP144      0.0012
     20  CZ2       54.4850   25.8480  112.4610 C.ar  144  TRP144      0.0191
     21  CZ3       53.8980   26.7030  110.2790 C.ar  144  TRP144      0.0001
     22  CH2       54.8200   26.1260  111.1570 C.ar  144  TRP144      0.0015
     23  N         61.8770   16.6070  113.2950 N.3   233  GLU233     -0.1231
     24  CA        60.4260   16.4700  113.2030 C.3   233  GLU233      0.1699
     25  C         60.0210   16.3410  111.7280 C.2   233  GLU233      0.2593
     26  O         60.8410   16.5690  110.8250 O.2   233  GLU233     -0.2718
     27  CB        59.7140   17.6920  113.8370 C.3   233  GLU233      0.0402
     28  CG        59.8440   17.7860  115.3740 C.3   233  GLU233      0.1161
     29  CD        59.2080   19.0830  115.9280 C.2   233  GLU233      0.3649
     30  OE1       58.1990   18.9210  116.6560 O.co2 233  GLU233     -0.2457
     31  OE2       59.6990   20.2420  115.6480 O.co2 233  GLU233     -0.2457
     32  N         58.7640   16.0250  111.4810 N.am  234  SER234     -0.1938
     33  CA        58.3040   15.9960  110.0910 C.3   234  SER234      0.2055
     34  C         56.8640   16.4990  109.9320 C.2   234  SER234      0.2643
     35  O         56.5300   17.6030  110.4050 O.2   234  SER234     -0.2714
     36  CB        58.5530   14.6240  109.4320 C.3   234  SER234      0.2130
     37  OG        58.0720   13.5540  110.2460 O.3   234  SER234     -0.2179
     38  N         56.0360   15.7190  109.2620 N.am  235  ALA235     -0.1963
     39  CA        54.6670   16.0830  108.8910 C.3   235  ALA235      0.1728
     40  C         53.6900   16.6020  109.9850 C.2   235  ALA235      0.2617
     41  O         53.1650   17.6870  109.8320 O.2   235  ALA235     -0.2715
     42  CB        54.0430   14.9420  108.1240 C.3   235  ALA235      0.0334
     43  N         53.4120   15.8420  111.0540 N.am  236  GLY236     -0.1940
     44  CA        52.4540   16.3000  112.0850 C.3   236  GLY236      0.2014
     45  C         53.0310   17.0680  113.2660 C.2   236  GLY236      0.2638
     46  O         54.1700   16.8380  113.6630 O.2   236  GLY236     -0.2714
     47  N         52.2730   18.0060  113.8330 N.am  237  ALA237     -0.1977
     48  CA        52.6710   18.6390  115.0850 C.3   237  ALA237      0.1597
     49  C         51.5170   18.4720  116.1070 C.2   237  ALA237      0.2287
     50  O         50.4530   17.9580  115.7490 O.2   237  ALA237     -0.2864
     51  CB        53.0230   20.0970  114.8680 C.3   237  ALA237      0.0319
     52  N         51.4440   21.5100  110.0950 N.3   247  PRO247     -0.2102
     53  CA        51.9050   22.8660  109.7880 C.3   247  PRO247      0.1504
     54  C         52.0590   23.2040  108.2800 C.2   247  PRO247      0.2575
     55  O         51.9580   24.3570  107.9160 O.2   247  PRO247     -0.2718
     56  CB        53.2820   22.9200  110.4400 C.3   247  PRO247      0.0282
     57  CG        53.1560   21.8890  111.6450 C.3   247  PRO247      0.0208
     58  CD        52.3400   20.7910  111.0350 C.3   247  PRO247      0.0893
     59  N         52.3550   22.2040  107.4460 N.am  248  ASN248     -0.1975
     60  CA        52.6180   22.4430  106.0430 C.3   248  ASN248      0.1688
     61  C         51.9120   21.3940  105.2020 C.2   248  ASN248      0.2292
     62  O         52.0830   20.1880  105.4150 O.2   248  ASN248     -0.2864
     63  CB        54.1070   22.3880  105.7010 C.3   248  ASN248      0.1181
     64  CG        54.8500   23.6730  106.0000 C.2   248  ASN248      0.2629
     65  OD1       54.3370   24.6470  106.6160 O.2   248  ASN248     -0.2716
     66  ND2       56.0630   23.7010  105.5470 N.am  248  ASN248     -0.0877
     67  N         53.9310   18.4620  102.3660 N.3   251  THR251     -0.1218
     68  CA        55.2200   18.4590  103.0680 C.3   251  THR251      0.1862
     69  C         55.9150   17.1750  102.7390 C.2   251  THR251      0.2287
     70  O         55.2460   16.1600  102.4980 O.2   251  THR251     -0.2866
     71  CB        55.0420   18.6850  104.5950 C.3   251  THR251      0.1770
     72  OG1       56.3150   18.9820  105.1990 O.3   251  THR251     -0.2211
     73  CG2       54.3610   17.5050  105.2460 C.3   251  THR251      0.0375
     74  N         59.4900   16.9090  104.1080 N.3   253  GLU253     -0.1245
     75  CA        60.7740   17.1440  104.7430 C.3   253  GLU253      0.1567
     76  C         60.8630   16.5150  106.1390 C.2   253  GLU253      0.2260
     77  O         59.8530   16.3170  106.8060 O.2   253  GLU253     -0.2867
     78  CB        61.0670   18.6440  104.8910 C.3   253  GLU253      0.0388
     79  CG        60.0140   19.4080  105.7100 C.3   253  GLU253      0.1160
     80  CD        60.4360   20.8310  106.0580 C.2   253  GLU253      0.3649
     81  OE1       61.4330   20.9970  106.7560 O.co2 253  GLU253     -0.2457
     82  OE2       59.7710   21.8030  105.6490 O.co2 253  GLU253     -0.2457
     83  N         63.2160   17.7310  109.5670 N.3   255  PHE255     -0.1241
     84  CA        64.0990   18.8490  109.8160 C.3   255  PHE255      0.1605
     85  C         64.3630   18.9740  111.3130 C.2   255  PHE255      0.2264
     86  O         63.6070   18.4420  112.1400 O.2   255  PHE255     -0.2867
     87  CB        63.4280   20.1550  109.3300 C.3   255  PHE255      0.0534
     88  CG        62.2280   20.5420  110.1710 C.ar  255  PHE255     -0.0203
     89  CD1       62.3630   21.4790  111.1750 C.ar  255  PHE255     -0.0042
     90  CD2       61.0070   19.9210  109.9870 C.ar  255  PHE255     -0.0042
     91  CE1       61.2710   21.8230  111.9930 C.ar  255  PHE255     -0.0003
     92  CE2       59.9010   20.2390  110.7720 C.ar  255  PHE255     -0.0003
     93  CZ        60.0340   21.1760  111.7830 C.ar  255  PHE255     -0.0000
     94  N         66.8610   26.5020  111.1120 N.3   319  GLU319     -0.1245
     95  CA        66.3770   25.2320  110.6130 C.3   319  GLU319      0.1567
     96  C         67.3230   24.5980  109.6070 C.2   319  GLU319      0.2260
     97  O         67.8770   25.2920  108.7730 O.2   319  GLU319     -0.2867
     98  CB        65.0260   25.4230  109.9340 C.3   319  GLU319      0.0388
     99  CG        64.3910   24.1110  109.4820 C.3   319  GLU319      0.1160
    100  CD        63.1230   24.3440  108.6430 C.2   319  GLU319      0.3649
    101  OE1       62.4610   25.3680  108.8120 O.co2 319  GLU319     -0.2457
    102  OE2       62.8050   23.5080  107.8020 O.co2 319  GLU319     -0.2457
    103  N         60.4100   24.1740   99.0760 N.3   343  ASP343     -0.1239
    104  CA        60.9890   23.5760  100.3300 C.3   343  ASP343      0.1674
    105  C         60.8220   22.0870  100.2980 C.2   343  ASP343      0.2266
    106  O         61.6340   21.2960  100.8300 O.2   343  ASP343     -0.2867
    107  CB        60.2230   24.0430  101.5920 C.3   343  ASP343      0.1410
    108  CG        60.8800   25.1990  102.2500 C.2   343  ASP343      0.3668
    109  OD1       61.9710   25.5890  101.7770 O.co2 343  ASP343     -0.2456
    110  OD2       60.3020   25.7130  103.2340 O.co2 343  ASP343     -0.2456
    111  N         62.1720   26.6850  115.2950 N.3   355  TYR355     -0.1241
    112  CA        60.9750   26.1970  115.9710 C.3   355  TYR355      0.1605
    113  C         61.3220   25.6540  117.3590 C.2   355  TYR355      0.2264
    114  O         62.2790   24.8890  117.5000 O.2   355  TYR355     -0.2867
    115  CB        60.2990   25.1160  115.1540 C.3   355  TYR355      0.0534
    116  CG        59.7870   25.6390  113.8110 C.ar  355  TYR355     -0.0201
    117  CD1       58.6070   26.3490  113.7510 C.ar  355  TYR355     -0.0009
    118  CD2       60.5010   25.4440  112.6160 C.ar  355  TYR355     -0.0009
    119  CE1       58.1150   26.8460  112.5490 C.ar  355  TYR355      0.0417
    120  CE2       60.0200   25.9510  111.3960 C.ar  355  TYR355      0.0417
    121  CZ        58.8150   26.6650  111.3840 C.ar  355  TYR355      0.1957
    122  OH        58.2850   27.2110  110.2200 O.3   355  TYR355     -0.2866
    123  N         60.0770   23.4420  119.0380 N.3   357  THR357     -0.1218
    124  CA        59.9970   22.0060  119.2300 C.3   357  THR357      0.1862
    125  C         61.2270   21.2710  118.6410 C.2   357  THR357      0.2287
    126  O         61.2860   20.0440  118.6780 O.2   357  THR357     -0.2866
    127  CB        58.7700   21.4380  118.5900 C.3   357  THR357      0.1770
    128  OG1       58.7690   21.8520  117.2270 O.3   357  THR357     -0.2211
    129  CG2       57.4850   21.9690  119.2770 C.3   357  THR357      0.0375
    130  N         61.9770   34.1890  109.5950 N.3   381  HIS381     -0.1241
    131  CA        62.3060   32.7900  109.3220 C.3   381  HIS381      0.1621
    132  C         62.2300   32.6960  107.8090 C.2   381  HIS381      0.2264
    133  O         61.1250   32.7490  107.2450 O.2   381  HIS381     -0.2867
    134  CB        61.2570   31.8740  109.9190 C.3   381  HIS381      0.0745
    135  CG        61.4770   30.4190  109.6510 C.ar  381  HIS381      0.0817
    136  ND1       62.1670   29.5950  110.5220 N.ar  381  HIS381     -0.2268
    137  CD2       61.0570   29.6250  108.6320 C.ar  381  HIS381      0.1154
    138  CE1       62.1820   28.3630  110.0380 C.ar  381  HIS381      0.1986
    139  NE2       61.5060   28.3540  108.9010 N.ar  381  HIS381     -0.2212
    140  N         63.4060   30.4600  104.6150 N.3   383  ASP383     -0.1239
    141  CA        63.9780   29.2570  104.0740 C.3   383  ASP383      0.1674
    142  C         64.5550   29.5520  102.7050 C.2   383  ASP383      0.2266
    143  O         63.9680   30.2980  101.9010 O.2   383  ASP383     -0.2867
    144  CB        62.8800   28.2050  103.9210 C.3   383  ASP383      0.1410
    145  CG        62.3150   27.7660  105.2620 C.2   383  ASP383      0.3668
    146  OD1       63.0550   27.2300  106.1020 O.co2 383  ASP383     -0.2456
    147  OD2       61.1140   27.9710  105.5110 O.co2 383  ASP383     -0.2456
@<TRIPOS>BOND
     1   103   104    1
     2   105   104    1
     3   105   106    2
     4   104   107    1
     5   107   108    1
     6   109   108   ar
     7   143   142    2
     8   108   110   ar
     9    67    68    1
    10    70    69    2
    11   142   141    1
    12    69    68    1
    13    68    71    1
    14   144   141    1
    15   144   145    1
    16   141   140    1
    17    74    75    1
    18    71    72    1
    19    71    73    1
    20    75    78    1
    21    75    76    1
    22    78    79    1
    23    61    62    2
    24    61    60    1
    25   145   147   ar
    26   145   146   ar
    27    66    64   am
    28    82    80   ar
    29    63    64    1
    30    63    60    1
    31    79    80    1
    32    64    65    2
    33    60    59    1
    34    80    81   ar
    35    76    77    2
    36   133   132    2
    37    59    54   am
    38   102   100   ar
    39   132   131    1
    40    55    54    2
    41    42    39    1
    42    54    53    1
    43   137   139   ar
    44   137   135   ar
    45   100   101   ar
    46   100    99    1
    47    97    96    2
    48    39    38    1
    49    39    40    1
    50   139   138   ar
    51    38    34   am
    52   131   130    1
    53   131   134    1
    54    87    84    1
    55    87    88    1
    56    36    33    1
    57    36    37    1
    58    99    98    1
    59    83    84    1
    60    96    95    1
    61   135   134    1
    62   135   136   ar
    63    53    52    1
    64    53    56    1
    65    84    85    1
    66    41    40    2
    67    34    33    1
    68    34    35    2
    69    98    95    1
    70    40    43   am
    71    90    88   ar
    72    90    92   ar
    73   138   136   ar
    74    33    32    1
    75    52    58    1
    76    88    89   ar
    77   122   121    1
    78    21    19   ar
    79    21    22   ar
    80    56    57    1
    81    95    94    1
    82    19    16   ar
    83    92    93   ar
    84    26    25    2
    85    11    12    2
    86    11    10    1
    87    58    57    1
    88    43    44    1
    89    22    20   ar
    90    89    91   ar
    91    85    86    2
    92   121   120   ar
    93   121   119   ar
    94   120   118   ar
    95    32    25   am
    96    25    24    1
    97    93    91   ar
    98    16    14   ar
    99    16    18   ar
   100    44    45    1
   101    10    13    1
   102    10     9    1
   103    13    14    1
   104    20    18   ar
   105   119   117   ar
   106   118   116   ar
   107    14    15   ar
   108    18    17   ar
   109    24    23    1
   110    24    27    1
   111    45    46    2
   112    45    47   am
   113   117   116   ar
   114   116   115    1
   115    47    48    1
   116    27    28    1
   117    15    17   ar
   118    51    48    1
   119    48    49    1
   120   115   112    1
   121   111   112    1
   122    28    29    1
   123    31    29   ar
   124    50    49    2
   125    29    30   ar
   126   112   113    1
   127     7     6    2
   128     8     6   am
   129   128   127    1
   130     6     5    1
   131   113   114    2
   132     5     2    1
   133   127   124    1
   134   127   129    1
   135     2     1    1
   136     2     3    1
   137   125   126    2
   138   125   124    1
   139   123   124    1
   140     3     4    2
