@<TRIPOS>MOLECULE
tmp/4iczA00.pdb
 197 191 0 0 0
SMALL
GASTEIGER

@<TRIPOS>ATOM
      1  N        -16.2070   16.8420    0.2810 N.3    31  TYR31      -0.1241
      2  CA       -16.5810   15.7380   -0.5960 C.3    31  TYR31       0.1605
      3  C        -17.6270   14.8540    0.0780 C.2    31  TYR31       0.2264
      4  O        -18.6160   14.4780   -0.5410 O.2    31  TYR31      -0.2867
      5  CB       -15.3720   14.9110   -1.0510 C.3    31  TYR31       0.0534
      6  CG       -15.7740   13.6980   -1.8710 C.ar   31  TYR31      -0.0201
      7  CD1      -16.3580   13.8440   -3.1230 C.ar   31  TYR31      -0.0009
      8  CD2      -15.5870   12.4110   -1.3870 C.ar   31  TYR31      -0.0009
      9  CE1      -16.7400   12.7280   -3.8770 C.ar   31  TYR31       0.0417
     10  CE2      -15.9680   11.2930   -2.1330 C.ar   31  TYR31       0.0417
     11  CZ       -16.5340   11.4640   -3.3750 C.ar   31  TYR31       0.1957
     12  OH       -16.9240   10.3810   -4.1190 O.3    31  TYR31      -0.2866
     13  N        -21.2910   13.6370   -1.2930 N.3    35  ARG35      -0.1245
     14  CA       -21.6940   12.2270   -1.3540 C.3    35  ARG35       0.1563
     15  C        -23.0360   11.9760   -0.6750 C.2    35  ARG35       0.2260
     16  O        -23.7450   11.0270   -1.0140 O.2    35  ARG35      -0.2867
     17  CB       -20.6550   11.3300   -0.6840 C.3    35  ARG35       0.0307
     18  CG       -19.4030   11.1410   -1.5360 C.3    35  ARG35       0.0489
     19  CD       -18.7640    9.8370   -1.1770 C.3    35  ARG35       0.2205
     20  NE       -17.9510   10.0210    0.0360 N.pl3  35  ARG35      -0.0865
     21  CZ       -17.1760    9.0200    0.4950 C.cat  35  ARG35       0.5346
     22  NH1      -17.1650    7.8500   -0.1420 N.pl3  35  ARG35       0.1354
     23  NH2      -16.4090    9.2210    1.5680 N.pl3  35  ARG35       0.1354
     24  N        -21.0370   -2.8490  -16.4740 N.3    56  ARG56      -0.1231
     25  CA       -19.7640   -3.4440  -16.0690 C.3    56  ARG56       0.1694
     26  C        -19.7740   -3.7400  -14.5620 C.2    56  ARG56       0.2592
     27  O        -19.2380   -4.7520  -14.1140 O.2    56  ARG56      -0.2718
     28  CB       -18.5940   -2.5320  -16.4450 C.3    56  ARG56       0.0321
     29  CG       -17.2200   -3.0330  -15.9990 C.3    56  ARG56       0.0489
     30  CD       -16.0980   -2.1930  -16.5750 C.3    56  ARG56       0.2205
     31  NE       -16.0010   -2.3570  -18.0220 N.pl3  56  ARG56      -0.0865
     32  CZ       -15.3260   -3.3490  -18.6030 C.cat  56  ARG56       0.5346
     33  NH1      -14.6960   -4.2480  -17.8580 N.pl3  56  ARG56       0.1354
     34  NH2      -15.2800   -3.4470  -19.9270 N.pl3  56  ARG56       0.1354
     35  N        -20.4000   -2.8650  -13.7790 N.am   57  TYR57      -0.1962
     36  CA       -20.3930   -3.0350  -12.3200 C.3    57  TYR57       0.1771
     37  C        -21.7900   -3.0530  -11.7130 C.2    57  TYR57       0.2620
     38  O        -22.6430   -2.2200  -12.0590 O.2    57  TYR57      -0.2715
     39  CB       -19.5750   -1.9260  -11.6510 C.3    57  TYR57       0.0574
     40  CG       -18.1260   -1.8650  -12.0650 C.ar   57  TYR57      -0.0198
     41  CD1      -17.2060   -2.7650  -11.5600 C.ar   57  TYR57      -0.0009
     42  CD2      -17.6720   -0.8950  -12.9490 C.ar   57  TYR57      -0.0009
     43  CE1      -15.8760   -2.7030  -11.9240 C.ar   57  TYR57       0.0417
     44  CE2      -16.3370   -0.8300  -13.3170 C.ar   57  TYR57       0.0417
     45  CZ       -15.4410   -1.7410  -12.8020 C.ar   57  TYR57       0.1957
     46  OH       -14.1010   -1.7030  -13.1560 O.3    57  TYR57      -0.2866
     47  N        -22.0000   -3.9770  -10.7780 N.am   58  GLY58      -0.1940
     48  CA       -23.2560   -4.0880  -10.0630 C.3    58  GLY58       0.2014
     49  C        -23.6170   -2.8600   -9.2380 C.2    58  GLY58       0.2639
     50  O        -24.7910   -2.6290   -8.9660 O.2    58  GLY58      -0.2714
     51  N        -22.6200   -2.0650   -8.8550 N.am   59  ASP59      -0.1957
     52  CA       -22.8660   -0.8880   -8.0130 C.3    59  ASP59       0.1840
     53  C        -22.7350    0.4460   -8.7570 C.2    59  ASP59       0.2621
     54  O        -22.7270    1.5080   -8.1370 O.2    59  ASP59      -0.2715
     55  CB       -21.9710   -0.9000   -6.7700 C.3    59  ASP59       0.1450
     56  CG       -20.4890   -0.9370   -7.1120 C.2    59  ASP59       0.3671
     57  OD1      -20.1500   -1.2660   -8.2630 O.co2  59  ASP59      -0.2456
     58  OD2      -19.6600   -0.6440   -6.2250 O.co2  59  ASP59      -0.2456
     59  N        -22.6460    0.3980  -10.0830 N.am   60  VAL60      -0.1977
     60  CA       -22.6180    1.6330  -10.8700 C.3    60  VAL60       0.1596
     61  C        -23.7050    1.6320  -11.9410 C.2    60  VAL60       0.2287
     62  O        -23.4240    1.4150  -13.1210 O.2    60  VAL60      -0.2864
     63  CB       -21.2400    1.8820  -11.5270 C.3    60  VAL60       0.0276
     64  CG1      -21.2110    3.2780  -12.1870 C.3    60  VAL60       0.0022
     65  CG2      -20.1120    1.7540  -10.4920 C.3    60  VAL60       0.0022
     66  N        -17.9770   -3.2930  -22.6850 N.3    99  LEU99      -0.1245
     67  CA       -17.8760   -4.7420  -22.4850 C.3    99  LEU99       0.1561
     68  C        -18.0390   -5.4070  -23.8370 C.2    99  LEU99       0.2260
     69  O        -18.6270   -4.8180  -24.7380 O.2    99  LEU99      -0.2867
     70  CB       -19.0220   -5.2040  -21.5850 C.3    99  LEU99       0.0270
     71  CG       -19.1280   -4.6360  -20.1560 C.3    99  LEU99       0.0019
     72  CD1      -20.5490   -4.7820  -19.6200 C.3    99  LEU99       0.0001
     73  CD2      -18.1550   -5.3420  -19.2320 C.3    99  LEU99       0.0001
     74  N         -6.7250   -7.0330  -12.8900 N.3   129  ARG129     -0.1231
     75  CA        -8.0660   -7.3110  -13.4050 C.3   129  ARG129      0.1694
     76  C         -8.5240   -6.4410  -14.5900 C.2   129  ARG129      0.2592
     77  O         -8.0010   -5.3490  -14.8280 O.2   129  ARG129     -0.2718
     78  CB        -9.0880   -7.2500  -12.2690 C.3   129  ARG129      0.0321
     79  CG        -8.7720   -8.1270  -11.0550 C.3   129  ARG129      0.0489
     80  CD        -9.4310   -9.4970  -11.1460 C.3   129  ARG129      0.2205
     81  NE        -8.8710  -10.3170  -12.2160 N.pl3 129  ARG129     -0.0865
     82  CZ        -7.7130  -10.9560  -12.1430 C.cat 129  ARG129      0.5346
     83  NH1       -6.9820  -10.8790  -11.0420 N.pl3 129  ARG129      0.1354
     84  NH2       -7.2940  -11.6970  -13.1570 N.pl3 129  ARG129      0.1354
     85  N         -9.5190   -6.9480  -15.3130 N.am  130  ARG130     -0.1966
     86  CA       -10.0800   -6.2850  -16.4890 C.3   130  ARG130      0.1729
     87  C        -10.7790   -4.9730  -16.1340 C.2   130  ARG130      0.2616
     88  O        -11.5420   -4.9110  -15.1710 O.2   130  ARG130     -0.2715
     89  CB       -11.0660   -7.2240  -17.1820 C.3   130  ARG130      0.0348
     90  CG       -11.6380   -6.6820  -18.4740 C.3   130  ARG130      0.0492
     91  CD       -10.5260   -6.3320  -19.4440 C.3   130  ARG130      0.2205
     92  NE        -9.4560   -7.3230  -19.4130 N.pl3 130  ARG130     -0.0865
     93  CZ        -9.4980   -8.4890  -20.0490 C.cat 130  ARG130      0.5346
     94  NH1      -10.5650   -8.8130  -20.7690 N.pl3 130  ARG130      0.1354
     95  NH2       -8.4760   -9.3320  -19.9610 N.pl3 130  ARG130      0.1354
     96  N        -10.5150   -3.9280  -16.9160 N.am  131  LYS131     -0.1977
     97  CA       -11.0440   -2.5880  -16.6400 C.3   131  LYS131      0.1596
     98  C        -11.8660   -2.0620  -17.8130 C.2   131  LYS131      0.2287
     99  O        -12.8100   -1.2850  -17.6380 O.2   131  LYS131     -0.2864
    100  CB        -9.8980   -1.6150  -16.3870 C.3   131  LYS131      0.0298
    101  CG        -8.8620   -2.0930  -15.3850 C.3   131  LYS131      0.0038
    102  CD        -9.2930   -1.8350  -13.9570 C.3   131  LYS131      0.0206
    103  CE       -10.0540   -3.0000  -13.3710 C.3   131  LYS131      0.1093
    104  NZ        -9.9660   -2.9790  -11.8850 N.3   131  LYS131     -0.1314
    105  N         -7.4930    3.7290  -11.7780 N.3   190  ASP190     -0.1225
    106  CA        -8.7720    3.7210  -11.0750 C.3   190  ASP190      0.1805
    107  C         -8.5300    4.1150   -9.6200 C.2   190  ASP190      0.2597
    108  O         -7.4520    3.8680   -9.0780 O.2   190  ASP190     -0.2718
    109  CB        -9.4320    2.3390  -11.1620 C.3   190  ASP190      0.1424
    110  CG       -10.9470    2.3480  -11.0990 C.2   190  ASP190      0.3668
    111  OD1      -11.5680    3.3720  -10.8410 O.co2 190  ASP190     -0.2456
    112  OD2      -11.4860    1.2350  -11.2510 O.co2 190  ASP190     -0.2456
    113  N         -9.5120    4.7720   -9.0130 N.am  191  TYR191     -0.1976
    114  CA        -9.4580    5.0820   -7.5950 C.3   191  TYR191      0.1639
    115  C         -8.3820    6.1080   -7.2570 C.2   191  TYR191      0.2290
    116  O         -8.2030    6.4490   -6.0920 O.2   191  TYR191     -0.2864
    117  CB        -9.2080    3.7970   -6.7980 C.3   191  TYR191      0.0560
    118  CG       -10.0650    2.6350   -7.2450 C.ar  191  TYR191     -0.0198
    119  CD1      -11.4350    2.7830   -7.4000 C.ar  191  TYR191     -0.0009
    120  CD2       -9.5030    1.3970   -7.5240 C.ar  191  TYR191     -0.0009
    121  CE1      -12.2250    1.7330   -7.8130 C.ar  191  TYR191      0.0417
    122  CE2      -10.2850    0.3340   -7.9330 C.ar  191  TYR191      0.0417
    123  CZ       -11.6470    0.5080   -8.0780 C.ar  191  TYR191      0.1957
    124  OH       -12.4390   -0.5400   -8.4900 O.3   191  TYR191     -0.2866
    125  N        -14.1020    5.8360  -18.5040 N.3   226  CYS226     -0.1221
    126  CA       -13.0290    5.1730  -17.7850 C.3   226  CYS226      0.1808
    127  C        -13.4010    3.7040  -17.7040 C.2   226  CYS226      0.2602
    128  O        -13.6610    3.0900  -18.7410 O.2   226  CYS226     -0.2717
    129  CB       -12.8520    5.7720  -16.4220 C.3   226  CYS226      0.0970
    130  SG       -12.6730    7.5720  -16.3560 S.3   226  CYS226     -0.0800
    131  N        -13.4250    3.1390  -16.4950 N.am  227  SER227     -0.1938
    132  CA       -13.9110    1.7700  -16.3270 C.3   227  SER227      0.2055
    133  C        -15.3930    1.7730  -15.9650 C.2   227  SER227      0.2643
    134  O        -16.2110    1.1960  -16.6690 O.2   227  SER227     -0.2714
    135  CB       -13.0970    1.0190  -15.2630 C.3   227  SER227      0.2130
    136  OG       -13.3100   -0.3760  -15.3740 O.3   227  SER227     -0.2179
    137  N        -15.7280    2.4440  -14.8660 N.am  228  ALA228     -0.1963
    138  CA       -17.1120    2.6880  -14.4830 C.3   228  ALA228      0.1728
    139  C        -17.6580    3.9430  -15.1480 C.2   228  ALA228      0.2617
    140  O        -18.8730    4.1030  -15.2830 O.2   228  ALA228     -0.2715
    141  CB       -17.2260    2.8260  -12.9620 C.3   228  ALA228      0.0334
    142  N        -16.7590    4.8410  -15.5460 N.am  229  GLY229     -0.1940
    143  CA       -17.1590    6.1280  -16.1180 C.3   229  GLY229      0.2014
    144  C        -17.7380    7.1210  -15.1130 C.2   229  GLY229      0.2639
    145  O        -18.6300    7.9310  -15.4370 O.2   229  GLY229     -0.2714
    146  N        -17.2500    7.0630  -13.8740 N.am  230  ILE230     -0.1963
    147  CA       -17.7110    8.0010  -12.8480 C.3   230  ILE230      0.1727
    148  C        -16.5750    8.7070  -12.1020 C.2   230  ILE230      0.2617
    149  O        -16.6600    9.9110  -11.8230 O.2   230  ILE230     -0.2715
    150  CB       -18.6870    7.3390  -11.8490 C.3   230  ILE230      0.0290
    151  CG1      -17.9990    6.2010  -11.0790 C.3   230  ILE230      0.0022
    152  CG2      -19.9510    6.8660  -12.5770 C.3   230  ILE230      0.0023
    153  CD1      -18.8290    5.6250   -9.9390 C.3   230  ILE230      0.0001
    154  N        -15.5180    7.9650  -11.7870 N.am  231  GLY231     -0.1940
    155  CA       -14.4250    8.4900  -10.9790 C.3   231  GLY231      0.2014
    156  C        -13.5320    9.4460  -11.7500 C.2   231  GLY231      0.2638
    157  O        -13.5670   10.6700  -11.5560 O.2   231  GLY231     -0.2714
    158  N        -12.7260    8.8760  -12.6360 N.am  232  ARG232     -0.1977
    159  CA       -11.8470    9.6600  -13.4830 C.3   232  ARG232      0.1597
    160  C        -12.6740   10.4940  -14.4530 C.2   232  ARG232      0.2287
    161  O        -12.3240   11.6250  -14.7580 O.2   232  ARG232     -0.2864
    162  CB       -10.8620    8.7430  -14.2200 C.3   232  ARG232      0.0334
    163  CG        -9.7850    8.1580  -13.2830 C.3   232  ARG232      0.0492
    164  CD        -9.1100    6.9320  -13.8700 C.3   232  ARG232      0.2205
    165  NE       -10.0180    5.7840  -13.8980 N.pl3 232  ARG232     -0.0865
    166  CZ        -9.6770    4.5640  -14.3050 C.cat 232  ARG232      0.5346
    167  NH1       -8.4410    4.3280  -14.7320 N.pl3 232  ARG232      0.1354
    168  NH2      -10.5750    3.5800  -14.2860 N.pl3 232  ARG232      0.1354
    169  N        -22.8700    9.7280   -9.2340 N.3   267  PHE267     -0.1241
    170  CA       -21.6480    9.2330   -8.5740 C.3   267  PHE267      0.1605
    171  C        -20.3410    9.7960   -9.1190 C.2   267  PHE267      0.2264
    172  O        -19.2670    9.3120   -8.7410 O.2   267  PHE267     -0.2867
    173  CB       -21.5610    7.6940   -8.5800 C.3   267  PHE267      0.0534
    174  CG       -22.8670    7.0180   -8.3440 C.ar  267  PHE267     -0.0203
    175  CD1      -23.5810    7.2700   -7.1890 C.ar  267  PHE267     -0.0042
    176  CD2      -23.3900    6.1450   -9.2860 C.ar  267  PHE267     -0.0042
    177  CE1      -24.7960    6.6590   -6.9660 C.ar  267  PHE267     -0.0003
    178  CE2      -24.6070    5.5320   -9.0750 C.ar  267  PHE267     -0.0003
    179  CZ       -25.3090    5.7870   -7.9040 C.ar  267  PHE267     -0.0000
    180  N        -15.1750    9.8410   -7.3590 N.3   270  GLN270     -0.1245
    181  CA       -15.3770    8.6290   -6.5770 C.3   270  GLN270      0.1566
    182  C        -14.6060    8.6040   -5.2670 C.2   270  GLN270      0.2260
    183  O        -14.9290    7.8230   -4.3810 O.2   270  GLN270     -0.2867
    184  CB       -15.0340    7.4090   -7.4300 C.3   270  GLN270      0.0367
    185  CG       -15.4210    6.0810   -6.7790 C.3   270  GLN270      0.0905
    186  CD       -14.3330    5.0510   -6.8940 C.2   270  GLN270      0.2608
    187  OE1      -14.3850    3.9980   -6.2530 O.2   270  GLN270     -0.2717
    188  NE2      -13.3360    5.3360   -7.7200 N.am  270  GLN270     -0.0878
    189  N         -9.7310   12.4260   -5.3380 N.3   274  GLN274     -0.1245
    190  CA       -10.1030   12.9680   -6.6400 C.3   274  GLN274      0.1566
    191  C        -10.7090   14.3700   -6.5220 C.2   274  GLN274      0.2260
    192  O        -10.3980   15.2660   -7.3110 O.2   274  GLN274     -0.2867
    193  CB       -11.0630   12.0150   -7.3360 C.3   274  GLN274      0.0367
    194  CG       -10.3550   10.7810   -7.8890 C.3   274  GLN274      0.0905
    195  CD       -11.3060    9.7530   -8.4510 C.2   274  GLN274      0.2608
    196  OE1      -12.5300    9.8820   -8.3370 O.2   274  GLN274     -0.2717
    197  NE2      -10.7440    8.7170   -9.0750 N.am  274  GLN274     -0.0878
@<TRIPOS>BOND
     1    69    68    2
     2    68    67    1
     3    66    67    1
     4    67    70    1
     5    70    71    1
     6    94    93    1
     7    71    72    1
     8    71    73    1
     9    93    95    1
    10    93    92    2
    11    34    32    1
    12    91    92    1
    13    91    90    1
    14   128   127    2
    15    32    31    2
    16    32    33    1
    17   125   126    1
    18    90    89    1
    19    31    30    1
    20    98    99    2
    21    98    97    1
    22   126   127    1
    23   126   129    1
    24   127   131   am
    25    89    86    1
    26    96    97    1
    27    96    87   am
    28   134   133    2
    29    97   100    1
    30    30    29    1
    31   131   132    1
    32    86    87    1
    33    86    85    1
    34    24    25    1
    35    28    25    1
    36    28    29    1
    37   129   130    1
    38   100   101    1
    39   132   133    1
    40   132   135    1
    41    87    88    2
    42   143   142    1
    43   143   144    1
    44    25    26    1
    45   133   137   am
    46   142   139   am
    47   145   144    2
    48   101   102    1
    49   136   135    1
    50    85    76   am
    51   140   139    2
    52   139   138    1
    53   144   146   am
    54   137   138    1
    55    77    76    2
    56   161   160    2
    57   167   166    1
    58    76    75    1
    59    26    27    2
    60    26    35   am
    61   138   141    1
    62   160   159    1
    63   166   168    1
    64   166   165    2
    65   162   159    1
    66   162   163    1
    67   102   103    1
    68   165   164    1
    69   146   147    1
    70   164   163    1
    71    35    36    1
    72   159   158    1
    73    75    74    1
    74    75    78    1
    75   103   104    1
    76    44    42   ar
    77    44    45   ar
    78    84    82    1
    79    46    45    1
    80    62    61    2
    81    42    40   ar
    82   147   148    1
    83   147   150    1
    84    45    43   ar
    85   158   156   am
    86   152   150    1
    87    36    37    1
    88    36    39    1
    89    78    79    1
    90    81    82    2
    91    81    80    1
    92    64    63    1
    93    82    83    1
    94   148   149    2
    95   148   154   am
    96    40    39    1
    97    40    41   ar
    98    38    37    2
    99    61    60    1
   100    43    41   ar
   101   150   151    1
   102   154   155    1
   103   105   106    1
   104   156   157    2
   105   156   155    1
   106    37    47   am
   107    63    60    1
   108    63    65    1
   109   112   110   ar
   110   109   110    1
   111   109   106    1
   112    80    79    1
   113   110   111   ar
   114   151   153    1
   115   106   107    1
   116    60    59    1
   117    47    48    1
   118    59    53   am
   119    48    49    1
   120   107   108    2
   121   107   113   am
   122   176   178   ar
   123   176   174   ar
   124    49    50    2
   125    49    51   am
   126   169   170    1
   127   171   172    2
   128   171   170    1
   129   178   179   ar
   130   197   195   am
   131   113   114    1
   132    51    52    1
   133    53    54    2
   134    53    52    1
   135   173   170    1
   136   173   174    1
   137   124   123    1
   138   195   196    2
   139   195   194    1
   140   174   175   ar
   141    57    56   ar
   142   123   122   ar
   143   123   121   ar
   144    52    55    1
   145   122   120   ar
   146   179   177   ar
   147   194   193    1
   148   121   119   ar
   149   188   186   am
   150   114   115    1
   151   114   117    1
   152   120   118   ar
   153   184   185    1
   154   184   181    1
   155   119   118   ar
   156   180   181    1
   157   193   190    1
   158   192   191    2
   159   115   116    2
   160   118   117    1
   161   175   177   ar
   162    56    55    1
   163    56    58   ar
   164   186   185    1
   165   186   187    2
   166   190   191    1
   167   190   189    1
   168   181   182    1
   169   182   183    2
   170    12    11    1
   171     9    11   ar
   172     9     7   ar
   173    11    10   ar
   174     7     6   ar
   175    10     8   ar
   176     6     8   ar
   177     6     5    1
   178    18    19    1
   179    18    17    1
   180    14    13    1
   181    14    17    1
   182    14    15    1
   183    19    20    1
   184     5     2    1
   185    16    15    2
   186     2     3    1
   187     2     1    1
   188     4     3    2
   189    22    21    1
   190    20    21    2
   191    21    23    1
