@<TRIPOS>MOLECULE
tmp/4ideA01.pdb
 104 99 0 0 0
SMALL
GASTEIGER

@<TRIPOS>ATOM
      1  N        -25.2760   22.7250   -0.9810 N.3    55  PRO55      -0.2102
      2  CA       -25.0150   24.1180   -1.2280 C.3    55  PRO55       0.1504
      3  C        -25.8540   25.0880   -0.4440 C.2    55  PRO55       0.2575
      4  O        -25.3770   26.1770   -0.0590 O.2    55  PRO55      -0.2718
      5  CB       -25.2060   24.2490   -2.7670 C.3    55  PRO55       0.0282
      6  CG       -24.8250   22.8900   -3.2290 C.3    55  PRO55       0.0208
      7  CD       -25.3960   21.9650   -2.2190 C.3    55  PRO55       0.0893
      8  N        -27.1090   24.7700   -0.1520 N.am   56  VAL56      -0.1980
      9  CA       -27.9400   25.6600    0.6400 C.3    56  VAL56       0.1595
     10  C        -27.2780   25.9880    1.9790 C.2    56  VAL56       0.2287
     11  O        -27.4540   27.0820    2.4980 O.2    56  VAL56      -0.2864
     12  CB       -29.3970   25.0770    0.8230 C.3    56  VAL56       0.0276
     13  CG1      -29.4560   23.8110    1.6350 C.3    56  VAL56       0.0022
     14  CG2      -30.3080   26.1220    1.4000 C.3    56  VAL56       0.0022
     15  N        -24.9110   28.8860    1.1880 N.3    59  LYS59      -0.1245
     16  CA       -25.6320   30.0470    0.6980 C.3    59  LYS59       0.1561
     17  C        -26.3870   30.6870    1.8790 C.2    59  LYS59       0.2260
     18  O        -26.3740   31.8560    2.0490 O.2    59  LYS59      -0.2867
     19  CB       -26.6110   29.6210   -0.4170 C.3    59  LYS59       0.0271
     20  CG       -25.8710   29.1230   -1.6570 C.3    59  LYS59       0.0035
     21  CD       -26.8250   28.7170   -2.7860 C.3    59  LYS59       0.0206
     22  CE       -26.0750   28.2800   -4.0190 C.3    59  LYS59       0.1093
     23  NZ       -27.0800   27.9600   -5.1000 N.3    59  LYS59      -0.1314
     24  N        -37.0120   24.8820    2.8420 N.3   108  ALA108     -0.1231
     25  CA       -35.5530   25.1330    2.9710 C.3   108  ALA108      0.1694
     26  C        -35.2570   26.6090    3.2590 C.2   108  ALA108      0.2591
     27  O        -34.2840   26.8770    3.9550 O.2   108  ALA108     -0.2718
     28  CB       -34.8970   24.7470    1.6800 C.3   108  ALA108      0.0304
     29  N        -35.9910   27.5240    2.6420 N.am  109  LEU109     -0.1980
     30  CA       -35.6880   28.9090    2.6530 C.3   109  LEU109      0.1596
     31  C        -36.5120   29.6910    3.6380 C.2   109  LEU109      0.2287
     32  O        -36.3370   30.8920    3.7500 O.2   109  LEU109     -0.2864
     33  CB       -35.7720   29.4880    1.2550 C.3   109  LEU109      0.0297
     34  CG       -34.9370   28.7740    0.2250 C.3   109  LEU109      0.0022
     35  CD1      -35.0240   29.4850   -1.1030 C.3   109  LEU109      0.0001
     36  CD2      -33.4830   28.4910    0.6090 C.3   109  LEU109      0.0001
     37  N        -32.0690   15.6010    0.8510 N.3   146  LEU146     -0.1245
     38  CA       -32.3500   16.8080    0.1370 C.3   146  LEU146      0.1561
     39  C        -32.1920   16.5980   -1.3920 C.2   146  LEU146      0.2260
     40  O        -33.0370   16.9840   -2.2150 O.2   146  LEU146     -0.2867
     41  CB       -31.4740   17.9590    0.6420 C.3   146  LEU146      0.0270
     42  CG       -31.9180   19.3770    0.2630 C.3   146  LEU146      0.0019
     43  CD1      -31.5260   20.3730    1.3580 C.3   146  LEU146      0.0001
     44  CD2      -31.3620   19.7940   -1.0590 C.3   146  LEU146      0.0001
     45  N        -35.2370   16.5810   -4.0830 N.3   150  THR150     -0.1218
     46  CA       -35.2120   17.6190   -5.1290 C.3   150  THR150      0.1862
     47  C        -35.2810   17.0040   -6.4890 C.2   150  THR150      0.2287
     48  O        -36.0640   17.5010   -7.3640 O.2   150  THR150     -0.2866
     49  CB       -33.9160   18.4780   -4.9580 C.3   150  THR150      0.1770
     50  OG1      -33.9190   19.1090   -3.6660 O.3   150  THR150     -0.2211
     51  CG2      -33.8830   19.5920   -6.0010 C.3   150  THR150      0.0375
     52  N        -33.7350   24.3460  -10.6210 N.3   253  ILE253     -0.1231
     53  CA       -33.5530   24.5760   -9.1970 C.3   253  ILE253      0.1692
     54  C        -32.5610   25.6980   -8.8930 C.2   253  ILE253      0.2592
     55  O        -32.2460   26.0340   -7.7190 O.2   253  ILE253     -0.2718
     56  CB       -33.1450   23.2680   -8.4980 C.3   253  ILE253      0.0266
     57  CG1      -31.8900   22.6710   -9.1180 C.3   253  ILE253      0.0019
     58  CG2      -34.3090   22.3130   -8.4540 C.3   253  ILE253      0.0020
     59  CD1      -31.3780   21.4100   -8.4030 C.3   253  ILE253      0.0001
     60  N        -32.1180   26.4160   -9.9260 N.am  254  VAL254     -0.1966
     61  CA       -31.2570   27.5240   -9.7980 C.3   254  VAL254      0.1727
     62  C        -31.8660   28.7180  -10.5310 C.2   254  VAL254      0.2616
     63  O        -31.9880   28.6960  -11.7450 O.2   254  VAL254     -0.2715
     64  CB       -29.8550   27.2170  -10.3800 C.3   254  VAL254      0.0290
     65  CG1      -28.9510   28.3940  -10.1460 C.3   254  VAL254      0.0023
     66  CG2      -29.2580   25.9890   -9.7270 C.3   254  VAL254      0.0023
     67  N        -32.1750   29.7720   -9.8000 N.am  255  GLY255     -0.1955
     68  CA       -33.0030   30.8560  -10.4380 C.3   255  GLY255      0.1869
     69  C        -32.1000   31.9910  -10.9110 C.2   255  GLY255      0.2309
     70  O        -30.9080   31.9820  -10.6270 O.2   255  GLY255     -0.2863
     71  N        -38.8720   27.7650  -11.8520 N.3   263  LEU263     -0.1231
     72  CA       -38.0130   27.4780  -10.6800 C.3   263  LEU263      0.1693
     73  C        -38.9220   27.0140   -9.5470 C.2   263  LEU263      0.2592
     74  O        -39.9920   27.5790   -9.3480 O.2   263  LEU263     -0.2718
     75  CB       -37.3610   28.7550  -10.2850 C.3   263  LEU263      0.0284
     76  CG       -36.6440   28.8710   -8.8970 C.3   263  LEU263      0.0019
     77  CD1      -35.3960   27.9860   -8.9560 C.3   263  LEU263      0.0001
     78  CD2      -36.3320   30.2240   -8.4540 C.3   263  LEU263      0.0001
     79  N        -38.4370   26.0560   -8.7800 N.am  264  PHE264     -0.1962
     80  CA       -39.1260   25.6550   -7.5430 C.3   264  PHE264      0.1771
     81  C        -38.0680   25.4350   -6.5060 C.2   264  PHE264      0.2619
     82  O        -36.8730   25.3270   -6.7920 O.2   264  PHE264     -0.2715
     83  CB       -39.9450   24.3650   -7.7210 C.3   264  PHE264      0.0574
     84  CG       -39.1060   23.1390   -7.8150 C.ar  264  PHE264     -0.0200
     85  CD1      -38.4720   22.7710   -9.0030 C.ar  264  PHE264     -0.0042
     86  CD2      -38.9550   22.3100   -6.7070 C.ar  264  PHE264     -0.0042
     87  CE1      -37.6610   21.6560   -9.0700 C.ar  264  PHE264     -0.0003
     88  CE2      -38.1970   21.1760   -6.7840 C.ar  264  PHE264     -0.0003
     89  CZ       -37.5090   20.8260   -7.9760 C.ar  264  PHE264     -0.0000
     90  N        -38.5110   25.3940   -5.2440 N.am  265  VAL265     -0.1963
     91  CA       -37.6760   24.9940   -4.1060 C.3   265  VAL265      0.1727
     92  C        -38.3630   23.7660   -3.5130 C.2   265  VAL265      0.2616
     93  O        -39.5960   23.7800   -3.3220 O.2   265  VAL265     -0.2715
     94  CB       -37.5340   26.0760   -3.0580 C.3   265  VAL265      0.0290
     95  CG1      -36.7540   25.5800   -1.8500 C.3   265  VAL265      0.0023
     96  CG2      -36.8550   27.3140   -3.6650 C.3   265  VAL265      0.0023
     97  N        -37.6220   22.7120   -3.2580 N.am  266  LEU266     -0.1977
     98  CA       -38.2560   21.4530   -2.8010 C.3   266  LEU266      0.1596
     99  C        -38.9990   21.6740   -1.4870 C.2   266  LEU266      0.2287
    100  O        -38.6930   22.5520   -0.6950 O.2   266  LEU266     -0.2864
    101  CB       -37.3130   20.3200   -2.5920 C.3   266  LEU266      0.0297
    102  CG       -36.6220   20.1820   -1.2140 C.3   266  LEU266      0.0022
    103  CD1      -36.1020   18.8320   -0.9090 C.3   266  LEU266      0.0001
    104  CD2      -35.5400   21.1800   -1.1520 C.3   266  LEU266      0.0001
@<TRIPOS>BOND
     1    71    72    1
     2    63    62    2
     3    69    70    2
     4    69    68    1
     5    72    75    1
     6    72    73    1
     7    52    53    1
     8    62    67   am
     9    62    61    1
    10    68    67    1
    11    64    65    1
    12    64    61    1
    13    64    66    1
    14    75    76    1
    15    60    61    1
    16    60    54   am
    17    73    74    2
    18    73    79   am
    19    53    54    1
    20    53    56    1
    21    57    56    1
    22    57    59    1
    23    87    85   ar
    24    87    89   ar
    25    85    84   ar
    26    77    76    1
    27    76    78    1
    28    54    55    2
    29    79    80    1
    30    56    58    1
    31    89    88   ar
    32    84    83    1
    33    84    86   ar
    34    83    80    1
    35    80    81    1
    36    48    47    2
    37    82    81    2
    38    88    86   ar
    39    81    90   am
    40    47    46    1
    41    51    49    1
    42    90    91    1
    43    46    49    1
    44    46    45    1
    45    23    22    1
    46    49    50    1
    47    91    92    1
    48    91    94    1
    49    22    21    1
    50    96    94    1
    51    92    93    2
    52    92    97   am
    53    97    98    1
    54     6     5    1
    55     6     7    1
    56    94    95    1
    57    98   101    1
    58    98    99    1
    59    21    20    1
    60     5     2    1
    61   101   102    1
    62     7     1    1
    63    40    39    2
    64    20    19    1
    65    99   100    2
    66    39    38    1
    67     2     1    1
    68     2     3    1
    69   102   104    1
    70   102   103    1
    71    35    34    1
    72    44    42    1
    73     3     8   am
    74     3     4    2
    75    19    16    1
    76     8     9    1
    77    38    41    1
    78    38    37    1
    79    34    36    1
    80    34    33    1
    81    42    41    1
    82    42    43    1
    83     9    12    1
    84     9    10    1
    85    16    15    1
    86    16    17    1
    87    12    14    1
    88    12    13    1
    89    33    30    1
    90    28    25    1
    91    17    18    2
    92    10    11    2
    93    29    30    1
    94    29    26   am
    95    30    31    1
    96    24    25    1
    97    25    26    1
    98    26    27    2
    99    31    32    2
