@<TRIPOS>MOLECULE
tmp/4idfA01.pdb
 104 100 0 0 0
SMALL
GASTEIGER

@<TRIPOS>ATOM
      1  N        -25.8790   22.5380   -0.8970 N.3    55  PRO55      -0.2102
      2  CA       -25.6010   23.9120   -1.2070 C.3    55  PRO55       0.1504
      3  C        -26.4620   24.8980   -0.4550 C.2    55  PRO55       0.2575
      4  O        -26.0070   25.9500   -0.0860 O.2    55  PRO55      -0.2718
      5  CB       -25.7650   23.9580   -2.7210 C.3    55  PRO55       0.0282
      6  CG       -25.3790   22.5600   -3.1480 C.3    55  PRO55       0.0208
      7  CD       -26.0130   21.7290   -2.1340 C.3    55  PRO55       0.0893
      8  N        -27.6950   24.5410   -0.1520 N.am   56  VAL56      -0.1980
      9  CA       -28.5540   25.4280    0.6220 C.3    56  VAL56       0.1595
     10  C        -27.9050   25.7910    1.9680 C.2    56  VAL56       0.2287
     11  O        -28.1000   26.9250    2.4530 O.2    56  VAL56      -0.2864
     12  CB       -29.9790   24.8180    0.8240 C.3    56  VAL56       0.0276
     13  CG1      -30.0050   23.5710    1.6630 C.3    56  VAL56       0.0022
     14  CG2      -30.8900   25.9010    1.3880 C.3    56  VAL56       0.0022
     15  N        -25.5170   28.6820    1.0810 N.3    59  LYS59      -0.1245
     16  CA       -26.2470   29.8660    0.5770 C.3    59  LYS59       0.1561
     17  C        -26.9910   30.5310    1.7670 C.2    59  LYS59       0.2260
     18  O        -26.9870   31.7290    1.9370 O.2    59  LYS59      -0.2867
     19  CB       -27.2120   29.4160   -0.5320 C.3    59  LYS59       0.0271
     20  CG       -26.5160   28.9260   -1.7990 C.3    59  LYS59       0.0035
     21  CD       -27.5330   28.4770   -2.8390 C.3    59  LYS59       0.0206
     22  CE       -26.9000   28.0620   -4.1160 C.3    59  LYS59       0.1093
     23  NZ       -27.9280   27.7360   -5.1900 N.3    59  LYS59      -0.1314
     24  N        -31.1820   34.0190    2.3120 N.3    65  PHE65      -0.1241
     25  CA       -32.6050   33.7850    2.6140 C.3    65  PHE65       0.1605
     26  C        -32.9000   34.4820    3.9620 C.2    65  PHE65       0.2264
     27  O        -33.8260   34.0740    4.6980 O.2    65  PHE65      -0.2867
     28  CB       -32.8650   32.2450    2.6550 C.3    65  PHE65       0.0534
     29  CG       -32.2830   31.5020    1.4810 C.ar   65  PHE65      -0.0203
     30  CD1      -32.6860   31.8370    0.1730 C.ar   65  PHE65      -0.0042
     31  CD2      -31.3530   30.5070    1.6210 C.ar   65  PHE65      -0.0042
     32  CE1      -32.1650   31.2000   -0.9760 C.ar   65  PHE65      -0.0003
     33  CE2      -30.8300   29.8830    0.4930 C.ar   65  PHE65      -0.0003
     34  CZ       -31.2220   30.2000   -0.7940 C.ar   65  PHE65      -0.0000
     35  N        -37.5340   24.6910    2.9050 N.3   108  ALA108     -0.1231
     36  CA       -36.1310   24.9870    3.0470 C.3   108  ALA108      0.1694
     37  C        -35.8130   26.4200    3.3120 C.2   108  ALA108      0.2591
     38  O        -34.8110   26.6940    4.0190 O.2   108  ALA108     -0.2718
     39  CB       -35.3340   24.5640    1.7940 C.3   108  ALA108      0.0304
     40  N        -36.5230   27.3210    2.6990 N.am  109  LEU109     -0.1980
     41  CA       -36.1570   28.7230    2.7610 C.3   109  LEU109      0.1596
     42  C        -37.0380   29.5050    3.7240 C.2   109  LEU109      0.2287
     43  O        -36.8230   30.6950    3.8380 O.2   109  LEU109     -0.2864
     44  CB       -36.1870   29.3980    1.3770 C.3   109  LEU109      0.0297
     45  CG       -35.4940   28.5990    0.2610 C.3   109  LEU109      0.0022
     46  CD1      -35.5640   29.3380   -1.0430 C.3   109  LEU109      0.0001
     47  CD2      -34.1000   28.1990    0.6430 C.3   109  LEU109      0.0001
     48  N        -32.6320   15.4050    1.0180 N.3   146  LEU146     -0.1245
     49  CA       -32.8910   16.6230    0.2840 C.3   146  LEU146      0.1561
     50  C        -32.7160   16.3370   -1.2260 C.2   146  LEU146      0.2260
     51  O        -33.5920   16.7270   -2.0240 O.2   146  LEU146     -0.2867
     52  CB       -32.0190   17.7570    0.8360 C.3   146  LEU146      0.0270
     53  CG       -32.4400   19.1370    0.3810 C.3   146  LEU146      0.0019
     54  CD1      -31.9850   20.2030    1.4090 C.3   146  LEU146      0.0001
     55  CD2      -31.9270   19.5280   -0.9850 C.3   146  LEU146      0.0001
     56  N        -34.1930   24.0250  -10.5110 N.3   253  ILE253     -0.1231
     57  CA       -33.9920   24.2430   -9.0780 C.3   253  ILE253      0.1692
     58  C        -33.0740   25.4230   -8.8020 C.2   253  ILE253      0.2591
     59  O        -32.7860   25.6890   -7.6460 O.2   253  ILE253     -0.2718
     60  CB       -33.6020   22.9800   -8.3900 C.3   253  ILE253      0.0266
     61  CG1      -32.3680   22.2610   -8.9880 C.3   253  ILE253      0.0019
     62  CG2      -34.7840   22.0000   -8.3300 C.3   253  ILE253      0.0020
     63  CD1      -31.9100   21.0670   -8.2130 C.3   253  ILE253      0.0001
     64  N        -32.6230   26.1230   -9.8460 N.am  254  VAL254     -0.1980
     65  CA       -31.7220   27.2460   -9.7310 C.3   254  VAL254      0.1595
     66  C        -32.3170   28.3880  -10.5330 C.2   254  VAL254      0.2287
     67  O        -32.3380   28.3310  -11.7350 O.2   254  VAL254     -0.2864
     68  CB       -30.2870   26.9340  -10.1970 C.3   254  VAL254      0.0276
     69  CG1      -29.3950   28.1190   -9.9780 C.3   254  VAL254      0.0022
     70  CG2      -29.7340   25.7030   -9.4790 C.3   254  VAL254      0.0022
     71  N        -39.3510   27.4190  -11.7650 N.3   263  LEU263     -0.1231
     72  CA       -38.5040   27.1910  -10.5850 C.3   263  LEU263      0.1693
     73  C        -39.3910   26.7430   -9.4430 C.2   263  LEU263      0.2592
     74  O        -40.4740   27.2960   -9.2770 O.2   263  LEU263     -0.2718
     75  CB       -37.8310   28.4960  -10.1470 C.3   263  LEU263      0.0284
     76  CG       -37.1430   28.4910   -8.7730 C.3   263  LEU263      0.0019
     77  CD1      -35.8910   27.6020   -8.8130 C.3   263  LEU263      0.0001
     78  CD2      -36.7800   29.9250   -8.3540 C.3   263  LEU263      0.0001
     79  N        -38.9840   25.7390   -8.6920 N.am  264  PHE264     -0.1962
     80  CA       -39.6240   25.3510   -7.4520 C.3   264  PHE264      0.1771
     81  C        -38.5460   25.1470   -6.4070 C.2   264  PHE264      0.2619
     82  O        -37.3270   25.0280   -6.7210 O.2   264  PHE264     -0.2715
     83  CB       -40.4590   24.0790   -7.6390 C.3   264  PHE264      0.0574
     84  CG       -39.6300   22.8090   -7.7010 C.ar  264  PHE264     -0.0200
     85  CD1      -38.9770   22.4680   -8.8840 C.ar  264  PHE264     -0.0042
     86  CD2      -39.4810   21.9820   -6.5740 C.ar  264  PHE264     -0.0042
     87  CE1      -38.1760   21.3460   -8.9460 C.ar  264  PHE264     -0.0003
     88  CE2      -38.6120   20.8700   -6.6530 C.ar  264  PHE264     -0.0003
     89  CZ       -38.0170   20.5550   -7.8580 C.ar  264  PHE264     -0.0000
     90  N        -39.0060   25.0900   -5.1700 N.am  265  VAL265     -0.1963
     91  CA       -38.1980   24.7070   -4.0370 C.3   265  VAL265      0.1727
     92  C        -38.9250   23.5190   -3.3860 C.2   265  VAL265      0.2616
     93  O        -40.1490   23.5390   -3.1810 O.2   265  VAL265     -0.2715
     94  CB       -37.9860   25.8430   -2.9920 C.3   265  VAL265      0.0290
     95  CG1      -37.2670   25.3480   -1.7490 C.3   265  VAL265      0.0023
     96  CG2      -37.2500   26.9780   -3.6130 C.3   265  VAL265      0.0023
     97  N        -38.1790   22.4110   -3.1710 N.am  266  LEU266     -0.1977
     98  CA       -38.7920   21.2010   -2.6720 C.3   266  LEU266      0.1596
     99  C        -39.5390   21.4250   -1.3640 C.2   266  LEU266      0.2287
    100  O        -39.2460   22.3500   -0.5950 O.2   266  LEU266     -0.2864
    101  CB       -37.7830   20.0610   -2.4550 C.3   266  LEU266      0.0297
    102  CG       -37.1420   19.9920   -1.0730 C.3   266  LEU266      0.0022
    103  CD1      -36.6520   18.5740   -0.7420 C.3   266  LEU266      0.0001
    104  CD2      -35.9660   20.9740   -1.0140 C.3   266  LEU266      0.0001
@<TRIPOS>BOND
     1    71    72    1
     2    67    66    2
     3    72    75    1
     4    72    73    1
     5    66    65    1
     6    56    57    1
     7    68    69    1
     8    68    65    1
     9    68    70    1
    10    75    76    1
    11    64    65    1
    12    64    58   am
    13    73    74    2
    14    73    79   am
    15    57    58    1
    16    57    60    1
    17    61    60    1
    18    61    63    1
    19    87    85   ar
    20    87    89   ar
    21    85    84   ar
    22    77    76    1
    23    58    59    2
    24    76    78    1
    25    79    80    1
    26    60    62    1
    27    89    88   ar
    28    84    83    1
    29    84    86   ar
    30    83    80    1
    31    80    81    1
    32    82    81    2
    33    88    86   ar
    34    81    90   am
    35    23    22    1
    36    90    91    1
    37    22    21    1
    38    91    92    1
    39    91    94    1
    40    96    94    1
    41    92    93    2
    42    92    97   am
    43    97    98    1
    44     6     5    1
    45     6     7    1
    46    94    95    1
    47    21    20    1
    48     5     2    1
    49    98   101    1
    50    98    99    1
    51   101   102    1
    52     7     1    1
    53    51    50    2
    54    20    19    1
    55    99   100    2
    56    50    49    1
    57     2     1    1
    58     2     3    1
    59   102   104    1
    60   102   103    1
    61    46    45    1
    62    55    53    1
    63    32    34   ar
    64    32    30   ar
    65    34    33   ar
    66    19    16    1
    67     3     8   am
    68     3     4    2
    69     8     9    1
    70    30    29   ar
    71    45    47    1
    72    45    44    1
    73    49    52    1
    74    49    48    1
    75    53    52    1
    76    53    54    1
    77    33    31   ar
    78    16    15    1
    79    16    17    1
    80     9    12    1
    81     9    10    1
    82    12    14    1
    83    12    13    1
    84    44    41    1
    85    29    31   ar
    86    29    28    1
    87    17    18    2
    88    39    36    1
    89    10    11    2
    90    24    25    1
    91    25    28    1
    92    25    26    1
    93    40    41    1
    94    40    37   am
    95    41    42    1
    96    35    36    1
    97    36    37    1
    98    37    38    2
    99    42    43    2
   100    26    27    2
