@<TRIPOS>MOLECULE
tmp/4idkA01.pdb
 110 109 0 0 0
SMALL
GASTEIGER

@<TRIPOS>ATOM
      1  N         36.5240   -8.4680    1.2740 N.3   398  GLU398     -0.1231
      2  CA        35.9680   -7.2890    0.6010 C.3   398  GLU398      0.1699
      3  C         34.8910   -6.6120    1.4420 C.2   398  GLU398      0.2592
      4  O         34.7890   -5.3820    1.4750 O.2   398  GLU398     -0.2718
      5  CB        35.4060   -7.6630   -0.7770 C.3   398  GLU398      0.0402
      6  CG        34.6830   -6.5250   -1.4970 C.3   398  GLU398      0.1161
      7  CD        34.1220   -6.9390   -2.8590 C.2   398  GLU398      0.3649
      8  OE1       34.2890   -8.1170   -3.2490 O.co2 398  GLU398     -0.2457
      9  OE2       33.5110   -6.0840   -3.5360 O.co2 398  GLU398     -0.2457
     10  N         34.0900   -7.4140    2.1280 N.am  399  THR399     -0.1953
     11  CA        33.0840   -6.8760    3.0350 C.3   399  THR399      0.1897
     12  C         33.7400   -6.0670    4.1520 C.2   399  THR399      0.2313
     13  O         33.3230   -4.9470    4.4610 O.2   399  THR399     -0.2863
     14  CB        32.2600   -8.0090    3.6740 C.3   399  THR399      0.1794
     15  OG1       31.5910   -8.7440    2.6470 O.3   399  THR399     -0.2208
     16  CG2       31.2310   -7.4520    4.6720 C.3   399  THR399      0.0378
     17  N         35.1360   -2.7780    2.7120 N.3   402  THR402     -0.1218
     18  CA        34.0710   -1.8180    2.4700 C.3   402  THR402      0.1862
     19  C         33.6230   -1.2380    3.8070 C.2   402  THR402      0.2287
     20  O         33.4040   -0.0320    3.9300 O.2   402  THR402     -0.2866
     21  CB        32.8620   -2.4660    1.7620 C.3   402  THR402      0.1770
     22  OG1       33.2790   -3.0400    0.5190 O.3   402  THR402     -0.2211
     23  CG2       31.7820   -1.4330    1.4870 C.3   402  THR402      0.0375
     24  N         27.6840  -10.0640    6.5440 N.3   426  LYS426     -0.1231
     25  CA        27.7570   -9.2210    5.3610 C.3   426  LYS426      0.1693
     26  C         27.2300   -7.8410    5.6910 C.2   426  LYS426      0.2592
     27  O         26.6640   -7.6300    6.7620 O.2   426  LYS426     -0.2718
     28  CB        26.9650   -9.8240    4.1920 C.3   426  LYS426      0.0285
     29  CG        25.5750  -10.3100    4.5520 C.3   426  LYS426      0.0035
     30  CD        24.7990  -10.7250    3.3090 C.3   426  LYS426      0.0206
     31  CE        24.1760   -9.5180    2.6140 C.3   426  LYS426      0.1093
     32  NZ        23.4800   -9.8790    1.3470 N.3   426  LYS426     -0.1314
     33  N         27.4530   -6.8940    4.7850 N.am  427  LEU427     -0.1966
     34  CA        26.7640   -5.6100    4.8470 C.3   427  LEU427      0.1728
     35  C         25.4210   -5.7480    4.1260 C.2   427  LEU427      0.2616
     36  O         25.3730   -6.1410    2.9660 O.2   427  LEU427     -0.2715
     37  CB        27.5920   -4.5320    4.1720 C.3   427  LEU427      0.0311
     38  CG        29.0240   -4.4310    4.6760 C.3   427  LEU427      0.0022
     39  CD1       29.7010   -3.2330    4.0420 C.3   427  LEU427      0.0001
     40  CD2       29.0190   -4.3210    6.1880 C.3   427  LEU427      0.0001
     41  N         24.3400   -5.4350    4.8270 N.am  428  TRP428     -0.1960
     42  CA        22.9900   -5.5060    4.2790 C.3   428  TRP428      0.1771
     43  C         22.6320   -4.3010    3.4110 C.2   428  TRP428      0.2620
     44  O         21.8780   -4.4370    2.4630 O.2   428  TRP428     -0.2715
     45  CB        21.9730   -5.7190    5.4020 C.3   428  TRP428      0.0590
     46  CG        22.0930   -7.0870    5.9930 C.ar  428  TRP428      0.0006
     47  CD1       22.8520   -7.4570    7.0700 C.ar  428  TRP428      0.0946
     48  CD2       21.4650   -8.2810    5.5180 C.ar  428  TRP428      0.0152
     49  NE1       22.7210   -8.8100    7.3010 N.ar  428  TRP428     -0.2442
     50  CE2       21.8750   -9.3370    6.3620 C.ar  428  TRP428      0.0810
     51  CE3       20.5950   -8.5630    4.4650 C.ar  428  TRP428      0.0012
     52  CZ2       21.4370  -10.6480    6.1830 C.ar  428  TRP428      0.0191
     53  CZ3       20.1620   -9.8620    4.2930 C.ar  428  TRP428      0.0001
     54  CH2       20.5830  -10.8880    5.1460 C.ar  428  TRP428      0.0015
     55  N         23.1870   -3.1320    3.7290 N.am  429  TYR429     -0.1960
     56  CA        23.0460   -1.9520    2.8680 C.3   429  TYR429      0.1771
     57  C         24.2610   -1.0420    3.0040 C.2   429  TYR429      0.2619
     58  O         24.9470   -1.0800    4.0050 O.2   429  TYR429     -0.2715
     59  CB        21.7690   -1.1520    3.2060 C.3   429  TYR429      0.0574
     60  CG        21.7300   -0.6520    4.6370 C.ar  429  TYR429     -0.0198
     61  CD1       22.2890    0.5720    4.9890 C.ar  429  TYR429     -0.0009
     62  CD2       21.1470   -1.4150    5.6330 C.ar  429  TYR429     -0.0009
     63  CE1       22.2580    1.0230    6.3050 C.ar  429  TYR429      0.0417
     64  CE2       21.1100   -0.9780    6.9450 C.ar  429  TYR429      0.0417
     65  CZ        21.6700    0.2320    7.2770 C.ar  429  TYR429      0.1957
     66  OH        21.6320    0.6380    8.5860 O.3   429  TYR429     -0.2866
     67  N         24.5120   -0.2310    1.9840 N.am  430  GLN430     -0.1963
     68  CA        25.4550    0.8820    2.0490 C.3   430  GLN430      0.1733
     69  C         24.8430    2.0850    1.3220 C.2   430  GLN430      0.2616
     70  O         24.4420    1.9770    0.1680 O.2   430  GLN430     -0.2715
     71  CB        26.7930    0.5050    1.3810 C.3   430  GLN430      0.0408
     72  CG        27.6370   -0.5210    2.1640 C.3   430  GLN430      0.0908
     73  CD        28.2440    0.0560    3.4430 C.2   430  GLN430      0.2608
     74  OE1       29.3000    0.6970    3.4060 O.2   430  GLN430     -0.2717
     75  NE2       27.5740   -0.1680    4.5800 N.am  430  GLN430     -0.0878
     76  N         24.7900    3.2310    1.9910 N.am  431  LEU431     -0.1963
     77  CA        24.2410    4.4410    1.3950 C.3   431  LEU431      0.1728
     78  C         25.2210    5.0540    0.3990 C.2   431  LEU431      0.2616
     79  O         26.4260    4.8540    0.5050 O.2   431  LEU431     -0.2715
     80  CB        23.9090    5.4570    2.4860 C.3   431  LEU431      0.0311
     81  CG        22.9440    4.9450    3.5610 C.3   431  LEU431      0.0022
     82  CD1       22.4340    6.0840    4.4230 C.3   431  LEU431      0.0001
     83  CD2       21.7880    4.1760    2.9420 C.3   431  LEU431      0.0001
     84  N         24.6830    5.8060   -0.5570 N.am  432  GLU432     -0.1977
     85  CA        25.4540    6.5070   -1.5790 C.3   432  GLU432      0.1602
     86  C         26.2620    7.6490   -0.9700 C.2   432  GLU432      0.2287
     87  O         25.8620    8.2220    0.0390 O.2   432  GLU432     -0.2864
     88  CB        24.5060    7.0940   -2.6350 C.3   432  GLU432      0.0415
     89  CG        23.6990    6.0600   -3.4080 C.3   432  GLU432      0.1163
     90  CD        24.5930    5.0060   -4.0340 C.2   432  GLU432      0.3649
     91  OE1       25.4950    5.3870   -4.8070 O.co2 432  GLU432     -0.2457
     92  OE2       24.4110    3.8040   -3.7290 O.co2 432  GLU432     -0.2457
     93  N         18.2780   -0.5960   -4.5070 N.3   531  GLU531     -0.1231
     94  CA        19.5870   -0.5770   -5.1700 C.3   531  GLU531      0.1699
     95  C         20.4810    0.6020   -4.7700 C.2   531  GLU531      0.2592
     96  O         21.6680    0.4220   -4.5470 O.2   531  GLU531     -0.2718
     97  CB        19.4280   -0.6670   -6.6890 C.3   531  GLU531      0.0402
     98  CG        18.9750   -2.0490   -7.1460 C.3   531  GLU531      0.1161
     99  CD        18.5210   -2.0660   -8.5860 C.2   531  GLU531      0.3649
    100  OE1       18.6440   -1.0230   -9.2620 O.co2 531  GLU531     -0.2457
    101  OE2       18.0340   -3.1200   -9.0430 O.co2 531  GLU531     -0.2457
    102  N         19.9120    1.8050   -4.6920 N.am  532  LYS532     -0.1980
    103  CA        20.6770    2.9960   -4.2940 C.3   532  LYS532      0.1596
    104  C         19.8380    3.9160   -3.4170 C.2   532  LYS532      0.2287
    105  O         18.6770    4.2080   -3.7400 O.2   532  LYS532     -0.2864
    106  CB        21.1680    3.7910   -5.5070 C.3   532  LYS532      0.0298
    107  CG        22.1950    3.1000   -6.4080 C.3   532  LYS532      0.0038
    108  CD        22.5950    4.0520   -7.5330 C.3   532  LYS532      0.0206
    109  CE        23.6670    3.4820   -8.4390 C.3   532  LYS532      0.1093
    110  NZ        24.0200    4.4600   -9.5220 N.3   532  LYS532     -0.1314
@<TRIPOS>BOND
     1   110   109    1
     2   100    99   ar
     3   101    99   ar
     4    99    98    1
     5   109   108    1
     6   108   107    1
     7    98    97    1
     8    97    94    1
     9   107   106    1
    10   106   103    1
    11    94    95    1
    12    94    93    1
    13    91    90   ar
    14    95   102   am
    15    95    96    2
    16   102   103    1
    17   103   104    1
    18    90    92   ar
    19    90    89    1
    20   105   104    2
    21     9     7   ar
    22    89    88    1
    23     8     7   ar
    24     7     6    1
    25    88    85    1
    26    85    86    1
    27    85    84    1
    28     6     5    1
    29    86    87    2
    30     5     2    1
    31    84    78   am
    32    70    69    2
    33    78    79    2
    34    78    77    1
    35    22    21    1
    36     2     1    1
    37     2     3    1
    38    69    76   am
    39    69    68    1
    40    32    31    1
    41    71    68    1
    42    71    72    1
    43    77    76    1
    44    77    80    1
    45     3     4    2
    46     3    10   am
    47    23    21    1
    48    21    18    1
    49    67    68    1
    50    67    57   am
    51    10    11    1
    52    72    73    1
    53    44    43    2
    54    18    17    1
    55    18    19    1
    56    80    81    1
    57    31    30    1
    58    15    14    1
    59    56    57    1
    60    56    59    1
    61    56    55    1
    62    83    81    1
    63    36    35    2
    64    57    58    2
    65    11    14    1
    66    11    12    1
    67    59    60    1
    68    30    29    1
    69    74    73    2
    70    43    55   am
    71    43    42    1
    72    73    75   am
    73    81    82    1
    74    14    16    1
    75    19    20    2
    76    39    38    1
    77    35    41   am
    78    35    34    1
    79    12    13    2
    80    37    38    1
    81    37    34    1
    82    28    29    1
    83    28    25    1
    84    42    41    1
    85    42    45    1
    86    53    51   ar
    87    53    54   ar
    88    51    48   ar
    89    60    61   ar
    90    60    62   ar
    91    38    40    1
    92    33    34    1
    93    33    26   am
    94    61    63   ar
    95    54    52   ar
    96    25    26    1
    97    25    24    1
    98    45    46    1
    99    48    46   ar
   100    48    50   ar
   101    62    64   ar
   102    26    27    2
   103    46    47   ar
   104    52    50   ar
   105    63    65   ar
   106    50    49   ar
   107    64    65   ar
   108    47    49   ar
   109    65    66    1
