@<TRIPOS>MOLECULE
tmp/4idnB00.pdb
 219 218 0 0 0
SMALL
GASTEIGER

@<TRIPOS>ATOM
      1  N         34.9900   -2.6450  -30.0140 N.3    46  PHE46      -0.1227
      2  CA        36.4400   -2.4040  -30.0180 C.3    46  PHE46       0.1736
      3  C         36.9340   -1.8170  -31.3470 C.2    46  PHE46       0.2595
      4  O         36.2610   -1.9570  -32.3770 O.2    46  PHE46      -0.2718
      5  CB        37.2520   -3.6510  -29.6070 C.3    46  PHE46       0.0547
      6  CG        37.2900   -4.7470  -30.6460 C.ar   46  PHE46      -0.0202
      7  CD1       36.1180   -5.2530  -31.2070 C.ar   46  PHE46      -0.0042
      8  CD2       38.5070   -5.2890  -31.0480 C.ar   46  PHE46      -0.0042
      9  CE1       36.1650   -6.2740  -32.1600 C.ar   46  PHE46      -0.0003
     10  CE2       38.5660   -6.2950  -32.0020 C.ar   46  PHE46      -0.0003
     11  CZ        37.3970   -6.7930  -32.5570 C.ar   46  PHE46      -0.0000
     12  N         38.0830   -1.1340  -31.2960 N.am   47  ARG47      -0.1966
     13  CA        38.7500   -0.5720  -32.4820 C.3    47  ARG47       0.1729
     14  C         37.9800    0.5640  -33.1860 C.2    47  ARG47       0.2616
     15  O         38.2190    0.8270  -34.3650 O.2    47  ARG47      -0.2715
     16  CB        39.0590   -1.6640  -33.5230 C.3    47  ARG47       0.0348
     17  CG        39.7610   -2.8910  -33.0020 C.3    47  ARG47       0.0492
     18  CD        41.2430   -2.6840  -32.8850 C.3    47  ARG47       0.2205
     19  NE        41.5680   -1.9650  -31.6600 N.pl3  47  ARG47      -0.0865
     20  CZ        42.5620   -1.0960  -31.5550 C.cat  47  ARG47       0.5346
     21  NH1       43.3380   -0.8490  -32.6020 N.pl3  47  ARG47       0.1354
     22  NH2       42.7820   -0.4740  -30.4060 N.pl3  47  ARG47       0.1354
     23  N         37.0730    1.2410  -32.4850 N.am   48  LYS48      -0.1963
     24  CA        36.2580    2.2710  -33.1400 C.3    48  LYS48       0.1728
     25  C         36.6590    3.7160  -32.8390 C.2    48  LYS48       0.2617
     26  O         36.0130    4.6450  -33.3210 O.2    48  LYS48      -0.2715
     27  CB        34.7720    2.0780  -32.8310 C.3    48  LYS48       0.0311
     28  CG        34.1710    0.8070  -33.4270 C.3    48  LYS48       0.0038
     29  CD        34.5200    0.6700  -34.9010 C.3    48  LYS48       0.0206
     30  CE        33.9130   -0.6150  -35.4640 C.3    48  LYS48       0.1093
     31  NZ        34.3780   -0.8710  -36.8510 N.3    48  LYS48      -0.1314
     32  N         37.7060    3.9110  -32.0420 N.am   49  GLY49      -0.1940
     33  CA        38.2150    5.2510  -31.8040 C.3    49  GLY49       0.2014
     34  C         37.7670    5.8500  -30.4850 C.2    49  GLY49       0.2639
     35  O         37.6630    7.0810  -30.3500 O.2    49  GLY49      -0.2714
     36  N         37.5120    4.9810  -29.5050 N.am   50  LYS50      -0.1963
     37  CA        37.0510    5.4310  -28.1970 C.3    50  LYS50       0.1728
     38  C         38.1670    6.1600  -27.4380 C.2    50  LYS50       0.2617
     39  O         37.9940    7.3130  -27.0320 O.2    50  LYS50      -0.2715
     40  CB        36.4840    4.2510  -27.3870 C.3    50  LYS50       0.0311
     41  CG        35.3220    3.5090  -28.0940 C.3    50  LYS50       0.0038
     42  CD        34.6090    2.5300  -27.1530 C.3    50  LYS50       0.0206
     43  CE        35.5510    1.4280  -26.6540 C.3    50  LYS50       0.1093
     44  NZ        36.1620    0.6280  -27.7720 N.3    50  LYS50      -0.1314
     45  N         39.3120    5.4970  -27.2710 N.am   51  SER51      -0.1936
     46  CA        40.4420    6.0750  -26.5360 C.3    51  SER51       0.2055
     47  C         40.9470    7.3440  -27.2220 C.2    51  SER51       0.2643
     48  O         41.2440    8.3510  -26.5730 O.2    51  SER51      -0.2714
     49  CB        41.5700    5.0540  -26.4370 C.3    51  SER51       0.2130
     50  OG        41.1260    3.8980  -25.7590 O.3    51  SER51      -0.2179
     51  N         41.0250    7.2690  -28.5480 N.am   52  PHE52      -0.1973
     52  CA        41.3580    8.3990  -29.3980 C.3    52  PHE52       0.1639
     53  C         40.4970    9.6140  -29.0330 C.2    52  PHE52       0.2290
     54  O         41.0220   10.6930  -28.7280 O.2    52  PHE52      -0.2864
     55  CB        41.1320    7.9740  -30.8480 C.3    52  PHE52       0.0560
     56  CG        41.5060    9.0070  -31.8630 C.ar   52  PHE52      -0.0200
     57  CD1       42.7860    9.0420  -32.3970 C.ar   52  PHE52      -0.0042
     58  CD2       40.5630    9.9200  -32.3210 C.ar   52  PHE52      -0.0042
     59  CE1       43.1220    9.9850  -33.3520 C.ar   52  PHE52      -0.0003
     60  CE2       40.8950   10.8600  -33.2760 C.ar   52  PHE52      -0.0003
     61  CZ        42.1760   10.8930  -33.7890 C.ar   52  PHE52      -0.0000
     62  N         45.9490    5.0600  -23.8580 N.3    81  SER81      -0.1202
     63  CA        46.6580    4.3960  -24.9430 C.3    81  SER81       0.2020
     64  C         45.7250    4.0870  -26.1130 C.2    81  SER81       0.2619
     65  O         44.6160    3.5680  -25.9240 O.2    81  SER81      -0.2717
     66  CB        47.3070    3.1120  -24.4190 C.3    81  SER81       0.2103
     67  OG        47.7900    2.3150  -25.4880 O.3    81  SER81      -0.2182
     68  N         46.1640    4.4330  -27.3210 N.am   82  TRP82      -0.1961
     69  CA        45.4210    4.0870  -28.5380 C.3    82  TRP82       0.1771
     70  C         46.4110    3.7050  -29.6360 C.2    82  TRP82       0.2619
     71  O         47.5870    4.0710  -29.5760 O.2    82  TRP82      -0.2715
     72  CB        44.5860    5.2690  -29.0090 C.3    82  TRP82       0.0590
     73  CG        45.4380    6.4360  -29.4120 C.ar   82  TRP82       0.0006
     74  CD1       46.0190    7.3510  -28.5830 C.ar   82  TRP82       0.0946
     75  CD2       45.8000    6.8110  -30.7450 C.ar   82  TRP82       0.0152
     76  NE1       46.7240    8.2760  -29.3200 N.ar   82  TRP82      -0.2442
     77  CE2       46.6060    7.9650  -30.6520 C.ar   82  TRP82       0.0810
     78  CE3       45.5200    6.2830  -32.0110 C.ar   82  TRP82       0.0012
     79  CZ2       47.1380    8.6050  -31.7820 C.ar   82  TRP82       0.0191
     80  CZ3       46.0570    6.9120  -33.1340 C.ar   82  TRP82       0.0001
     81  CH2       46.8480    8.0610  -33.0110 C.ar   82  TRP82       0.0015
     82  N         45.9340    2.9740  -30.6380 N.am   83  ARG83      -0.1963
     83  CA        46.7680    2.6020  -31.7750 C.3    83  ARG83       0.1729
     84  C         45.8840    2.0380  -32.8700 C.2    83  ARG83       0.2616
     85  O         44.6710    1.8970  -32.6860 O.2    83  ARG83      -0.2715
     86  CB        47.8090    1.5560  -31.3640 C.3    83  ARG83       0.0348
     87  CG        47.2030    0.3350  -30.6680 C.3    83  ARG83       0.0492
     88  CD        48.0930   -0.8980  -30.8210 C.3    83  ARG83       0.2205
     89  NE        47.6110   -1.9950  -29.9850 N.pl3  83  ARG83      -0.0865
     90  CZ        46.6490   -2.8450  -30.3410 C.cat  83  ARG83       0.5346
     91  NH1       46.0680   -2.7270  -31.5320 N.pl3  83  ARG83       0.1354
     92  NH2       46.2630   -3.8140  -29.5060 N.pl3  83  ARG83       0.1354
     93  N         46.4910    1.7320  -34.0110 N.am   84  GLY84      -0.1955
     94  CA        45.8060    1.0100  -35.0650 C.3    84  GLY84       0.1869
     95  C         45.9660   -0.4850  -34.8490 C.2    84  GLY84       0.2309
     96  O         46.1970   -0.9380  -33.7150 O.2    84  GLY84      -0.2863
     97  N         42.2530   -5.6740  -30.2160 N.3    88  ARG88      -0.1231
     98  CA        41.8120   -4.7380  -29.1860 C.3    88  ARG88       0.1694
     99  C         42.9650   -4.2400  -28.2990 C.2    88  ARG88       0.2592
    100  O         43.9690   -4.9520  -28.0970 O.2    88  ARG88      -0.2718
    101  CB        40.7090   -5.3730  -28.3420 C.3    88  ARG88       0.0321
    102  CG        41.1630   -6.5640  -27.5290 C.3    88  ARG88       0.0489
    103  CD        41.4140   -6.1350  -26.1010 C.3    88  ARG88       0.2205
    104  NE        41.7330   -7.2580  -25.2240 N.pl3  88  ARG88      -0.0865
    105  CZ        40.8230   -7.9310  -24.5290 C.cat  88  ARG88       0.5346
    106  NH1       39.5350   -7.6020  -24.6230 N.pl3  88  ARG88       0.1354
    107  NH2       41.1990   -8.9330  -23.7480 N.pl3  88  ARG88       0.1354
    108  N         42.8120   -3.0220  -27.7730 N.am   89  GLU89      -0.1966
    109  CA        43.8290   -2.4120  -26.9140 C.3    89  GLU89       0.1733
    110  C         43.3360   -2.2370  -25.4720 C.2    89  GLU89       0.2617
    111  O         43.8580   -2.8650  -24.5550 O.2    89  GLU89      -0.2715
    112  CB        44.2650   -1.0530  -27.4810 C.3    89  GLU89       0.0429
    113  CG        45.1170   -0.2080  -26.5250 C.3    89  GLU89       0.1163
    114  CD        46.5540   -0.6910  -26.4300 C.2    89  GLU89       0.3649
    115  OE1       47.2340   -0.3920  -25.4200 O.co2  89  GLU89      -0.2457
    116  OE2       47.0120   -1.3660  -27.3750 O.co2  89  GLU89      -0.2457
    117  N         42.3300   -1.3820  -25.2720 N.am   90  THR90      -0.1951
    118  CA        41.8560   -1.0800  -23.9170 C.3    90  THR90       0.1897
    119  C         41.2090   -2.3040  -23.2300 C.2    90  THR90       0.2313
    120  O         40.4960   -3.0970  -23.8660 O.2    90  THR90      -0.2863
    121  CB        40.8820    0.1140  -23.9090 C.3    90  THR90       0.1794
    122  OG1       41.4400    1.1840  -24.6780 O.3    90  THR90      -0.2208
    123  CG2       40.6400    0.6090  -22.4860 C.3    90  THR90       0.0378
    124  N         37.5680    5.5230  -19.6840 N.3   116  ASP116     -0.1225
    125  CA        37.7500    4.8060  -20.9420 C.3   116  ASP116      0.1805
    126  C         37.4920    3.3240  -20.6680 C.2   116  ASP116      0.2598
    127  O         37.8000    2.8350  -19.5770 O.2   116  ASP116     -0.2718
    128  CB        39.1770    5.0170  -21.4620 C.3   116  ASP116      0.1424
    129  CG        39.3740    4.4840  -22.8720 C.2   116  ASP116      0.3668
    130  OD1       38.3600    4.1940  -23.5470 O.co2 116  ASP116     -0.2456
    131  OD2       40.5440    4.3630  -23.3090 O.co2 116  ASP116     -0.2456
    132  N         36.9160    2.6120  -21.6390 N.am  117  THR117     -0.1953
    133  CA        36.4780    1.2320  -21.4120 C.3   117  THR117      0.1897
    134  C         36.9230    0.2620  -22.4990 C.2   117  THR117      0.2313
    135  O         37.2130    0.6570  -23.6380 O.2   117  THR117     -0.2863
    136  CB        34.9280    1.1150  -21.3440 C.3   117  THR117      0.1794
    137  OG1       34.3740    1.3150  -22.6530 O.3   117  THR117     -0.2208
    138  CG2       34.3370    2.1330  -20.3930 C.3   117  THR117      0.0378
    139  N         36.5430   -2.3090  -25.3900 N.3   119  GLY119     -0.1225
    140  CA        35.5710   -2.3550  -26.4740 C.3   119  GLY119      0.1811
    141  C         34.8270   -3.6820  -26.4640 C.2   119  GLY119      0.2280
    142  O         35.4190   -4.7140  -26.1330 O.2   119  GLY119     -0.2866
    143  N         30.5910    7.4860  -35.6990 N.3   187  ARG187     -0.1231
    144  CA        31.8530    7.7130  -36.4000 C.3   187  ARG187      0.1694
    145  C         31.6690    7.4140  -37.8850 C.2   187  ARG187      0.2592
    146  O         30.8870    6.5220  -38.2610 O.2   187  ARG187     -0.2718
    147  CB        32.9700    6.8410  -35.8110 C.3   187  ARG187      0.0321
    148  CG        33.0640    6.9290  -34.2680 C.3   187  ARG187      0.0489
    149  CD        33.4970    8.3260  -33.8090 C.3   187  ARG187      0.2205
    150  NE        34.9470    8.5140  -33.8840 N.pl3 187  ARG187     -0.0865
    151  CZ        35.7750    8.3190  -32.8620 C.cat 187  ARG187      0.5346
    152  NH1       35.2930    7.9270  -31.6840 N.pl3 187  ARG187      0.1354
    153  NH2       37.0810    8.5130  -33.0130 N.pl3 187  ARG187      0.1354
    154  N         32.3540    8.1880  -38.7240 N.am  188  ASP188     -0.1974
    155  CA        32.3710    7.9560  -40.1680 C.3   188  ASP188      0.1709
    156  C         30.9800    8.0430  -40.7940 C.2   188  ASP188      0.2293
    157  O         30.6350    7.2530  -41.6720 O.2   188  ASP188     -0.2864
    158  CB        33.0320    6.6060  -40.5050 C.3   188  ASP188      0.1436
    159  CG        34.4570    6.4850  -39.9470 C.2   188  ASP188      0.3671
    160  OD1       35.0100    7.5020  -39.4720 O.co2 188  ASP188     -0.2456
    161  OD2       35.0300    5.3710  -39.9840 O.co2 188  ASP188     -0.2456
    162  N         32.1950   13.1440  -39.2370 N.3   240  PRO240     -0.2102
    163  CA        32.7250   12.7180  -40.5400 C.3   240  PRO240      0.1504
    164  C         33.8920   11.7530  -40.3730 C.2   240  PRO240      0.2576
    165  O         34.4250   11.6260  -39.2660 O.2   240  PRO240     -0.2718
    166  CB        33.2600   14.0240  -41.1650 C.3   240  PRO240      0.0282
    167  CG        32.7480   15.1520  -40.2750 C.3   240  PRO240      0.0208
    168  CD        32.5260   14.5440  -38.9210 C.3   240  PRO240      0.0893
    169  N         34.2780   11.0890  -41.4620 N.am  241  HIS241     -0.1963
    170  CA        35.4860   10.2800  -41.4980 C.3   241  HIS241      0.1772
    171  C         36.6900   11.1950  -41.2880 C.2   241  HIS241      0.2462
    172  O         36.7540   12.2800  -41.8710 O.2   241  HIS241     -0.2730
    173  CB        35.5960    9.5810  -42.8580 C.3   241  HIS241      0.0785
    174  CG        36.5400    8.4170  -42.8730 C.ar  241  HIS241      0.0821
    175  ND1       37.9090    8.5690  -42.8300 N.ar  241  HIS241     -0.2267
    176  CD2       36.3110    7.0830  -42.9460 C.ar  241  HIS241      0.1154
    177  CE1       38.4850    7.3780  -42.8660 C.ar  241  HIS241      0.1986
    178  NE2       37.5370    6.4590  -42.9350 N.ar  241  HIS241     -0.2212
    179  N         37.6480   10.7640  -40.4510 N.am  242  PRO242     -0.2727
    180  CA        38.8590   11.5430  -40.1410 C.3   242  PRO242      0.1402
    181  C         39.8710   11.5860  -41.2890 C.2   242  PRO242      0.2269
    182  O         40.8740   12.3180  -41.2010 O.2   242  PRO242     -0.2865
    183  CB        39.4800   10.7720  -38.9670 C.3   242  PRO242      0.0296
    184  CG        39.0240    9.3500  -39.1670 C.3   242  PRO242      0.0237
    185  CD        37.5780    9.5220  -39.6610 C.3   242  PRO242      0.0939
    186  N         44.5160    8.8360  -40.9570 N.3   246  VAL246     -0.1231
    187  CA        44.1030    8.4460  -39.6110 C.3   246  VAL246      0.1692
    188  C         43.7530    6.9630  -39.5040 C.2   246  VAL246      0.2591
    189  O         44.1810    6.2930  -38.5620 O.2   246  VAL246     -0.2718
    190  CB        42.9040    9.2690  -39.1440 C.3   246  VAL246      0.0266
    191  CG1       42.2810    8.6630  -37.8640 C.3   246  VAL246      0.0020
    192  CG2       43.3180   10.7070  -38.9100 C.3   246  VAL246      0.0020
    193  N         42.9940    6.4510  -40.4720 N.am  247  ALA247     -0.1980
    194  CA        42.4920    5.0830  -40.3910 C.3   247  ALA247      0.1597
    195  C         43.5120    4.0410  -40.8340 C.2   247  ALA247      0.2287
    196  O         43.4420    2.8830  -40.4060 O.2   247  ALA247     -0.2864
    197  CB        41.1990    4.9350  -41.2080 C.3   247  ALA247      0.0319
    198  N         50.8240    7.2710  -38.4180 N.3   252  PHE252     -0.1241
    199  CA        49.9440    8.2900  -37.8520 C.3   252  PHE252      0.1605
    200  C         50.0720    8.3650  -36.3320 C.2   252  PHE252      0.2264
    201  O         50.1120    7.3340  -35.6410 O.2   252  PHE252     -0.2867
    202  CB        48.4910    8.0370  -38.2420 C.3   252  PHE252      0.0534
    203  CG        47.5170    8.9710  -37.5790 C.ar  252  PHE252     -0.0203
    204  CD1       47.6300   10.3520  -37.7480 C.ar  252  PHE252     -0.0042
    205  CD2       46.4850    8.4710  -36.7930 C.ar  252  PHE252     -0.0042
    206  CE1       46.7210   11.2290  -37.1360 C.ar  252  PHE252     -0.0003
    207  CE2       45.5650    9.3410  -36.1810 C.ar  252  PHE252     -0.0003
    208  CZ        45.6880   10.7200  -36.3600 C.ar  252  PHE252     -0.0000
    209  N         36.6510   16.9710  -40.1270 N.3   263  PHE263     -0.1241
    210  CA        36.5900   16.2170  -38.8830 C.3   263  PHE263      0.1605
    211  C         36.9850   17.1260  -37.7110 C.2   263  PHE263      0.2264
    212  O         36.3140   17.1490  -36.6700 O.2   263  PHE263     -0.2867
    213  CB        37.5320   15.0180  -38.9900 C.3   263  PHE263      0.0534
    214  CG        37.5760   14.1510  -37.7630 C.ar  263  PHE263     -0.0203
    215  CD1       36.7200   13.0790  -37.6360 C.ar  263  PHE263     -0.0042
    216  CD2       38.4980   14.3960  -36.7470 C.ar  263  PHE263     -0.0042
    217  CE1       36.7620   12.2610  -36.5090 C.ar  263  PHE263     -0.0003
    218  CE2       38.5490   13.5890  -35.6270 C.ar  263  PHE263     -0.0003
    219  CZ        37.6770   12.5120  -35.5090 C.ar  263  PHE263     -0.0000
@<TRIPOS>BOND
     1   176   178   ar
     2   176   174   ar
     3   178   177   ar
     4   174   173    1
     5   174   175   ar
     6   177   175   ar
     7   173   170    1
     8   172   171    2
     9   157   156    2
    10   170   169    1
    11   170   171    1
    12   169   164   am
    13   181   182    2
    14   181   180    1
    15   171   179   am
    16   197   194    1
    17   166   163    1
    18   166   167    1
    19   186   187    1
    20   195   196    2
    21   195   194    1
    22   156   155    1
    23   163   164    1
    24   163   162    1
    25   158   155    1
    26   158   159    1
    27   193   194    1
    28   193   188   am
    29   179   180    1
    30   179   185    1
    31   164   165    2
    32   167   168    1
    33   155   154    1
    34   180   183    1
    35   209   210    1
    36   161   159   ar
    37   159   160   ar
    38   185   184    1
    39   187   188    1
    40   187   190    1
    41   188   189    2
    42   162   168    1
    43   184   183    1
    44   190   192    1
    45   190   191    1
    46   213   210    1
    47   213   214    1
    48   210   211    1
    49   154   145   am
    50   198   199    1
    51   146   145    2
    52   202   199    1
    53   202   203    1
    54   145   144    1
    55   199   200    1
    56   214   215   ar
    57   214   216   ar
    58   204   203   ar
    59   204   206   ar
    60   211   212    2
    61   215   217   ar
    62   203   205   ar
    63   206   208   ar
    64    31    30    1
    65   205   207   ar
    66   216   218   ar
    67   217   219   ar
    68   144   147    1
    69   144   143    1
    70   208   207   ar
    71   200   201    2
    72   147   148    1
    73   218   219   ar
    74    30    29    1
    75    94    95    1
    76    94    93    1
    77    29    28    1
    78    95    96    2
    79    15    14    2
    80   148   149    1
    81    93    84   am
    82   150   149    1
    83   150   151    2
    84    61    59   ar
    85    61    60   ar
    86    16    17    1
    87    16    13    1
    88    28    27    1
    89    59    57   ar
    90    26    25    2
    91    60    58   ar
    92    14    23   am
    93    14    13    1
    94    24    25    1
    95    24    27    1
    96    24    23    1
    97    80    81   ar
    98    80    78   ar
    99   153   151    1
   100    81    79   ar
   101    17    18    1
   102    18    19    1
   103    84    85    2
   104    84    83    1
   105   151   152    1
   106    25    32   am
   107    21    20    1
   108    11     9   ar
   109    11    10   ar
   110    13    12    1
   111    57    56   ar
   112     4     3    2
   113    58    56   ar
   114     9     7   ar
   115    32    33    1
   116    78    75   ar
   117    10     8   ar
   118    56    55    1
   119    33    34    1
   120    79    77   ar
   121    83    86    1
   122    83    82    1
   123    19    20    2
   124    20    22    1
   125    91    90    1
   126    86    87    1
   127     3    12   am
   128     3     2    1
   129     7     6   ar
   130     8     6   ar
   131    55    52    1
   132    88    87    1
   133    88    89    1
   134    75    77   ar
   135    75    73   ar
   136    77    76   ar
   137     6     5    1
   138    82    70   am
   139    34    35    2
   140    34    36   am
   141    90    89    2
   142    90    92    1
   143    97    98    1
   144     2     1    1
   145     2     5    1
   146    70    71    2
   147    70    69    1
   148    36    37    1
   149    73    72    1
   150    73    74   ar
   151    52    53    1
   152    52    51    1
   153    76    74   ar
   154    98   101    1
   155    98    99    1
   156    53    54    2
   157    72    69    1
   158    51    47   am
   159    69    68    1
   160   101   102    1
   161    99   100    2
   162    99   108   am
   163    37    38    1
   164    37    40    1
   165    41    40    1
   166    41    42    1
   167   108   109    1
   168    44    43    1
   169   102   103    1
   170   112   109    1
   171   112   113    1
   172    38    45   am
   173    38    39    2
   174   116   114   ar
   175    68    64   am
   176    45    46    1
   177    47    48    2
   178    47    46    1
   179    42    43    1
   180   109   110    1
   181    46    49    1
   182   113   114    1
   183   140   141    1
   184   140   139    1
   185   141   142    2
   186    49    50    1
   187   114   115   ar
   188    64    65    2
   189    64    63    1
   190   103   104    1
   191    67    66    1
   192   110   117   am
   193   110   111    2
   194   117   118    1
   195   104   105    2
   196    63    66    1
   197    63    62    1
   198   122   121    1
   199   106   105    1
   200   105   107    1
   201   118   121    1
   202   118   119    1
   203   121   123    1
   204   120   119    2
   205   135   134    2
   206   130   129   ar
   207   131   129   ar
   208   129   128    1
   209   137   136    1
   210   134   133    1
   211   132   133    1
   212   132   126   am
   213   128   125    1
   214   133   136    1
   215   136   138    1
   216   125   126    1
   217   125   124    1
   218   126   127    2
