@<TRIPOS>MOLECULE
tmp/4idtA00.pdb
 138 128 0 0 0
SMALL
GASTEIGER

@<TRIPOS>ATOM
      1  N         93.2800   43.1920  124.8120 N.3    74  LEU74      -0.1231
      2  CA        94.4510   43.1430  123.9450 C.3    74  LEU74       0.1693
      3  C         95.4890   44.1540  124.3860 C.2    74  LEU74       0.2593
      4  O         96.6870   43.8610  124.4590 O.2    74  LEU74      -0.2718
      5  CB        94.0490   43.4940  122.5180 C.3    74  LEU74       0.0284
      6  CG        94.1160   42.4140  121.4580 C.3    74  LEU74       0.0019
      7  CD1       93.7810   43.0450  120.1200 C.3    74  LEU74       0.0001
      8  CD2       95.5070   41.7940  121.4220 C.3    74  LEU74       0.0001
      9  N         95.0230   45.3660  124.6430 N.am   75  GLY75      -0.1942
     10  CA        95.9190   46.4490  124.9610 C.3    75  GLY75       0.2014
     11  C         95.1760   47.6700  125.4250 C.2    75  GLY75       0.2639
     12  O         93.9470   47.6740  125.5560 O.2    75  GLY75      -0.2714
     13  N         95.9350   48.7290  125.6590 N.am   76  ARG76      -0.1963
     14  CA        95.3480   49.9750  126.0900 C.3    76  ARG76       0.1729
     15  C         95.9340   51.1180  125.2970 C.2    76  ARG76       0.2616
     16  O         97.1220   51.4150  125.3990 O.2    76  ARG76      -0.2715
     17  CB        95.5790   50.1970  127.5760 C.3    76  ARG76       0.0348
     18  CG        94.8160   51.3790  128.0840 C.3    76  ARG76       0.0492
     19  CD        94.4150   51.1750  129.5160 C.3    76  ARG76       0.2205
     20  NE        95.3810   51.7560  130.4330 N.pl3  76  ARG76      -0.0865
     21  CZ        95.2660   51.6990  131.7540 C.cat  76  ARG76       0.5346
     22  NH1       94.2320   51.0650  132.2980 N.pl3  76  ARG76       0.1354
     23  NH2       96.1870   52.2600  132.5270 N.pl3  76  ARG76       0.1354
     24  N         95.0790   51.7510  124.5010 N.am   77  GLY77      -0.1955
     25  CA        95.4630   52.9060  123.7170 C.3    77  GLY77       0.1869
     26  C         95.3470   54.2000  124.4970 C.2    77  GLY77       0.2309
     27  O         94.9840   54.2100  125.6700 O.2    77  GLY77      -0.2863
     28  N         91.5900   48.2880  123.9800 N.3    82  VAL82      -0.1245
     29  CA        91.5300   47.5680  122.7250 C.3    82  VAL82       0.1561
     30  C         91.2160   46.1120  123.0160 C.2    82  VAL82       0.2260
     31  O         91.7990   45.5240  123.9170 O.2    82  VAL82      -0.2867
     32  CB        92.8680   47.6640  121.9510 C.3    82  VAL82       0.0252
     33  CG1       92.7590   46.9660  120.5960 C.3    82  VAL82       0.0019
     34  CG2       93.2890   49.1240  121.7710 C.3    82  VAL82       0.0019
     35  N         90.1850   43.6600  115.5610 N.3    95  ALA95      -0.1245
     36  CA        90.3240   44.3440  116.8450 C.3    95  ALA95       0.1562
     37  C         89.4140   45.5610  116.9380 C.2    95  ALA95       0.2260
     38  O         89.0810   46.1930  115.9350 O.2    95  ALA95      -0.2867
     39  CB        91.7740   44.7510  117.0760 C.3    95  ALA95       0.0290
     40  N         88.8540   49.2300  119.2550 N.3    97  LYS97      -0.1245
     41  CA        89.2010   50.1870  120.2880 C.3    97  LYS97       0.1561
     42  C         87.9740   51.0160  120.6280 C.2    97  LYS97       0.2260
     43  O         87.4020   51.6970  119.7770 O.2    97  LYS97      -0.2867
     44  CB        90.3470   51.0940  119.8480 C.3    97  LYS97       0.0271
     45  CG        90.8340   52.0100  120.9560 C.3    97  LYS97       0.0035
     46  CD        92.1210   52.6950  120.5560 C.3    97  LYS97       0.0206
     47  CE        91.8770   53.9020  119.6810 C.3    97  LYS97       0.1093
     48  NZ        93.1630   54.4350  119.1510 N.3    97  LYS97      -0.1314
     49  N         89.8060   47.6320  113.5470 N.3   137  MET137     -0.1230
     50  CA        91.0890   47.5310  112.8720 C.3   137  MET137      0.1702
     51  C         91.5960   46.0910  112.7900 C.2   137  MET137      0.2592
     52  O         91.1440   45.2050  113.5170 O.2   137  MET137     -0.2718
     53  CB        92.1080   48.4030  113.6070 C.3   137  MET137      0.0401
     54  CG        92.5730   47.8070  114.9150 C.3   137  MET137      0.0596
     55  SD        93.3770   49.0080  116.0160 S.3   137  MET137     -0.1393
     56  CE        91.9610   49.9180  116.6220 C.3   137  MET137      0.0692
     57  N         92.5520   45.8780  111.8970 N.am  138  GLU138     -0.1966
     58  CA        93.2320   44.6010  111.7750 C.3   138  GLU138      0.1733
     59  C         93.7600   44.1080  113.1160 C.2   138  GLU138      0.2616
     60  O         94.3600   44.8680  113.8680 O.2   138  GLU138     -0.2715
     61  CB        94.3930   44.7120  110.7840 C.3   138  GLU138      0.0429
     62  CG        95.1090   43.3950  110.5480 C.3   138  GLU138      0.1163
     63  CD        96.1940   43.4770  109.4890 C.2   138  GLU138      0.3649
     64  OE1       96.2990   44.5060  108.7980 O.co2 138  GLU138     -0.2457
     65  OE2       96.9480   42.4950  109.3460 O.co2 138  GLU138     -0.2457
     66  N         93.5130   42.8370  113.4170 N.am  139  LEU139     -0.1963
     67  CA        94.0730   42.2050  114.6040 C.3   139  LEU139      0.1728
     68  C         95.4600   41.6780  114.2670 C.2   139  LEU139      0.2616
     69  O         95.6180   40.8950  113.3380 O.2   139  LEU139     -0.2715
     70  CB        93.1880   41.0510  115.0660 C.3   139  LEU139      0.0311
     71  CG        93.7670   40.1380  116.1550 C.3   139  LEU139      0.0022
     72  CD1       94.0020   40.9010  117.4470 C.3   139  LEU139      0.0001
     73  CD2       92.8630   38.9250  116.3980 C.3   139  LEU139      0.0001
     74  N         96.4710   42.1190  115.0050 N.am  140  LEU140     -0.1977
     75  CA        97.8170   41.6030  114.7960 C.3   140  LEU140      0.1596
     76  C         98.2190   40.6320  115.8950 C.2   140  LEU140      0.2287
     77  O         97.7450   40.7000  117.0310 O.2   140  LEU140     -0.2864
     78  CB        98.8200   42.7360  114.6610 C.3   140  LEU140      0.0297
     79  CG        98.7580   43.3960  113.2820 C.3   140  LEU140      0.0022
     80  CD1       97.9150   44.6700  113.2850 C.3   140  LEU140      0.0001
     81  CD2      100.1710   43.6760  112.8270 C.3   140  LEU140      0.0001
     82  N        101.9890   40.9110  118.9360 N.3   143  GLY143     -0.1210
     83  CA       102.0710   41.9070  119.9890 C.3   143  GLY143      0.1956
     84  C        102.6910   43.2080  119.5070 C.2   143  GLY143      0.2612
     85  O        102.9280   43.4140  118.3140 O.2   143  GLY143     -0.2717
     86  N        102.9510   44.0990  120.4500 N.am  144  SER144     -0.1952
     87  CA       103.5620   45.3800  120.1520 C.3   144  SER144      0.1924
     88  C        105.0830   45.3160  120.2790 C.2   144  SER144      0.2314
     89  O        105.6240   44.4600  120.9880 O.2   144  SER144     -0.2863
     90  CB       103.0280   46.4580  121.0860 C.3   144  SER144      0.2116
     91  OG       103.5720   46.2790  122.3780 O.3   144  SER144     -0.2180
     92  N        106.1060   45.4680  123.8320 N.3   147  GLN147     -0.1245
     93  CA       106.0770   44.2190  124.5880 C.3   147  GLN147      0.1566
     94  C        107.3370   43.4080  124.3010 C.2   147  GLN147      0.2260
     95  O        107.9140   42.7860  125.1900 O.2   147  GLN147     -0.2867
     96  CB       104.8350   43.4120  124.2000 C.3   147  GLN147      0.0367
     97  CG       103.5390   43.9840  124.7510 C.3   147  GLN147      0.0905
     98  CD       102.2850   43.3980  124.1000 C.2   147  GLN147      0.2608
     99  OE1      102.2480   43.1470  122.8930 O.2   147  GLN147     -0.2717
    100  NE2      101.2510   43.1690  124.9090 N.am  147  GLN147     -0.0878
    101  N        105.3170   51.1360  121.9720 N.3   187  ASP187     -0.1225
    102  CA       103.9720   50.6980  122.3490 C.3   187  ASP187      0.1805
    103  C        102.9640   50.8990  121.2290 C.2   187  ASP187      0.2597
    104  O        101.8980   50.2840  121.2420 O.2   187  ASP187     -0.2718
    105  CB       103.4890   51.4270  123.6090 C.3   187  ASP187      0.1424
    106  CG       104.0500   50.8340  124.8810 C.2   187  ASP187      0.3668
    107  OD1      104.7240   49.7880  124.8000 O.co2 187  ASP187     -0.2456
    108  OD2      103.8020   51.4110  125.9650 O.co2 187  ASP187     -0.2456
    109  N        103.2780   51.7740  120.2770 N.am  188  ASN188     -0.1974
    110  CA       102.3680   52.0190  119.1650 C.3   188  ASN188      0.1688
    111  C        102.8630   51.4890  117.8190 C.2   188  ASN188      0.2292
    112  O        102.4140   51.9340  116.7660 O.2   188  ASN188     -0.2864
    113  CB       102.0400   53.5060  119.0480 C.3   188  ASN188      0.1181
    114  CG       101.0760   53.9770  120.1140 C.2   188  ASN188      0.2629
    115  OD1      100.2530   53.2020  120.6110 O.2   188  ASN188     -0.2716
    116  ND2      101.1780   55.2530  120.4840 N.am  188  ASN188     -0.0877
    117  N        102.9930   47.7010  115.9740 N.3   190  LEU190     -0.1245
    118  CA       102.4830   46.3490  116.1370 C.3   190  LEU190      0.1561
    119  C        103.1610   45.3850  115.1830 C.2   190  LEU190      0.2260
    120  O        103.4950   45.7430  114.0480 O.2   190  LEU190     -0.2867
    121  CB       100.9770   46.3460  115.8990 C.3   190  LEU190      0.0270
    122  CG       100.0710   46.5570  117.1140 C.3   190  LEU190      0.0019
    123  CD1      100.7310   47.3420  118.2550 C.3   190  LEU190      0.0001
    124  CD2       98.7820   47.2200  116.6640 C.3   190  LEU190      0.0001
    125  N        100.0320   52.0370  114.9770 N.3   201  CYS201     -0.1221
    126  CA        98.7150   51.5530  115.4140 C.3   201  CYS201      0.1808
    127  C         97.7060   52.6100  115.8990 C.2   201  CYS201      0.2601
    128  O         96.5260   52.5400  115.5220 O.2   201  CYS201     -0.2717
    129  CB        98.8710   50.4860  116.5340 C.3   201  CYS201      0.0970
    130  SG        99.2760   51.1140  118.1610 S.3   201  CYS201     -0.0800
    131  N         98.1350   53.5810  116.7010 N.am  202  ASP202     -0.1973
    132  CA        97.1650   54.4230  117.4500 C.3   202  ASP202      0.1709
    133  C         97.2600   55.9090  117.1600 C.2   202  ASP202      0.2293
    134  O         98.1930   56.5750  117.6010 O.2   202  ASP202     -0.2864
    135  CB        97.3400   54.1750  118.9540 C.3   202  ASP202      0.1436
    136  CG        96.2910   54.8690  119.7990 C.2   202  ASP202      0.3671
    137  OD1       95.5030   55.6930  119.2820 O.co2 202  ASP202     -0.2456
    138  OD2       96.2580   54.5820  121.0090 O.co2 202  ASP202     -0.2456
@<TRIPOS>BOND
     1    64    63   ar
     2    65    63   ar
     3    63    62    1
     4    62    61    1
     5    61    58    1
     6    58    57    1
     7    58    59    1
     8    57    51   am
     9    51    50    1
    10    51    52    2
    11    81    79    1
    12    50    49    1
    13    50    53    1
    14    59    66   am
    15    59    60    2
    16    79    80    1
    17    79    78    1
    18    69    68    2
    19    66    67    1
    20    53    54    1
    21   120   119    2
    22    68    67    1
    23    68    74   am
    24    67    70    1
    25    78    75    1
    26    75    74    1
    27    75    76    1
    28    54    55    1
    29   125   126    1
    30    70    71    1
    31   119   118    1
    32   126   127    1
    33   126   129    1
    34   128   127    2
    35    35    36    1
    36    76    77    2
    37   121   118    1
    38   121   122    1
    39   127   131   am
    40    38    37    2
    41   117   118    1
    42    55    56    1
    43    71    73    1
    44    71    72    1
    45   129   130    1
    46   124   122    1
    47   131   132    1
    48   112   111    2
    49    36    37    1
    50    36    39    1
    51   122   123    1
    52   133   132    1
    53   133   134    2
    54   132   135    1
    55   111   110    1
    56    85    84    2
    57    82    83    1
    58   135   136    1
    59   113   110    1
    60   113   114    1
    61    48    47    1
    62   110   109    1
    63    40    41    1
    64   137   136   ar
    65    84    83    1
    66    84    86   am
    67    47    46    1
    68    43    42    2
    69   136   138   ar
    70    44    41    1
    71    44    45    1
    72   114   116   am
    73   114   115    2
    74     7     6    1
    75    87    88    1
    76    87    86    1
    77    87    90    1
    78   109   103   am
    79    88    89    2
    80    41    42    1
    81    46    45    1
    82    33    32    1
    83    90    91    1
    84   103   104    2
    85   103   102    1
    86     8     6    1
    87     6     5    1
    88    34    32    1
    89    32    29    1
    90   101   102    1
    91   102   105    1
    92     5     2    1
    93    29    30    1
    94    29    28    1
    95    99    98    2
    96    30    31    2
    97   105   106    1
    98    25    26    1
    99    25    24    1
   100    92    93    1
   101     2     3    1
   102     2     1    1
   103    98    97    1
   104    98   100   am
   105    96    93    1
   106    96    97    1
   107    94    93    1
   108    94    95    2
   109     3     4    2
   110     3     9   am
   111    26    27    2
   112    24    15   am
   113     9    10    1
   114   107   106   ar
   115   106   108   ar
   116    10    11    1
   117    15    16    2
   118    15    14    1
   119    11    12    2
   120    11    13   am
   121    13    14    1
   122    14    17    1
   123    17    18    1
   124    18    19    1
   125    19    20    1
   126    20    21    2
   127    21    22    1
   128    21    23    1
