@<TRIPOS>MOLECULE
tmp/4idvA00.pdb
 198 184 0 0 0
SMALL
GASTEIGER

@<TRIPOS>ATOM
      1  N         17.8660   21.1420   89.6910 N.3    68  ARG68      -0.1231
      2  CA        17.5450   20.8040   88.3370 C.3    68  ARG68       0.1694
      3  C         16.1380   20.2850   88.4070 C.2    68  ARG68       0.2593
      4  O         15.5650   20.2100   89.4860 O.2    68  ARG68      -0.2718
      5  CB        18.5020   19.7410   87.8370 C.3    68  ARG68       0.0321
      6  CG        19.9400   19.9130   88.3260 C.3    68  ARG68       0.0489
      7  CD        20.7860   20.8630   87.4690 C.3    68  ARG68       0.2205
      8  NE        22.1990   20.8160   87.8850 N.pl3  68  ARG68      -0.0865
      9  CZ        23.1940   21.5330   87.3560 C.cat  68  ARG68       0.5346
     10  NH1       22.9650   22.3870   86.3660 N.pl3  68  ARG68       0.1354
     11  NH2       24.4320   21.4030   87.8350 N.pl3  68  ARG68       0.1354
     12  N         15.5770   19.9090   87.2720 N.am   69  GLY69      -0.1942
     13  CA        14.1780   19.5250   87.2260 C.3    69  GLY69       0.2014
     14  C         13.3540   20.7510   86.8870 C.2    69  GLY69       0.2639
     15  O         13.7840   21.8860   87.1010 O.2    69  GLY69      -0.2714
     16  N         12.1650   20.5190   86.3420 N.am   70  SER70      -0.1949
     17  CA        11.2650   21.5870   85.9220 C.3    70  SER70       0.1924
     18  C         10.8720   22.4980   87.0580 C.2    70  SER70       0.2314
     19  O         10.6390   23.6900   86.8230 O.2    70  SER70      -0.2863
     20  CB         9.9870   20.9890   85.3660 C.3    70  SER70       0.2116
     21  OG        10.3110   19.8840   84.5610 O.3    70  SER70      -0.2180
     22  N         13.1840   20.4340   91.6480 N.3    73  GLU73      -0.1231
     23  CA        12.9080   19.4230   92.6820 C.3    73  GLU73       0.1699
     24  C         14.0250   18.4500   92.8740 C.2    73  GLU73       0.2592
     25  O         13.9650   17.6370   93.8040 O.2    73  GLU73      -0.2718
     26  CB        11.7310   18.5340   92.3470 C.3    73  GLU73       0.0402
     27  CG        10.8030   19.0530   91.2970 C.3    73  GLU73       0.1161
     28  CD        11.2530   18.7310   89.8920 C.2    73  GLU73       0.3649
     29  OE1       11.6340   19.6720   89.1640 O.co2  73  GLU73      -0.2457
     30  OE2       11.2040   17.5480   89.5280 O.co2  73  GLU73      -0.2457
     31  N         15.0120   18.4830   91.9810 N.am   74  VAL74      -0.1980
     32  CA        16.0820   17.5060   92.0110 C.3    74  VAL74       0.1595
     33  C         17.3230   18.1510   92.5640 C.2    74  VAL74       0.2287
     34  O         17.6970   19.2490   92.1590 O.2    74  VAL74      -0.2864
     35  CB        16.3710   16.9260   90.6270 C.3    74  VAL74       0.0276
     36  CG1       17.3260   15.7620   90.7560 C.3    74  VAL74       0.0022
     37  CG2       15.0880   16.4510   89.9750 C.3    74  VAL74       0.0022
     38  N         21.0560   11.5380   93.8970 N.3    87  ALA87      -0.1245
     39  CA        20.0650   12.5520   93.6490 C.3    87  ALA87       0.1562
     40  C         18.7770   12.2810   94.4600 C.2    87  ALA87       0.2260
     41  O         18.4310   11.1260   94.7040 O.2    87  ALA87      -0.2867
     42  CB        19.7710   12.5940   92.1660 C.3    87  ALA87       0.0290
     43  N         14.6400   13.4430   94.1580 N.3    89  LYS89      -0.1245
     44  CA        13.5460   14.2260   93.6040 C.3    89  LYS89       0.1561
     45  C         12.5100   14.4040   94.6830 C.2    89  LYS89       0.2260
     46  O         12.0340   13.4350   95.2580 O.2    89  LYS89      -0.2867
     47  CB        12.8850   13.5530   92.4090 C.3    89  LYS89       0.0271
     48  CG        11.6450   14.3060   91.9200 C.3    89  LYS89       0.0035
     49  CD        11.0600   13.7090   90.6620 C.3    89  LYS89       0.0206
     50  CE         9.9430   14.5960   90.1490 C.3    89  LYS89       0.1093
     51  NZ         9.1930   13.9860   89.0040 N.3    89  LYS89      -0.1314
     52  N          5.3000    6.3300   89.3820 N.3   100  GLU100     -0.1231
     53  CA         6.6140    6.9420   89.2010 C.3   100  GLU100      0.1699
     54  C          7.6830    5.9310   89.6520 C.2   100  GLU100      0.2592
     55  O          8.6910    5.7410   88.9790 O.2   100  GLU100     -0.2718
     56  CB         6.7520    8.3280   89.9080 C.3   100  GLU100      0.0402
     57  CG         8.1150    8.9950   89.6710 C.3   100  GLU100      0.1161
     58  CD         8.1830   10.5000   89.9180 C.2   100  GLU100      0.3649
     59  OE1        7.2250   11.1060   90.4110 O.co2 100  GLU100     -0.2457
     60  OE2        9.2240   11.1020   89.6100 O.co2 100  GLU100     -0.2457
     61  N          7.4460    5.2580   90.7690 N.am  101  LEU101     -0.1980
     62  CA         8.3970    4.2840   91.2780 C.3   101  LEU101      0.1596
     63  C          8.2480    2.9670   90.5350 C.2   101  LEU101      0.2287
     64  O          9.2410    2.3190   90.2150 O.2   101  LEU101     -0.2864
     65  CB         8.1820    4.0960   92.7710 C.3   101  LEU101      0.0297
     66  CG         8.4180    5.3910   93.5510 C.3   101  LEU101      0.0022
     67  CD1        8.2790    5.1430   95.0420 C.3   101  LEU101      0.0001
     68  CD2        9.7800    6.0010   93.2470 C.3   101  LEU101      0.0001
     69  N         10.5870    2.4950   87.6420 N.3   104  CYS104     -0.1235
     70  CA        12.0310    2.2940   87.7420 C.3   104  CYS104      0.1677
     71  C         12.4820    1.3450   88.8520 C.2   104  CYS104      0.2270
     72  O         13.6700    1.0640   88.9810 O.2   104  CYS104     -0.2867
     73  CB        12.7250    3.6420   87.8790 C.3   104  CYS104      0.0956
     74  SG        12.0610    4.6960   89.1710 S.3   104  CYS104     -0.0801
     75  N         16.9660    5.2580   84.6520 N.3   113  VAL113     -0.1245
     76  CA        17.6890    5.6790   85.8460 C.3   113  VAL113      0.1561
     77  C         17.5510    4.6460   86.9320 C.2   113  VAL113      0.2260
     78  O         16.4350    4.1800   87.2060 O.2   113  VAL113     -0.2867
     79  CB        17.1570    6.9750   86.4990 C.3   113  VAL113      0.0252
     80  CG1       18.1450    7.4910   87.5400 C.3   113  VAL113      0.0019
     81  CG2       16.9450    8.0560   85.4720 C.3   113  VAL113      0.0019
     82  N         16.9540    3.4760   90.5240 N.3   115  LEU115     -0.1245
     83  CA        16.2210    3.9330   91.6960 C.3   115  LEU115      0.1561
     84  C         16.9360    3.4240   92.9430 C.2   115  LEU115      0.2260
     85  O         17.0730    2.2120   93.1050 O.2   115  LEU115     -0.2867
     86  CB        14.8130    3.3640   91.6550 C.3   115  LEU115      0.0270
     87  CG        13.9510    3.6040   92.8790 C.3   115  LEU115      0.0019
     88  CD1       13.5020    5.0570   92.9260 C.3   115  LEU115      0.0001
     89  CD2       12.7610    2.6470   92.8680 C.3   115  LEU115      0.0001
     90  N         12.5340   10.8280   96.6480 N.3   127  ILE127     -0.1245
     91  CA        12.9830    9.7320   95.7960 C.3   127  ILE127      0.1561
     92  C         14.4860    9.8510   95.5350 C.2   127  ILE127      0.2260
     93  O         14.9910   10.8820   95.1130 O.2   127  ILE127     -0.2867
     94  CB        12.2440    9.7050   94.4510 C.3   127  ILE127      0.0252
     95  CG1       10.7370    9.7030   94.6620 C.3   127  ILE127      0.0019
     96  CG2       12.6240    8.4610   93.6780 C.3   127  ILE127      0.0019
     97  CD1        9.9650   10.0290   93.3990 C.3   127  ILE127      0.0001
     98  N         17.9620    8.3120   93.7090 N.3   129  MET129     -0.1230
     99  CA        18.4190    7.6210   92.4920 C.3   129  MET129      0.1702
    100  C         19.8490    8.0400   92.0910 C.2   129  MET129      0.2592
    101  O         20.2980    9.1620   92.3660 O.2   129  MET129     -0.2718
    102  CB        17.4440    7.9080   91.3530 C.3   129  MET129      0.0401
    103  CG        17.4980    9.3510   90.9310 C.3   129  MET129      0.0596
    104  SD        15.9790    9.9350   90.2020 S.3   129  MET129     -0.1393
    105  CE        16.2720   11.6680   90.5660 C.3   129  MET129      0.0692
    106  N         20.5530    7.1440   91.4240 N.am  130  GLU130     -0.1966
    107  CA        21.9210    7.4140   91.0030 C.3   130  GLU130      0.1733
    108  C         22.0460    8.7870   90.3780 C.2   130  GLU130      0.2616
    109  O         21.2890    9.1530   89.5050 O.2   130  GLU130     -0.2715
    110  CB        22.3820    6.3550   90.0020 C.3   130  GLU130      0.0429
    111  CG        23.8340    6.3910   89.5630 C.3   130  GLU130      0.1163
    112  CD        24.1890    5.1180   88.8070 C.2   130  GLU130      0.3649
    113  OE1       23.9650    4.0310   89.3880 O.co2 130  GLU130     -0.2457
    114  OE2       24.6390    5.1830   87.6350 O.co2 130  GLU130     -0.2457
    115  N         23.0030    9.5520   90.8690 N.am  131  LEU131     -0.1963
    116  CA        23.4150   10.7780   90.2230 C.3   131  LEU131      0.1728
    117  C         24.0050   10.4100   88.8510 C.2   131  LEU131      0.2616
    118  O         24.8860    9.5390   88.7360 O.2   131  LEU131     -0.2715
    119  CB        24.4670   11.4560   91.1060 C.3   131  LEU131      0.0311
    120  CG        24.7090   12.9600   91.0510 C.3   131  LEU131      0.0022
    121  CD1       23.4430   13.7820   90.9200 C.3   131  LEU131      0.0001
    122  CD2       25.4510   13.3360   92.3220 C.3   131  LEU131      0.0001
    123  N         23.4930   11.0480   87.8090 N.am  132  LEU132     -0.1977
    124  CA        24.0740   10.9360   86.4850 C.3   132  LEU132      0.1596
    125  C         24.7720   12.2510   86.2200 C.2   132  LEU132      0.2287
    126  O         24.1340   13.2980   86.0470 O.2   132  LEU132     -0.2864
    127  CB        23.0120   10.5910   85.4220 C.3   132  LEU132      0.0297
    128  CG        23.0910    9.1440   84.8920 C.3   132  LEU132      0.0022
    129  CD1       23.2760    8.1130   86.0050 C.3   132  LEU132      0.0001
    130  CD2       21.8640    8.7990   84.0750 C.3   132  LEU132      0.0001
    131  N         24.1770   15.2250   82.9740 N.3   135  GLY135     -0.1210
    132  CA        23.1640   16.2900   82.8700 C.3   135  GLY135      0.1956
    133  C         21.9250   15.8080   82.1380 C.2   135  GLY135      0.2612
    134  O         21.7920   14.6150   81.8750 O.2   135  GLY135     -0.2717
    135  N         21.0110   16.7160   81.8060 N.am  136  SER136     -0.1952
    136  CA        19.8710   16.3390   80.9770 C.3   136  SER136      0.1924
    137  C         20.1930   16.5940   79.4970 C.2   136  SER136      0.2314
    138  O         21.0700   17.4120   79.1760 O.2   136  SER136     -0.2863
    139  CB        18.6040   17.0730   81.4240 C.3   136  SER136      0.2116
    140  OG        18.5870   18.4030   80.9620 O.3   136  SER136     -0.2180
    141  N         19.4900   20.1470   78.6420 N.3   139  GLN139     -0.1245
    142  CA        20.6470   21.0220   78.9150 C.3   139  GLN139      0.1566
    143  C         21.6140   21.0450   77.7410 C.2   139  GLN139      0.2260
    144  O         22.1250   22.1040   77.3440 O.2   139  GLN139     -0.2867
    145  CB        21.4140   20.5410   80.1530 C.3   139  GLN139      0.0367
    146  CG        21.0100   21.2330   81.4480 C.3   139  GLN139      0.0905
    147  CD        21.5490   20.5410   82.7050 C.2   139  GLN139      0.2608
    148  OE1       22.0500   19.4110   82.6680 O.2   139  GLN139     -0.2717
    149  NE2       21.4260   21.2230   83.8350 N.am  139  GLN139     -0.0878
    150  N         14.3820   17.0720   78.3890 N.3   179  ASP179     -0.1225
    151  CA        14.5680   17.3860   79.8370 C.3   179  ASP179      0.1805
    152  C         14.5010   16.1380   80.7180 C.2   179  ASP179      0.2597
    153  O         15.1530   16.0790   81.7540 O.2   179  ASP179     -0.2718
    154  CB        13.5750   18.4370   80.3270 C.3   179  ASP179      0.1424
    155  CG        13.8320   19.8210   79.7240 C.2   179  ASP179      0.3668
    156  OD1       14.9600   20.1110   79.2600 O.co2 179  ASP179     -0.2456
    157  OD2       12.8680   20.6260   79.7200 O.co2 179  ASP179     -0.2456
    158  N         13.7510   15.1320   80.2740 N.am  180  ASN180     -0.1974
    159  CA        13.6680   13.8400   80.9660 C.3   180  ASN180      0.1688
    160  C         14.4950   12.7320   80.3160 C.2   180  ASN180      0.2292
    161  O         14.1020   11.5630   80.3600 O.2   180  ASN180     -0.2864
    162  CB        12.2210   13.3670   81.0340 C.3   180  ASN180      0.1181
    163  CG        11.3180   14.3600   81.7000 C.2   180  ASN180      0.2629
    164  OD1       11.7320   15.0600   82.6160 O.2   180  ASN180     -0.2716
    165  ND2       10.0740   14.4260   81.2520 N.am  180  ASN180     -0.0877
    166  N         18.6310   11.7010   80.8190 N.3   182  LEU182     -0.1245
    167  CA        19.8740   11.9760   81.5130 C.3   182  LEU182      0.1561
    168  C         21.0770   11.3190   80.8160 C.2   182  LEU182      0.2260
    169  O         20.9690   10.2110   80.2730 O.2   182  LEU182     -0.2867
    170  CB        19.7980   11.4070   82.9240 C.3   182  LEU182      0.0270
    171  CG        19.1590   12.1850   84.0760 C.3   182  LEU182      0.0019
    172  CD1       18.2970   13.3600   83.6440 C.3   182  LEU182      0.0001
    173  CD2       18.3610   11.2130   84.9180 C.3   182  LEU182      0.0001
    174  N         14.5160    9.5730   82.8740 N.3   193  CYS193     -0.1221
    175  CA        14.0300    9.8980   84.2040 C.3   193  CYS193      0.1808
    176  C         12.6320   10.5520   84.1430 C.2   193  CYS193      0.2601
    177  O         12.0350   10.6640   83.0910 O.2   193  CYS193     -0.2717
    178  CB        15.0150   10.8450   84.8390 C.3   193  CYS193      0.0970
    179  SG        15.0520   12.3650   83.9060 S.3   193  CYS193     -0.0800
    180  N         12.1260   10.9560   85.2980 N.am  194  ASP194     -0.1959
    181  CA        10.8510   11.6880   85.4490 C.3   194  ASP194      0.1840
    182  C          9.6260   10.9050   85.0110 C.2   194  ASP194      0.2622
    183  O          8.8380   11.3660   84.1970 O.2   194  ASP194     -0.2715
    184  CB        10.8670   13.0680   84.7610 C.3   194  ASP194      0.1450
    185  CG        10.0520   14.1300   85.5370 C.2   194  ASP194      0.3671
    186  OD1       10.4320   15.3330   85.4850 O.co2 194  ASP194     -0.2456
    187  OD2        9.0640   13.7620   86.2230 O.co2 194  ASP194     -0.2456
    188  N          9.4460    9.7580   85.6410 N.am  195  PHE195     -0.1974
    189  CA         8.2900    8.9090   85.4240 C.3   195  PHE195      0.1639
    190  C          7.0470    9.3610   86.2070 C.2   195  PHE195      0.2290
    191  O          6.0950    8.5990   86.3700 O.2   195  PHE195     -0.2864
    192  CB         8.6390    7.4770   85.8070 C.3   195  PHE195      0.0560
    193  CG         9.8670    6.9610   85.1260 C.ar  195  PHE195     -0.0200
    194  CD1       11.1030    7.0390   85.7410 C.ar  195  PHE195     -0.0042
    195  CD2        9.7840    6.4040   83.8630 C.ar  195  PHE195     -0.0042
    196  CE1       12.2470    6.5720   85.1100 C.ar  195  PHE195     -0.0003
    197  CE2       10.9170    5.9290   83.2230 C.ar  195  PHE195     -0.0003
    198  CZ        12.1610    6.0110   83.8510 C.ar  195  PHE195     -0.0000
@<TRIPOS>BOND
     1   144   143    2
     2   143   142    1
     3   150   151    1
     4   141   142    1
     5   142   145    1
     6   138   137    2
     7   156   155   ar
     8   137   136    1
     9   157   155   ar
    10   155   154    1
    11   151   154    1
    12   151   152    1
    13   145   146    1
    14   169   168    2
    15   158   152   am
    16   158   159    1
    17   160   161    2
    18   160   159    1
    19   152   153    2
    20   168   167    1
    21   166   167    1
    22   140   139    1
    23   159   162    1
    24   136   139    1
    25   136   135    1
    26   162   163    1
    27   165   163   am
    28   146   147    1
    29   167   170    1
    30   163   164    2
    31   135   133   am
    32   134   133    2
    33   133   132    1
    34   148   147    2
    35   147   149   am
    36   132   131    1
    37   174   175    1
    38   170   171    1
    39   177   176    2
    40   197   198   ar
    41   197   195   ar
    42   172   171    1
    43   198   196   ar
    44   195   193   ar
    45   179   178    1
    46   130   128    1
    47   171   173    1
    48   176   175    1
    49   176   180   am
    50   183   182    2
    51   175   178    1
    52    21    20    1
    53    75    76    1
    54   184   181    1
    55   184   185    1
    56   128   127    1
    57   128   129    1
    58   182   181    1
    59   182   188   am
    60   196   194   ar
    61   193   194   ar
    62   193   192    1
    63   180   181    1
    64    20    17    1
    65   127   124    1
    66   189   188    1
    67   189   192    1
    68   189   190    1
    69    81    79    1
    70   186   185   ar
    71   185   187   ar
    72    76    79    1
    73    76    77    1
    74    17    16    1
    75    17    18    1
    76   126   125    2
    77   190   191    2
    78   125   124    1
    79    16    14   am
    80    10     9    1
    81   124   123    1
    82    79    80    1
    83    19    18    2
    84    14    15    2
    85    14    13    1
    86    77    78    2
    87    13    12    1
    88    12     3   am
    89     9    11    1
    90     9     8    2
    91     7     8    1
    92     7     6    1
    93   114   112   ar
    94    69    70    1
    95    70    73    1
    96    70    71    1
    97   123   117   am
    98     5     6    1
    99     5     2    1
   100    73    74    1
   101     2     3    1
   102     2     1    1
   103     3     4    2
   104   118   117    2
   105   112   113   ar
   106   112   111    1
   107   117   116    1
   108    71    72    2
   109    55    54    2
   110    51    50    1
   111    29    28   ar
   112    53    52    1
   113    53    54    1
   114    53    56    1
   115   109   108    2
   116    30    28   ar
   117   111   110    1
   118    60    58   ar
   119    54    61   am
   120    57    56    1
   121    57    58    1
   122    28    27    1
   123    58    59   ar
   124    37    35    1
   125   110   107    1
   126    50    49    1
   127   104   105    1
   128   104   103    1
   129    64    63    2
   130   116   115    1
   131   116   119    1
   132   108   115   am
   133   108   107    1
   134    82    83    1
   135    63    62    1
   136    35    36    1
   137    35    32    1
   138    49    48    1
   139    61    62    1
   140   121   120    1
   141   103   102    1
   142   107   106    1
   143   120   119    1
   144   120   122    1
   145    62    65    1
   146    27    26    1
   147   102    99    1
   148   106   100   am
   149    22    23    1
   150    86    83    1
   151    86    87    1
   152    83    84    1
   153    48    47    1
   154    31    32    1
   155    31    24   am
   156    32    33    1
   157   100   101    2
   158   100    99    1
   159    34    33    2
   160    42    39    1
   161    26    23    1
   162    47    44    1
   163    99    98    1
   164    23    24    1
   165    65    66    1
   166    89    87    1
   167    24    25    2
   168    87    88    1
   169    84    85    2
   170    68    66    1
   171    97    95    1
   172    66    67    1
   173    44    43    1
   174    44    45    1
   175    39    38    1
   176    39    40    1
   177    96    94    1
   178    94    95    1
   179    94    91    1
   180    40    41    2
   181    45    46    2
   182    93    92    2
   183    92    91    1
   184    91    90    1
