@<TRIPOS>MOLECULE
tmp/4idyA00.pdb
 123 119 0 0 0
SMALL
GASTEIGER

@<TRIPOS>ATOM
      1  N         38.3800   -8.7890    3.5090 N.3    91  THR91      -0.1218
      2  CA        37.7540  -10.1080    3.2620 C.3    91  THR91       0.1862
      3  C         36.8800  -10.0910    2.0300 C.2    91  THR91       0.2287
      4  O         36.6930  -11.1420    1.4140 O.2    91  THR91      -0.2866
      5  CB        36.8940  -10.6440    4.4160 C.3    91  THR91       0.1770
      6  OG1       35.8290   -9.7230    4.6070 O.3    91  THR91      -0.2211
      7  CG2       37.7090  -10.8040    5.7040 C.3    91  THR91       0.0375
      8  N         38.2190  -11.6990   -1.1510 N.3    94  TYR94      -0.1241
      9  CA        39.3830  -12.4660   -0.8570 C.3    94  TYR94       0.1605
     10  C         39.1090  -13.9880   -1.0800 C.2    94  TYR94       0.2264
     11  O         38.4120  -14.6290   -0.3310 O.2    94  TYR94      -0.2867
     12  CB        39.8000  -12.1960    0.5710 C.3    94  TYR94       0.0534
     13  CG        41.0320  -12.9840    1.0080 C.ar   94  TYR94      -0.0201
     14  CD1       42.2620  -12.7490    0.4290 C.ar   94  TYR94      -0.0009
     15  CD2       40.9660  -13.9640    2.0210 C.ar   94  TYR94      -0.0009
     16  CE1       43.4110  -13.4320    0.8170 C.ar   94  TYR94       0.0417
     17  CE2       42.1040  -14.6550    2.4090 C.ar   94  TYR94       0.0417
     18  CZ        43.3320  -14.3540    1.8240 C.ar   94  TYR94       0.1957
     19  OH        44.4940  -14.9770    2.1600 O.3    94  TYR94      -0.2866
     20  N         35.5190  -14.8890   -1.0150 N.3    97  PHE97      -0.1241
     21  CA        34.6580  -14.6190    0.1440 C.3    97  PHE97       0.1605
     22  C         33.6810  -13.4420   -0.0940 C.2    97  PHE97       0.2264
     23  O         34.0620  -12.3820   -0.5980 O.2    97  PHE97      -0.2867
     24  CB        35.5270  -14.3710    1.3660 C.3    97  PHE97       0.0534
     25  CG        34.7540  -14.2620    2.6000 C.ar   97  PHE97      -0.0203
     26  CD1       34.4670  -15.3990    3.3520 C.ar   97  PHE97      -0.0042
     27  CD2       34.2700  -13.0460    3.0080 C.ar   97  PHE97      -0.0042
     28  CE1       33.7520  -15.3050    4.5100 C.ar   97  PHE97      -0.0003
     29  CE2       33.5490  -12.9450    4.1670 C.ar   97  PHE97      -0.0003
     30  CZ        33.2740  -14.0810    4.9230 C.ar   97  PHE97      -0.0000
     31  N         33.9630  -11.6150    9.0450 N.3   102  CYS102     -0.1235
     32  CA        33.4740  -12.9630    9.3480 C.3   102  CYS102      0.1677
     33  C         32.7320  -12.9580   10.6870 C.2   102  CYS102      0.2270
     34  O         33.2000  -12.3820   11.6620 O.2   102  CYS102     -0.2867
     35  CB        34.5500  -14.0130    9.3300 C.3   102  CYS102      0.0956
     36  SG        35.6940  -14.0430    7.9510 S.3   102  CYS102     -0.0801
     37  N         35.3300  -18.2070   10.1810 N.3   111  HIS111     -0.1241
     38  CA        35.0260  -18.0140    8.7520 C.3   111  HIS111      0.1621
     39  C         33.5590  -18.0250    8.4170 C.2   111  HIS111      0.2264
     40  O         33.1500  -18.2540    7.2770 O.2   111  HIS111     -0.2867
     41  CB        35.8800  -18.9630    7.9030 C.3   111  HIS111      0.0745
     42  CG        37.3430  -18.7170    8.0460 C.ar  111  HIS111      0.0817
     43  ND1       38.2980  -19.6290    7.6530 N.ar  111  HIS111     -0.2268
     44  CD2       38.0180  -17.6670    8.5790 C.ar  111  HIS111      0.1154
     45  CE1       39.4980  -19.1460    7.9180 C.ar  111  HIS111      0.1986
     46  NE2       39.3560  -17.9530    8.4740 N.ar  111  HIS111     -0.2212
     47  N         35.2320  -10.8050   12.9930 N.3   128  ASP128     -0.1239
     48  CA        36.5810  -10.6530   12.5050 C.3   128  ASP128      0.1674
     49  C         36.5220   -9.7580   11.2790 C.2   128  ASP128      0.2266
     50  O         35.8640  -10.0730   10.2340 O.2   128  ASP128     -0.2867
     51  CB        37.1600  -12.0080   12.1670 C.3   128  ASP128      0.1410
     52  CG        38.6320  -11.9670   11.7930 C.2   128  ASP128      0.3668
     53  OD1       39.0580  -11.0380   11.1270 O.co2 128  ASP128     -0.2456
     54  OD2       39.3890  -12.9240   12.1160 O.co2 128  ASP128     -0.2456
     55  N         38.8980   -6.9610    8.7780 N.3   130  THR130     -0.1218
     56  CA        40.1950   -6.5200    8.3290 C.3   130  THR130      0.1862
     57  C         40.0530   -5.2580    7.4850 C.2   130  THR130      0.2287
     58  O         39.1920   -5.1840    6.5770 O.2   130  THR130     -0.2866
     59  CB        40.9030   -7.6450    7.5230 C.3   130  THR130      0.1770
     60  OG1       40.9770   -8.8130    8.3220 O.3   130  THR130     -0.2211
     61  CG2       42.3070   -7.3120    7.1350 C.3   130  THR130      0.0375
     62  N         44.1880   -6.5510   10.9530 N.3   139  ASP139     -0.1239
     63  CA        43.1190   -7.5350   11.2500 C.3   139  ASP139      0.1674
     64  C         42.8880   -7.7170   12.7550 C.2   139  ASP139      0.2266
     65  O         43.8480   -7.9450   13.5300 O.2   139  ASP139     -0.2867
     66  CB        43.5220   -8.8850   10.5810 C.3   139  ASP139      0.1410
     67  CG        42.3940   -9.9270   10.6470 C.2   139  ASP139      0.3668
     68  OD1       42.6300  -11.0220   10.2040 O.co2 139  ASP139     -0.2456
     69  OD2       41.2510   -9.5760   11.0110 O.co2 139  ASP139     -0.2456
     70  N         49.0660  -15.4020   11.3890 N.3   202  HIS202     -0.1241
     71  CA        49.9210  -15.2890   10.2340 C.3   202  HIS202      0.1621
     72  C         50.5540  -13.8970   10.1430 C.2   202  HIS202      0.2264
     73  O         50.0350  -12.8980   10.7010 O.2   202  HIS202     -0.2867
     74  CB        49.0630  -15.5460    8.9830 C.3   202  HIS202      0.0745
     75  CG        47.8690  -14.6360    8.8900 C.ar  202  HIS202      0.0817
     76  ND1       47.9260  -13.3920    8.2910 N.ar  202  HIS202     -0.2268
     77  CD2       46.6070  -14.7780    9.3450 C.ar  202  HIS202      0.1154
     78  CE1       46.7520  -12.7970    8.3970 C.ar  202  HIS202      0.1986
     79  NE2       45.9360  -13.6140    9.0560 N.ar  202  HIS202     -0.2212
     80  N         47.8200  -10.0090    2.8820 N.3   208  PHE208     -0.1227
     81  CA        46.9440  -10.3790    3.9750 C.3   208  PHE208      0.1736
     82  C         47.6280  -11.5370    4.7610 C.2   208  PHE208      0.2595
     83  O         47.7070  -11.4560    5.9900 O.2   208  PHE208     -0.2718
     84  CB        45.5960  -10.7350    3.3960 C.3   208  PHE208      0.0547
     85  CG        44.4590  -10.8270    4.3670 C.ar  208  PHE208     -0.0202
     86  CD1       44.6000  -10.6350    5.7500 C.ar  208  PHE208     -0.0042
     87  CD2       43.1750  -11.1170    3.8440 C.ar  208  PHE208     -0.0042
     88  CE1       43.5100  -10.8110    6.5880 C.ar  208  PHE208     -0.0003
     89  CE2       42.0360  -11.2420    4.6880 C.ar  208  PHE208     -0.0003
     90  CZ        42.2300  -11.0840    6.0510 C.ar  208  PHE208     -0.0000
     91  N         48.1280  -12.5450    4.0520 N.am  209  HIS209     -0.1975
     92  CA        48.8210  -13.6610    4.6640 C.3   209  HIS209      0.1656
     93  C         50.1580  -13.8390    3.9250 C.2   209  HIS209      0.2291
     94  O         50.2270  -14.4850    2.8750 O.2   209  HIS209     -0.2864
     95  CB        47.9400  -14.9290    4.5950 C.3   209  HIS209      0.0771
     96  CG        46.5650  -14.8010    5.2190 C.ar  209  HIS209      0.0820
     97  ND1       45.6060  -13.9000    4.7890 N.ar  209  HIS209     -0.2267
     98  CD2       45.9560  -15.5450    6.1760 C.ar  209  HIS209      0.1154
     99  CE1       44.5000  -14.0470    5.4960 C.ar  209  HIS209      0.1986
    100  NE2       44.6790  -15.0590    6.3260 N.ar  209  HIS209     -0.2212
    101  N         45.7330  -15.1310   17.1560 N.3   235  GLU235     -0.1245
    102  CA        44.2940  -15.2970   16.9480 C.3   235  GLU235      0.1567
    103  C         43.8260  -16.6740   17.3660 C.2   235  GLU235      0.2260
    104  O         43.2410  -17.4170   16.5810 O.2   235  GLU235     -0.2867
    105  CB        43.9580  -14.9180   15.4790 C.3   235  GLU235      0.0388
    106  CG        44.5790  -15.8510   14.4220 C.3   235  GLU235      0.1160
    107  CD        44.0980  -15.5270   13.0430 C.2   235  GLU235      0.3649
    108  OE1       42.8930  -15.8050   12.7920 O.co2 235  GLU235     -0.2457
    109  OE2       44.9050  -14.9420   12.2400 O.co2 235  GLU235     -0.2457
    110  N         33.5140  -22.1670    3.3610 N.3   252  TRP252     -0.1241
    111  CA        34.1440  -21.2600    4.3150 C.3   252  TRP252      0.1605
    112  C         33.7990  -21.6610    5.7600 C.2   252  TRP252      0.2264
    113  O         34.7040  -21.8890    6.5870 O.2   252  TRP252     -0.2867
    114  CB        33.6800  -19.8340    4.0260 C.3   252  TRP252      0.0550
    115  CG        34.3300  -19.2250    2.8040 C.ar  252  TRP252      0.0003
    116  CD1       33.7740  -19.0100    1.5780 C.ar  252  TRP252      0.0946
    117  CD2       35.6760  -18.7670    2.7210 C.ar  252  TRP252      0.0152
    118  NE1       34.7110  -18.4700    0.7210 N.ar  252  TRP252     -0.2442
    119  CE2       35.8810  -18.2970    1.4110 C.ar  252  TRP252      0.0810
    120  CE3       36.7360  -18.7120    3.6350 C.ar  252  TRP252      0.0012
    121  CZ2       37.0800  -17.7830    1.0030 C.ar  252  TRP252      0.0191
    122  CZ3       37.9350  -18.1930    3.2200 C.ar  252  TRP252      0.0001
    123  CH2       38.0900  -17.7130    1.9230 C.ar  252  TRP252      0.0015
@<TRIPOS>BOND
     1     8     9    1
     2    10     9    1
     3    10    11    2
     4    20    21    1
     5     9    12    1
     6    23    22    2
     7    22    21    1
     8    21    24    1
     9    14    16   ar
    10    14    13   ar
    11    12    13    1
    12   118   119   ar
    13   118   116   ar
    14    16    18   ar
    15   121   119   ar
    16   121   123   ar
    17    13    15   ar
    18    24    25    1
    19   119   117   ar
    20     4     3    2
    21   116   115   ar
    22    18    19    1
    23    18    17   ar
    24   123   122   ar
    25    15    17   ar
    26     3     2    1
    27    25    27   ar
    28    25    26   ar
    29   117   115   ar
    30   117   120   ar
    31   115   114    1
    32    94    93    2
    33    80    81    1
    34    27    29   ar
    35   122   120   ar
    36     2     1    1
    37     2     5    1
    38    26    28   ar
    39   110   111    1
    40    84    81    1
    41    84    85    1
    42    87    85   ar
    43    87    89   ar
    44    93    92    1
    45    81    82    1
    46   114   111    1
    47    91    92    1
    48    91    82   am
    49    29    30   ar
    50   111   112    1
    51    85    86   ar
    52     5     6    1
    53     5     7    1
    54    28    30   ar
    55    95    92    1
    56    95    96    1
    57    89    90   ar
    58    82    83    2
    59    97    96   ar
    60    97    99   ar
    61    96    98   ar
    62    99   100   ar
    63    86    88   ar
    64   112   113    2
    65    90    88   ar
    66    98   100   ar
    67    58    57    2
    68    61    59    1
    69    40    39    2
    70    57    56    1
    71    59    60    1
    72    59    56    1
    73    43    45   ar
    74    43    42   ar
    75    41    42    1
    76    41    38    1
    77    45    46   ar
    78    36    35    1
    79    42    44   ar
    80    76    78   ar
    81    76    75   ar
    82    56    55    1
    83    78    79   ar
    84    39    38    1
    85    46    44   ar
    86    38    37    1
    87    75    74    1
    88    75    77   ar
    89    74    71    1
    90    31    32    1
    91    79    77   ar
    92    35    32    1
    93    32    33    1
    94    72    71    1
    95    72    73    2
    96    68    67   ar
    97    71    70    1
    98    50    49    2
    99    66    67    1
   100    66    63    1
   101    67    69   ar
   102    33    34    2
   103    62    63    1
   104    53    52   ar
   105    63    64    1
   106    49    48    1
   107    52    54   ar
   108    52    51    1
   109    51    48    1
   110   109   107   ar
   111    48    47    1
   112    64    65    2
   113   108   107   ar
   114   107   106    1
   115   106   105    1
   116   105   102    1
   117   104   103    2
   118   102   101    1
   119   102   103    1
