@<TRIPOS>MOLECULE
tmp/4idzA00.pdb
 138 125 0 0 0
SMALL
GASTEIGER

@<TRIPOS>ATOM
      1  N         31.6740  -17.5600  -26.5320 N.3    70  ARG70      -0.1245
      2  CA        30.6110  -17.1000  -25.6610 C.3    70  ARG70       0.1563
      3  C         29.6470  -18.1760  -25.2230 C.2    70  ARG70       0.2260
      4  O         29.4860  -19.1910  -25.8820 O.2    70  ARG70      -0.2867
      5  CB        29.8050  -16.0070  -26.3570 C.3    70  ARG70       0.0307
      6  CG        30.6040  -14.7650  -26.5940 C.3    70  ARG70       0.0489
      7  CD        29.7450  -13.6270  -27.0480 C.3    70  ARG70       0.2205
      8  NE        30.3780  -12.3800  -26.6250 N.pl3  70  ARG70      -0.0865
      9  CZ        30.3180  -11.2380  -27.2850 C.cat  70  ARG70       0.5346
     10  NH1       29.6530  -11.1500  -28.4180 N.pl3  70  ARG70       0.1354
     11  NH2       30.9290  -10.1850  -26.8030 N.pl3  70  ARG70       0.1354
     12  N         26.0710  -13.0270  -20.2950 N.3   150  LEU150     -0.1245
     13  CA        26.8660  -13.4900  -21.4130 C.3   150  LEU150      0.1561
     14  C         28.3110  -13.6430  -20.9580 C.2   150  LEU150      0.2260
     15  O         29.0170  -12.6610  -20.6830 O.2   150  LEU150     -0.2867
     16  CB        26.7450  -12.5360  -22.6200 C.3   150  LEU150      0.0270
     17  CG        27.1330  -13.1490  -23.9850 C.3   150  LEU150      0.0019
     18  CD1       26.2770  -14.3700  -24.2790 C.3   150  LEU150      0.0001
     19  CD2       26.9730  -12.1840  -25.1040 C.3   150  LEU150      0.0001
     20  N         32.1530  -14.5210  -21.6800 N.3   152  ASN152     -0.1240
     21  CA        33.1160  -14.3720  -22.7760 C.3   152  ASN152      0.1653
     22  C         34.4250  -15.0290  -22.3860 C.2   152  ASN152      0.2266
     23  O         34.8640  -14.9320  -21.2370 O.2   152  ASN152     -0.2867
     24  CB        33.4450  -12.8940  -23.0580 C.3   152  ASN152      0.1155
     25  CG        32.2320  -12.0510  -23.3500 C.2   152  ASN152      0.2627
     26  OD1       31.7880  -11.9620  -24.4970 O.2   152  ASN152     -0.2716
     27  ND2       31.7070  -11.3880  -22.3200 N.am  152  ASN152     -0.0877
     28  N         37.1250   -7.3240  -27.8860 N.3   175  VAL175     -0.1245
     29  CA        35.7800   -6.9960  -28.3250 C.3   175  VAL175      0.1561
     30  C         35.7960   -5.5140  -28.6750 C.2   175  VAL175      0.2260
     31  O         36.2170   -4.7030  -27.8630 O.2   175  VAL175     -0.2867
     32  CB        34.7440   -7.2640  -27.2210 C.3   175  VAL175      0.0252
     33  CG1       33.3660   -6.8330  -27.6760 C.3   175  VAL175      0.0019
     34  CG2       34.7480   -8.7250  -26.8490 C.3   175  VAL175      0.0019
     35  N         31.3200   -0.8760  -28.8580 N.3   178  HIS178     -0.1241
     36  CA        29.9060   -1.1980  -29.0760 C.3   178  HIS178      0.1621
     37  C         29.0220   -0.6560  -27.9540 C.2   178  HIS178      0.2264
     38  O         29.5120   -0.1960  -26.9260 O.2   178  HIS178     -0.2867
     39  CB        29.7110   -2.7100  -29.1630 C.3   178  HIS178      0.0745
     40  CG        29.9260   -3.4250  -27.8590 C.ar  178  HIS178      0.0817
     41  ND1       31.1810   -3.7490  -27.3870 N.ar  178  HIS178     -0.2268
     42  CD2       29.0470   -3.8740  -26.9280 C.ar  178  HIS178      0.1154
     43  CE1       31.0650   -4.3710  -26.2270 C.ar  178  HIS178      0.1986
     44  NE2       29.7810   -4.4550  -25.9200 N.ar  178  HIS178     -0.2212
     45  N         25.8700   -2.3320  -25.7050 N.3   180  ASP180     -0.1239
     46  CA        25.1970   -3.5970  -25.5040 C.3   180  ASP180      0.1674
     47  C         23.7640   -3.4270  -25.9960 C.2   180  ASP180      0.2266
     48  O         23.0890   -2.4860  -25.6120 O.2   180  ASP180     -0.2867
     49  CB        25.2110   -3.9790  -24.0330 C.3   180  ASP180      0.1410
     50  CG        26.5480   -4.5450  -23.5790 C.2   180  ASP180      0.3668
     51  OD1       27.4350   -4.7790  -24.4280 O.co2 180  ASP180     -0.2456
     52  OD2       26.7140   -4.7760  -22.3640 O.co2 180  ASP180     -0.2456
     53  N         29.7190   -6.7400  -14.4250 N.3   191  VAL191     -0.1245
     54  CA        30.7080   -7.5710  -15.0900 C.3   191  VAL191      0.1561
     55  C         31.7550   -8.0590  -14.1000 C.2   191  VAL191      0.2260
     56  O         32.4200   -7.2610  -13.4230 O.2   191  VAL191     -0.2867
     57  CB        31.4110   -6.8270  -16.2330 C.3   191  VAL191      0.0252
     58  CG1       32.4910   -7.7020  -16.8360 C.3   191  VAL191      0.0019
     59  CG2       30.4210   -6.4480  -17.2760 C.3   191  VAL191      0.0019
     60  N         38.9020   -2.7390  -19.7870 N.3   206  VAL206     -0.1245
     61  CA        37.6680   -2.4200  -20.4440 C.3   206  VAL206      0.1561
     62  C         37.8680   -0.9700  -20.8710 C.2   206  VAL206      0.2260
     63  O         38.4480   -0.1760  -20.1320 O.2   206  VAL206     -0.2867
     64  CB        36.4580   -2.6360  -19.5140 C.3   206  VAL206      0.0252
     65  CG1       36.6450   -1.8980  -18.1880 C.3   206  VAL206      0.0019
     66  CG2       35.2000   -2.1880  -20.1930 C.3   206  VAL206      0.0019
     67  N         41.6720   -4.4940  -15.5350 N.3   223  LEU223     -0.1245
     68  CA        40.9660   -5.5450  -14.8170 C.3   223  LEU223      0.1561
     69  C         41.9420   -6.6510  -14.3850 C.2   223  LEU223      0.2260
     70  O         42.7810   -7.1100  -15.1620 O.2   223  LEU223     -0.2867
     71  CB        39.8330   -6.1060  -15.6870 C.3   223  LEU223      0.0270
     72  CG        38.8440   -5.0300  -16.1260 C.3   223  LEU223      0.0019
     73  CD1       37.8270   -5.5440  -17.1470 C.3   223  LEU223      0.0001
     74  CD2       38.1390   -4.4260  -14.8950 C.3   223  LEU223      0.0001
     75  N         33.0590   -4.5370  -12.6270 N.3   229  TYR229     -0.1241
     76  CA        32.6520   -3.1710  -12.9080 C.3   229  TYR229      0.1605
     77  C         31.1990   -3.1500  -13.3440 C.2   229  TYR229      0.2264
     78  O         30.6610   -4.1590  -13.7910 O.2   229  TYR229     -0.2867
     79  CB        33.5530   -2.5130  -13.9540 C.3   229  TYR229      0.0534
     80  CG        33.5070   -3.1410  -15.3190 C.ar  229  TYR229     -0.0201
     81  CD1       32.5890   -2.7010  -16.2710 C.ar  229  TYR229     -0.0009
     82  CD2       34.3890   -4.1570  -15.6700 C.ar  229  TYR229     -0.0009
     83  CE1       32.5330   -3.2640  -17.5310 C.ar  229  TYR229      0.0417
     84  CE2       34.3450   -4.7320  -16.9270 C.ar  229  TYR229      0.0417
     85  CZ        33.4130   -4.2860  -17.8550 C.ar  229  TYR229      0.1957
     86  OH        33.3650   -4.8480  -19.1120 O.3   229  TYR229     -0.2866
     87  N         31.6270    0.9520  -25.1970 N.3   241  HIS241     -0.1241
     88  CA        32.7240    0.3090  -24.5220 C.3   241  HIS241      0.1621
     89  C         33.3700   -0.7400  -25.4460 C.2   241  HIS241      0.2264
     90  O         32.7970   -1.0990  -26.4870 O.2   241  HIS241     -0.2867
     91  CB        32.2670   -0.2990  -23.1940 C.3   241  HIS241      0.0745
     92  CG        31.2230   -1.3650  -23.3440 C.ar  241  HIS241      0.0817
     93  ND1       29.8820   -1.0790  -23.4980 N.ar  241  HIS241     -0.2268
     94  CD2       31.3280   -2.7170  -23.3730 C.ar  241  HIS241      0.1154
     95  CE1       29.2070   -2.2100  -23.6230 C.ar  241  HIS241      0.1986
     96  NE2       30.0590   -3.2200  -23.5490 N.ar  241  HIS241     -0.2212
     97  N         36.6470   -4.1060  -25.1600 N.3   243  VAL243     -0.1245
     98  CA        37.5030   -4.8660  -24.2680 C.3   243  VAL243      0.1561
     99  C         38.8910   -4.8890  -24.8870 C.2   243  VAL243      0.2260
    100  O         39.0400   -5.2530  -26.0420 O.2   243  VAL243     -0.2867
    101  CB        36.9610   -6.2810  -24.0690 C.3   243  VAL243      0.0252
    102  CG1       37.9160   -7.0960  -23.2460 C.3   243  VAL243      0.0019
    103  CG2       35.5880   -6.2250  -23.4030 C.3   243  VAL243      0.0019
    104  N         41.5340  -15.0050  -20.5990 N.3   250  ARG250     -0.1245
    105  CA        40.6070  -14.3490  -19.6710 C.3   250  ARG250      0.1563
    106  C         39.1260  -14.6080  -19.9870 C.2   250  ARG250      0.2260
    107  O         38.7340  -14.7850  -21.1440 O.2   250  ARG250     -0.2867
    108  CB        40.8630  -12.8410  -19.6210 C.3   250  ARG250      0.0307
    109  CG        39.8530  -12.0800  -18.7810 C.3   250  ARG250      0.0489
    110  CD        39.5120  -10.8020  -19.4790 C.3   250  ARG250      0.2205
    111  NE        38.4680   -9.9950  -18.8430 N.pl3 250  ARG250     -0.0865
    112  CZ        37.3670   -9.5710  -19.4530 C.cat 250  ARG250      0.5346
    113  NH1       37.1180   -9.9020  -20.7140 N.pl3 250  ARG250      0.1354
    114  NH2       36.5050   -8.8130  -18.7970 N.pl3 250  ARG250      0.1354
    115  N         34.8970  -13.4640  -18.8000 N.3   252  SER252     -0.1217
    116  CA        34.0640  -12.5070  -18.0950 C.3   252  SER252      0.1889
    117  C         32.6400  -13.0380  -18.0240 C.2   252  SER252      0.2288
    118  O         32.2470  -13.8940  -18.8150 O.2   252  SER252     -0.2866
    119  CB        34.1190  -11.1190  -18.7480 C.3   252  SER252      0.2089
    120  OG        33.5190  -11.1130  -20.0270 O.3   252  SER252     -0.2183
    121  N         29.0280  -11.2000  -18.0310 N.3   254  THR254     -0.1218
    122  CA        28.3840   -9.9000  -18.1840 C.3   254  THR254      0.1862
    123  C         26.8770  -10.0480  -17.9760 C.2   254  THR254      0.2287
    124  O         26.1570  -10.4910  -18.8750 O.2   254  THR254     -0.2866
    125  CB        28.6630   -9.2750  -19.5660 C.3   254  THR254      0.1770
    126  OG1       28.1470  -10.1290  -20.5920 O.3   254  THR254     -0.2211
    127  CG2       30.1280   -9.1150  -19.7940 C.3   254  THR254      0.0375
    128  N         23.0690   -8.8860  -17.4940 N.3   256  ARG256     -0.1245
    129  CA        22.2390   -7.9260  -18.2070 C.3   256  ARG256      0.1563
    130  C         20.7880   -8.1400  -17.8380 C.2   256  ARG256      0.2260
    131  O         20.3890   -9.2570  -17.4880 O.2   256  ARG256     -0.2867
    132  CB        22.3730   -8.1480  -19.7110 C.3   256  ARG256      0.0307
    133  CG        23.7810   -8.1140  -20.2250 C.3   256  ARG256      0.0489
    134  CD        24.1110   -9.2860  -21.1100 C.3   256  ARG256      0.2205
    135  NE        25.4900   -9.2050  -21.5940 N.pl3 256  ARG256     -0.0865
    136  CZ        25.8670   -8.5580  -22.6910 C.cat 256  ARG256      0.5346
    137  NH1       24.9740   -7.9190  -23.4340 N.pl3 256  ARG256      0.1354
    138  NH2       27.1410   -8.5410  -23.0420 N.pl3 256  ARG256      0.1354
@<TRIPOS>BOND
     1    39    36    1
     2    39    40    1
     3    36    35    1
     4    36    37    1
     5    30    29    1
     6    30    31    2
     7    10     9    1
     8    29    28    1
     9    29    32    1
    10    37    38    2
    11    40    41   ar
    12    40    42   ar
    13    33    32    1
    14    41    43   ar
    15     9    11    1
    16     9     8    2
    17    32    34    1
    18     7     8    1
    19     7     6    1
    20    42    44   ar
    21     6     5    1
    22     1     2    1
    23    90    89    2
    24     5     2    1
    25    43    44   ar
    26   100    99    2
    27    47    48    2
    28    47    46    1
    29     4     3    2
    30    45    46    1
    31     2     3    1
    32    46    49    1
    33    89    88    1
    34    87    88    1
    35    97    98    1
    36    19    17    1
    37    99    98    1
    38    88    91    1
    39    26    25    2
    40    51    50   ar
    41    18    17    1
    42    98   101    1
    43   101   103    1
    44   101   102    1
    45    49    50    1
    46    17    16    1
    47    95    96   ar
    48    95    93   ar
    49    50    52   ar
    50    96    94   ar
    51    93    92   ar
    52   137   136    1
    53    94    92   ar
    54    25    24    1
    55    25    27   am
    56    92    91    1
    57    24    21    1
    58   138   136    1
    59    21    22    1
    60    21    20    1
    61   136   135    2
    62    16    13    1
    63    22    23    2
    64   135   134    1
    65    13    14    1
    66    13    12    1
    67   107   106    2
    68   134   133    1
    69    14    15    2
    70    62    61    1
    71    62    63    2
    72   113   112    1
    73   104   105    1
    74   126   125    1
    75    61    60    1
    76    61    64    1
    77   133   132    1
    78    66    64    1
    79   120   119    1
    80   106   105    1
    81   127   125    1
    82   132   129    1
    83   105   108    1
    84   108   109    1
    85   125   122    1
    86    64    65    1
    87   110   111    1
    88   110   109    1
    89   112   111    2
    90   112   114    1
    91    86    85    1
    92   124   123    2
    93   118   117    2
    94   115   116    1
    95   119   116    1
    96   129   130    1
    97   129   128    1
    98   122   121    1
    99   122   123    1
   100   116   117    1
   101    85    83   ar
   102    85    84   ar
   103   130   131    2
   104    83    81   ar
   105    59    57    1
   106    73    72    1
   107    84    82   ar
   108    58    57    1
   109    81    80   ar
   110    57    54    1
   111    72    71    1
   112    72    74    1
   113    71    68    1
   114    82    80   ar
   115    67    68    1
   116    80    79    1
   117    70    69    2
   118    54    53    1
   119    54    55    1
   120    68    69    1
   121    55    56    2
   122    79    76    1
   123    78    77    2
   124    77    76    1
   125    76    75    1
