@<TRIPOS>MOLECULE
tmp/4ie0A00.pdb
 138 125 0 0 0
SMALL
GASTEIGER

@<TRIPOS>ATOM
      1  N         31.7660  -17.4360  -26.7780 N.3    70  ARG70      -0.1245
      2  CA        30.7980  -17.0830  -25.7690 C.3    70  ARG70       0.1563
      3  C         29.8140  -18.1610  -25.4480 C.2    70  ARG70       0.2260
      4  O         29.6300  -19.1270  -26.1630 O.2    70  ARG70      -0.2867
      5  CB        30.0050  -15.8220  -26.1570 C.3    70  ARG70       0.0307
      6  CG        30.5490  -15.0790  -27.3450 C.3    70  ARG70       0.0489
      7  CD        29.7060  -13.8850  -27.6690 C.3    70  ARG70       0.2205
      8  NE        29.9990  -12.7740  -26.7670 N.pl3  70  ARG70      -0.0865
      9  CZ        30.6080  -11.6420  -27.1120 C.cat  70  ARG70       0.5346
     10  NH1       31.0140  -11.4330  -28.3560 N.pl3  70  ARG70       0.1354
     11  NH2       30.8110  -10.7060  -26.1990 N.pl3  70  ARG70       0.1354
     12  N         32.3600  -14.4220  -21.9440 N.3   154  ASN154     -0.1240
     13  CA        33.3690  -14.3060  -23.0030 C.3   154  ASN154      0.1653
     14  C         34.6630  -15.0010  -22.6650 C.2   154  ASN154      0.2266
     15  O         35.1140  -14.9490  -21.5170 O.2   154  ASN154     -0.2867
     16  CB        33.7330  -12.8460  -23.2330 C.3   154  ASN154      0.1155
     17  CG        32.5740  -12.0320  -23.6790 C.2   154  ASN154      0.2627
     18  OD1       32.2270  -12.0440  -24.8490 O.2   154  ASN154     -0.2716
     19  ND2       31.9540  -11.3170  -22.7530 N.am  154  ASN154     -0.0877
     20  N         37.2910   -6.9240  -28.4110 N.3   177  VAL177     -0.1245
     21  CA        35.9730   -6.4810  -28.8810 C.3   177  VAL177      0.1561
     22  C         36.0200   -4.9840  -29.1990 C.2   177  VAL177      0.2260
     23  O         36.3610   -4.1870  -28.3200 O.2   177  VAL177     -0.2867
     24  CB        34.9040   -6.7010  -27.7930 C.3   177  VAL177      0.0252
     25  CG1       33.5030   -6.5180  -28.3650 C.3   177  VAL177      0.0019
     26  CG2       35.0580   -8.0880  -27.1710 C.3   177  VAL177      0.0019
     27  N         31.5450   -0.4720  -29.1760 N.3   180  HIS180     -0.1241
     28  CA        30.1360   -0.7920  -29.3750 C.3   180  HIS180      0.1621
     29  C         29.3090   -0.3010  -28.1830 C.2   180  HIS180      0.2264
     30  O         29.8470    0.0840  -27.1570 O.2   180  HIS180     -0.2867
     31  CB        29.9780   -2.3060  -29.5010 C.3   180  HIS180      0.0745
     32  CG        30.2820   -3.0300  -28.2290 C.ar  180  HIS180      0.0817
     33  ND1       31.5660   -3.2060  -27.7630 N.ar  180  HIS180     -0.2268
     34  CD2       29.4660   -3.5750  -27.2990 C.ar  180  HIS180      0.1154
     35  CE1       31.5210   -3.8370  -26.6010 C.ar  180  HIS180      0.1986
     36  NE2       30.2640   -4.0660  -26.2960 N.ar  180  HIS180     -0.2212
     37  N         26.4010   -2.1150  -25.7050 N.3   182  ASP182     -0.1239
     38  CA        25.6260   -3.3220  -25.4330 C.3   182  ASP182      0.1674
     39  C         24.1670   -3.0260  -25.7950 C.2   182  ASP182      0.2266
     40  O         23.5590   -2.1330  -25.2290 O.2   182  ASP182     -0.2867
     41  CB        25.7510   -3.7280  -23.9690 C.3   182  ASP182      0.1410
     42  CG        27.1580   -4.1700  -23.6050 C.2   182  ASP182      0.3668
     43  OD1       27.9140   -4.5500  -24.5150 O.co2 182  ASP182     -0.2456
     44  OD2       27.5120   -4.1370  -22.4120 O.co2 182  ASP182     -0.2456
     45  N         30.1920   -6.3510  -14.8380 N.3   193  VAL193     -0.1245
     46  CA        31.1720   -7.2300  -15.4550 C.3   193  VAL193      0.1561
     47  C         32.1330   -7.7890  -14.4310 C.2   193  VAL193      0.2260
     48  O         32.7670   -7.0340  -13.6810 O.2   193  VAL193     -0.2867
     49  CB        31.9840   -6.5150  -16.5310 C.3   193  VAL193      0.0252
     50  CG1       32.9780   -7.4700  -17.1310 C.3   193  VAL193      0.0019
     51  CG2       31.0630   -5.9580  -17.6260 C.3   193  VAL193      0.0019
     52  N         39.3390   -2.3420  -20.2570 N.3   210  VAL210     -0.1245
     53  CA        38.1310   -1.9570  -20.9580 C.3   210  VAL210      0.1561
     54  C         38.2840   -0.4820  -21.3630 C.2   210  VAL210      0.2260
     55  O         38.6620    0.3440  -20.5490 O.2   210  VAL210     -0.2867
     56  CB        36.8760   -2.1470  -20.0810 C.3   210  VAL210      0.0252
     57  CG1       37.0410   -1.4440  -18.7210 C.3   210  VAL210      0.0019
     58  CG2       35.6410   -1.6470  -20.8110 C.3   210  VAL210      0.0019
     59  N         42.2350   -4.0650  -16.0730 N.3   227  LEU227     -0.1245
     60  CA        41.5080   -5.1270  -15.3940 C.3   227  LEU227      0.1561
     61  C         42.4280   -6.2470  -14.9380 C.2   227  LEU227      0.2260
     62  O         43.1110   -6.8950  -15.7290 O.2   227  LEU227     -0.2867
     63  CB        40.4190   -5.6830  -16.2980 C.3   227  LEU227      0.0270
     64  CG        39.3040   -4.6700  -16.4950 C.3   227  LEU227      0.0019
     65  CD1       38.3670   -5.0890  -17.6020 C.3   227  LEU227      0.0001
     66  CD2       38.5590   -4.4580  -15.1720 C.3   227  LEU227      0.0001
     67  N         33.3080   -4.1920  -12.7670 N.3   233  TYR233     -0.1241
     68  CA        32.8980   -2.8200  -13.0100 C.3   233  TYR233      0.1605
     69  C         31.4400   -2.7570  -13.4430 C.2   233  TYR233      0.2264
     70  O         30.8930   -3.7320  -13.9320 O.2   233  TYR233     -0.2867
     71  CB        33.8180   -2.1300  -14.0090 C.3   233  TYR233      0.0534
     72  CG        33.7640   -2.6630  -15.4030 C.ar  233  TYR233     -0.0201
     73  CD1       32.9250   -2.1030  -16.3600 C.ar  233  TYR233     -0.0009
     74  CD2       34.5790   -3.7070  -15.7800 C.ar  233  TYR233     -0.0009
     75  CE1       32.8850   -2.5950  -17.6550 C.ar  233  TYR233      0.0417
     76  CE2       34.5560   -4.1970  -17.0570 C.ar  233  TYR233      0.0417
     77  CZ        33.7200   -3.6360  -17.9870 C.ar  233  TYR233      0.1957
     78  OH        33.7520   -4.1750  -19.2420 O.3   233  TYR233     -0.2866
     79  N         28.4030   -0.4610  -15.4370 N.3   235  MET235     -0.1245
     80  CA        27.9200    0.6540  -16.2130 C.3   235  MET235      0.1570
     81  C         26.5250    1.0070  -15.7120 C.2   235  MET235      0.2261
     82  O         25.6120    0.1770  -15.7630 O.2   235  MET235     -0.2867
     83  CB        27.9150    0.2850  -17.6860 C.3   235  MET235      0.0387
     84  CG        29.2920   -0.2400  -18.1760 C.3   235  MET235      0.0595
     85  SD        29.2810   -0.4800  -19.9620 S.3   235  MET235     -0.1393
     86  CE        29.9150   -2.1520  -20.1150 C.3   235  MET235      0.0692
     87  N         32.0360    1.3730  -25.4040 N.3   245  HIS245     -0.1241
     88  CA        33.1320    0.7210  -24.7500 C.3   245  HIS245      0.1621
     89  C         33.6880   -0.3210  -25.7020 C.2   245  HIS245      0.2264
     90  O         32.9910   -0.7490  -26.6410 O.2   245  HIS245     -0.2867
     91  CB        32.7140    0.1070  -23.4190 C.3   245  HIS245      0.0745
     92  CG        31.6550   -0.9400  -23.5560 C.ar  245  HIS245      0.0817
     93  ND1       30.3070   -0.6370  -23.5760 N.ar  245  HIS245     -0.2268
     94  CD2       31.7460   -2.2810  -23.6990 C.ar  245  HIS245      0.1154
     95  CE1       29.6170   -1.7540  -23.7090 C.ar  245  HIS245      0.1986
     96  NE2       30.4650   -2.7630  -23.7970 N.ar  245  HIS245     -0.2212
     97  N         36.8200   -3.7770  -25.5420 N.3   247  VAL247     -0.1245
     98  CA        37.6690   -4.5750  -24.6710 C.3   247  VAL247      0.1561
     99  C         39.0540   -4.7130  -25.2920 C.2   247  VAL247      0.2260
    100  O         39.1970   -5.2550  -26.3840 O.2   247  VAL247     -0.2867
    101  CB        37.1080   -5.9760  -24.4280 C.3   247  VAL247      0.0252
    102  CG1       38.1080   -6.7970  -23.5900 C.3   247  VAL247      0.0019
    103  CG2       35.7250   -5.9160  -23.7610 C.3   247  VAL247      0.0019
    104  N         41.7250  -14.6900  -21.0390 N.3   254  ARG254     -0.1245
    105  CA        40.8450  -14.0450  -20.0820 C.3   254  ARG254      0.1563
    106  C         39.3770  -14.4090  -20.3190 C.2   254  ARG254      0.2260
    107  O         38.9280  -14.4790  -21.4680 O.2   254  ARG254     -0.2867
    108  CB        41.0190  -12.5350  -20.1820 C.3   254  ARG254      0.0307
    109  CG        40.0530  -11.7600  -19.3440 C.3   254  ARG254      0.0489
    110  CD        39.5360  -10.6020  -20.1500 C.3   254  ARG254      0.2205
    111  NE        38.6960   -9.6960  -19.3690 N.pl3 254  ARG254     -0.0865
    112  CZ        37.5850   -9.1370  -19.8220 C.cat 254  ARG254      0.5346
    113  NH1       37.1630   -9.3790  -21.0550 N.pl3 254  ARG254      0.1354
    114  NH2       36.8960   -8.3240  -19.0340 N.pl3 254  ARG254      0.1354
    115  N         35.2560  -13.2900  -19.0920 N.3   256  SER256     -0.1217
    116  CA        34.4500  -12.2490  -18.4530 C.3   256  SER256      0.1889
    117  C         33.0100  -12.7190  -18.3120 C.2   256  SER256      0.2288
    118  O         32.5300  -13.4870  -19.1290 O.2   256  SER256     -0.2866
    119  CB        34.5230  -10.9330  -19.2390 C.3   256  SER256      0.2089
    120  OG        33.9710  -11.0530  -20.5480 O.3   256  SER256     -0.2183
    121  N         29.4340  -10.9370  -18.2780 N.3   258  THR258     -0.1218
    122  CA        28.7770   -9.6550  -18.4750 C.3   258  THR258      0.1862
    123  C         27.2530   -9.7690  -18.2170 C.2   258  THR258      0.2287
    124  O         26.4730  -10.1940  -19.0710 O.2   258  THR258     -0.2866
    125  CB        29.1080   -9.1080  -19.8710 C.3   258  THR258      0.1770
    126  OG1       28.5370   -9.9600  -20.8630 O.3   258  THR258     -0.2211
    127  CG2       30.6190   -9.0900  -20.0880 C.3   258  THR258      0.0375
    128  N         23.4920   -8.6390  -17.5860 N.3   260  ARG260     -0.1245
    129  CA        22.6530   -7.6270  -18.1660 C.3   260  ARG260      0.1563
    130  C         21.1620   -7.8950  -18.0130 C.2   260  ARG260      0.2260
    131  O         20.7260   -9.0180  -17.7070 O.2   260  ARG260     -0.2867
    132  CB        23.0280   -7.4230  -19.6400 C.3   260  ARG260      0.0307
    133  CG        23.4780   -8.6580  -20.3500 C.3   260  ARG260      0.0489
    134  CD        24.9220   -8.5960  -20.8180 C.3   260  ARG260      0.2205
    135  NE        25.0180   -8.1340  -22.1930 N.pl3 260  ARG260     -0.0865
    136  CZ        26.1410   -8.0840  -22.8880 C.cat 260  ARG260      0.5346
    137  NH1       27.2810   -8.4680  -22.3510 N.pl3 260  ARG260      0.1354
    138  NH2       26.1280   -7.6400  -24.1260 N.pl3 260  ARG260      0.1354
@<TRIPOS>BOND
     1    31    28    1
     2    31    32    1
     3    28    27    1
     4    28    29    1
     5    22    21    1
     6    22    23    2
     7    21    20    1
     8    21    24    1
     9    25    24    1
    10    10     9    1
    11    32    33   ar
    12    32    34   ar
    13    29    30    2
    14    24    26    1
    15    33    35   ar
    16     7     6    1
    17     7     8    1
    18     6     5    1
    19    34    36   ar
    20     9     8    2
    21     9    11    1
    22     1     2    1
    23    90    89    2
    24    35    36   ar
    25   100    99    2
    26     4     3    2
    27     5     2    1
    28    39    38    1
    29    39    40    2
    30     2     3    1
    31    37    38    1
    32    89    88    1
    33    97    98    1
    34    38    41    1
    35    87    88    1
    36    99    98    1
    37    18    17    2
    38    88    91    1
    39    98   101    1
    40    43    42   ar
    41   101   103    1
    42   101   102    1
    43   138   136    1
    44    41    42    1
    45    96    95   ar
    46    96    94   ar
    47    95    93   ar
    48    94    92   ar
    49    17    16    1
    50    17    19   am
    51    42    44   ar
    52    93    92   ar
    53    92    91    1
    54    16    13    1
    55    13    14    1
    56    13    12    1
    57   136   137    1
    58   136   135    2
    59    14    15    2
    60   135   134    1
    61   107   106    2
    62    54    53    1
    63    54    55    2
    64   113   112    1
    65   104   105    1
    66    53    52    1
    67    53    56    1
    68   126   125    1
    69   134   133    1
    70    58    56    1
    71   120   119    1
    72   133   132    1
    73   106   105    1
    74   108   105    1
    75   108   109    1
    76   110   111    1
    77   110   109    1
    78    86    85    1
    79   127   125    1
    80    56    57    1
    81    85    84    1
    82   125   122    1
    83   112   111    2
    84   112   114    1
    85   132   129    1
    86    78    77    1
    87   119   116    1
    88   118   117    2
    89   115   116    1
    90   124   123    2
    91   122   121    1
    92   122   123    1
    93   116   117    1
    94    84    83    1
    95   129   130    1
    96   129   128    1
    97   130   131    2
    98    77    75   ar
    99    77    76   ar
   100    83    80    1
   101    75    73   ar
   102    51    49    1
   103    65    64    1
   104    50    49    1
   105    76    74   ar
   106    49    46    1
   107    64    63    1
   108    64    66    1
   109    73    72   ar
   110    63    60    1
   111    80    81    1
   112    80    79    1
   113    59    60    1
   114    74    72   ar
   115    82    81    2
   116    62    61    2
   117    46    45    1
   118    46    47    1
   119    72    71    1
   120    60    61    1
   121    47    48    2
   122    71    68    1
   123    70    69    2
   124    69    68    1
   125    68    67    1
