@<TRIPOS>MOLECULE
tmp/4ie1A00.pdb
 117 107 0 0 0
SMALL
GASTEIGER

@<TRIPOS>ATOM
      1  N         27.8940   16.9560   16.5410 N.3   122  HIS122     -0.1241
      2  CA        26.4360   16.8300   16.8010 C.3   122  HIS122      0.1621
      3  C         26.1300   15.9220   17.9880 C.2   122  HIS122      0.2264
      4  O         26.9300   15.0570   18.3460 O.2   122  HIS122     -0.2867
      5  CB        25.7510   16.3180   15.5480 C.3   122  HIS122      0.0745
      6  CG        26.2450   16.9920   14.2890 C.ar  122  HIS122      0.0817
      7  ND1       27.1970   16.4610   13.5160 N.ar  122  HIS122     -0.2268
      8  CD2       25.8940   18.2100   13.7070 C.ar  122  HIS122      0.1154
      9  CE1       27.4240   17.2950   12.4710 C.ar  122  HIS122      0.1986
     10  NE2       26.6180   18.3530   12.6030 N.ar  122  HIS122     -0.2212
     11  N         23.5550   13.9720   18.0150 N.3   124  ASP124     -0.1239
     12  CA        22.8880   12.8050   17.4090 C.3   124  ASP124      0.1674
     13  C         21.7980   12.2360   18.3140 C.2   124  ASP124      0.2266
     14  O         21.6150   10.9960   18.4240 O.2   124  ASP124     -0.2867
     15  CB        23.9300   11.7040   17.1470 C.3   124  ASP124      0.1410
     16  CG        24.9400   12.0950   16.0760 C.2   124  ASP124      0.3668
     17  OD1       25.7660   11.2270   15.7140 O.co2 124  ASP124     -0.2456
     18  OD2       24.8670   13.2330   15.5490 O.co2 124  ASP124     -0.2456
     19  N         18.4360   13.4460   18.3520 N.3   126  ASN126     -0.1240
     20  CA        17.0500   13.6620   17.9290 C.3   126  ASN126      0.1653
     21  C         16.2450   12.3910   18.0810 C.2   126  ASN126      0.2266
     22  O         16.8080   11.2870   17.9460 O.2   126  ASN126     -0.2867
     23  CB        16.9980   14.1400   16.4870 C.3   126  ASN126      0.1155
     24  CG        17.1260   15.6300   16.4140 C.2   126  ASN126      0.2627
     25  OD1       16.3150   16.3290   17.0300 O.2   126  ASN126     -0.2716
     26  ND2       18.1360   16.1250   15.7120 N.am  126  ASN126     -0.0877
     27  N         13.2050   15.0810   15.1960 N.3   131  THR131     -0.1203
     28  CA        14.0170   15.2650   13.9610 C.3   131  THR131      0.1994
     29  C         13.2900   16.1680   12.9520 C.2   131  THR131      0.2619
     30  O         12.0820   16.0600   12.8220 O.2   131  THR131     -0.2717
     31  CB        14.4230   13.8950   13.3310 C.3   131  THR131      0.1784
     32  OG1       15.4180   14.0710   12.3090 O.3   131  THR131     -0.2211
     33  CG2       13.2120   13.1270   12.7750 C.3   131  THR131      0.0376
     34  N         14.0220   17.0730   12.2780 N.am  132  THR132     -0.1938
     35  CA        13.4980   17.7740   11.1280 C.3   132  THR132      0.2028
     36  C         14.0460   17.1900    9.8100 C.2   132  THR132      0.2642
     37  O         13.4500   17.3640    8.7540 O.2   132  THR132     -0.2714
     38  CB        13.7680   19.3020   11.1950 C.3   132  THR132      0.1808
     39  OG1       15.1560   19.5400   11.4500 O.3   132  THR132     -0.2208
     40  CG2       12.9640   19.9600   12.3310 C.3   132  THR132      0.0379
     41  N         15.1930   16.5160    9.8690 N.am  133  SER133     -0.1949
     42  CA        15.8300   16.0090    8.6500 C.3   133  SER133      0.1924
     43  C         15.3150   14.6110    8.2920 C.2   133  SER133      0.2314
     44  O         15.2990   14.2170    7.1230 O.2   133  SER133     -0.2863
     45  CB        17.3410   15.9570    8.8350 C.3   133  SER133      0.2116
     46  OG        17.7260   15.0100    9.8270 O.3   133  SER133     -0.2180
     47  N         16.8700   12.1060    8.9400 N.3   135  ASN135     -0.1240
     48  CA        18.1040   11.3010    8.7980 C.3   135  ASN135      0.1653
     49  C         18.4770   10.5500   10.0940 C.2   135  ASN135      0.2266
     50  O         18.7770   11.1780   11.1040 O.2   135  ASN135     -0.2867
     51  CB        19.2660   12.2220    8.3570 C.3   135  ASN135      0.1155
     52  CG        19.0560   12.8300    6.9710 C.2   135  ASN135      0.2627
     53  OD1       18.2520   12.3350    6.1840 O.2   135  ASN135     -0.2716
     54  ND2       19.7770   13.9300    6.6660 N.am  135  ASN135     -0.0877
     55  N         21.1450    8.9150   11.1860 N.3   137  HIS137     -0.1226
     56  CA        22.4770    9.1330   11.7770 C.3   137  HIS137      0.1752
     57  C         22.4530   10.3420   12.7120 C.2   137  HIS137      0.2596
     58  O         23.4280   10.6080   13.3890 O.2   137  HIS137     -0.2718
     59  CB        23.5550    9.2490   10.6840 C.3   137  HIS137      0.0759
     60  CG        23.6090   10.6050    9.9970 C.ar  137  HIS137      0.0818
     61  ND1       24.7820   11.1590    9.5380 N.ar  137  HIS137     -0.2268
     62  CD2       22.6030   11.5120    9.6820 C.ar  137  HIS137      0.1154
     63  CE1       24.5200   12.3390    8.9650 C.ar  137  HIS137      0.1986
     64  NE2       23.1870   12.5640    9.0610 N.ar  137  HIS137     -0.2212
     65  N         21.3150   11.0410   12.7730 N.am  138  GLY138     -0.1957
     66  CA        21.1050   12.1800   13.6540 C.3   138  GLY138      0.1869
     67  C         20.2740   11.7730   14.8500 C.2   138  GLY138      0.2309
     68  O         19.8590   12.6060   15.6250 O.2   138  GLY138     -0.2863
     69  N         27.0590   22.0640   16.7510 N.3   177  ASP177     -0.1239
     70  CA        25.8870   22.2100   15.8660 C.3   177  ASP177      0.1674
     71  C         24.6860   21.3830   16.4380 C.2   177  ASP177      0.2266
     72  O         24.3900   20.2800   15.9950 O.2   177  ASP177     -0.2867
     73  CB        26.2790   21.8430   14.4350 C.3   177  ASP177      0.1410
     74  CG        25.1730   22.1020   13.4240 C.2   177  ASP177      0.3668
     75  OD1       24.2400   22.9060   13.7000 O.co2 177  ASP177     -0.2456
     76  OD2       25.2410   21.4500   12.3670 O.co2 177  ASP177     -0.2456
     77  N         20.6880   20.8420   17.5450 N.3   179  ASP179     -0.1239
     78  CA        19.3250   21.2810   17.2200 C.3   179  ASP179      0.1674
     79  C         18.6510   21.7050   18.5050 C.2   179  ASP179      0.2266
     80  O         19.0040   21.1790   19.5580 O.2   179  ASP179     -0.2867
     81  CB        18.5000   20.1610   16.5610 C.3   179  ASP179      0.1410
     82  CG        19.0190   19.7640   15.1650 C.2   179  ASP179      0.3668
     83  OD1       19.7000   20.5920   14.5070 O.co2 179  ASP179     -0.2456
     84  OD2       18.7170   18.6170   14.7190 O.co2 179  ASP179     -0.2456
     85  N         17.3120   18.8130   20.5580 N.3   182  GLU182     -0.1245
     86  CA        18.4830   18.0910   21.0900 C.3   182  GLU182      0.1567
     87  C         18.9690   18.8180   22.3330 C.2   182  GLU182      0.2260
     88  O         19.1900   18.1980   23.3210 O.2   182  GLU182     -0.2867
     89  CB        19.6220   18.0370   20.0470 C.3   182  GLU182      0.0388
     90  CG        19.2520   17.2110   18.8330 C.3   182  GLU182      0.1160
     91  CD        20.4200   16.9870   17.8960 C.2   182  GLU182      0.3649
     92  OE1       20.7910   17.9580   17.2050 O.co2 182  GLU182     -0.2457
     93  OE2       20.9800   15.8490   17.8590 O.co2 182  GLU182     -0.2457
     94  N         32.8300   10.2220   15.6370 N.3   228  ASP228     -0.1239
     95  CA        32.3700   10.7510   14.3580 C.3   228  ASP228      0.1674
     96  C         33.4870   11.6120   13.8690 C.2   228  ASP228      0.2266
     97  O         33.9550   12.4990   14.6040 O.2   228  ASP228     -0.2867
     98  CB        31.1150   11.5980   14.5630 C.3   228  ASP228      0.1410
     99  CG        30.5080   12.1200   13.2750 C.2   228  ASP228      0.3668
    100  OD1       31.1630   12.2050   12.1890 O.co2 228  ASP228     -0.2456
    101  OD2       29.3220   12.4980   13.3680 O.co2 228  ASP228     -0.2456
    102  N         28.5800   16.0280    7.1030 N.3   242  THR242     -0.1218
    103  CA        28.0390   17.1910    7.7950 C.3   242  THR242      0.1862
    104  C         29.1750   17.9450    8.5290 C.2   242  THR242      0.2287
    105  O         29.2160   17.9470    9.7630 O.2   242  THR242     -0.2866
    106  CB        26.9770   16.7130    8.8230 C.3   242  THR242      0.1770
    107  OG1       27.5400   15.6270    9.5790 O.3   242  THR242     -0.2211
    108  CG2       25.7270   16.1690    8.1480 C.3   242  THR242      0.0375
    109  N         31.5670    8.0350    9.6610 N.3   273  GLU273     -0.1245
    110  CA        31.2820    9.1380    8.7560 C.3   273  GLU273      0.1567
    111  C         32.3720    9.5450    7.7290 C.2   273  GLU273      0.2260
    112  O         32.2650   10.5970    7.0980 O.2   273  GLU273     -0.2867
    113  CB        30.7770   10.3660    9.5400 C.3   273  GLU273      0.0388
    114  CG        29.4870   10.0910   10.3170 C.3   273  GLU273      0.1160
    115  CD        28.2530   10.0270    9.4260 C.2   273  GLU273      0.3649
    116  OE1       28.3540   10.2410    8.1760 O.co2 273  GLU273     -0.2457
    117  OE2       27.1710    9.7560    9.9820 O.co2 273  GLU273     -0.2457
@<TRIPOS>BOND
     1    53    52    2
     2    54    52   am
     3    52    51    1
     4   112   111    2
     5   102   103    1
     6    44    43    2
     7   111   110    1
     8   103   104    1
     9   103   106    1
    10   108   106    1
    11   116   115   ar
    12    43    42    1
    13    51    48    1
    14   104   105    2
    15    42    45    1
    16    42    41    1
    17    37    36    2
    18   110   113    1
    19   110   109    1
    20    48    47    1
    21    48    49    1
    22   106   107    1
    23    45    46    1
    24    63    64   ar
    25    63    61   ar
    26    64    62   ar
    27   115   117   ar
    28   115   114    1
    29    61    60   ar
    30   113   114    1
    31    62    60   ar
    32    36    41   am
    33    36    35    1
    34    60    59    1
    35    49    50    2
    36    59    56    1
    37    35    38    1
    38    35    34    1
    39    55    56    1
    40    38    39    1
    41    38    40    1
    42    56    57    1
    43   100    99   ar
    44    34    29   am
    45    32    31    1
    46    76    74   ar
    47     9    10   ar
    48     9     7   ar
    49    10     8   ar
    50    57    65   am
    51    57    58    2
    52    65    66    1
    53    33    31    1
    54    30    29    2
    55    29    28    1
    56    99   101   ar
    57    99    98    1
    58    31    28    1
    59    74    75   ar
    60    74    73    1
    61     7     6   ar
    62    66    67    1
    63     8     6   ar
    64    96    95    1
    65    96    97    2
    66    28    27    1
    67     6     5    1
    68    95    98    1
    69    95    94    1
    70    73    70    1
    71    83    82   ar
    72    84    82   ar
    73    67    68    2
    74    82    81    1
    75     5     2    1
    76    18    16   ar
    77    26    24   am
    78    17    16   ar
    79    70    71    1
    80    70    69    1
    81    72    71    2
    82    16    15    1
    83    24    23    1
    84    24    25    2
    85    23    20    1
    86     1     2    1
    87    81    78    1
    88     2     3    1
    89    15    12    1
    90    92    91   ar
    91    78    77    1
    92    78    79    1
    93    12    11    1
    94    12    13    1
    95    93    91   ar
    96    91    90    1
    97    20    21    1
    98    20    19    1
    99    22    21    2
   100     3     4    2
   101    13    14    2
   102    79    80    2
   103    90    89    1
   104    89    86    1
   105    85    86    1
   106    86    87    1
   107    87    88    2
