@<TRIPOS>MOLECULE
tmp/4ie2B00.pdb
 126 116 0 0 0
SMALL
GASTEIGER

@<TRIPOS>ATOM
      1  N         54.4640   51.2430   44.7650 N.3    97  HIS97      -0.1241
      2  CA        53.3610   51.0000   43.8310 C.3    97  HIS97       0.1621
      3  C         53.7590   50.5590   42.4100 C.2    97  HIS97       0.2264
      4  O         52.8810   50.1930   41.6090 O.2    97  HIS97      -0.2867
      5  CB        52.4440   52.2260   43.7590 C.3    97  HIS97       0.0745
      6  CG        50.9890   51.8830   43.6300 C.ar   97  HIS97       0.0817
      7  ND1       49.9840   52.7390   44.0270 N.ar   97  HIS97      -0.2268
      8  CD2       50.3790   50.7650   43.1720 C.ar   97  HIS97       0.1154
      9  CE1       48.8100   52.1640   43.8070 C.ar   97  HIS97       0.1986
     10  NE2       49.0230   50.9650   43.2820 N.ar   97  HIS97      -0.2212
     11  N         47.3650   59.8280   44.4420 N.3   122  HIS122     -0.1241
     12  CA        48.0470   60.1210   43.1840 C.3   122  HIS122      0.1621
     13  C         47.5110   59.2870   42.0250 C.2   122  HIS122      0.2264
     14  O         46.9420   58.2050   42.2300 O.2   122  HIS122     -0.2867
     15  CB        49.5430   59.8300   43.3340 C.3   122  HIS122      0.0745
     16  CG        50.1590   60.4770   44.5200 C.ar  122  HIS122      0.0817
     17  ND1       50.2870   59.8280   45.7430 N.ar  122  HIS122     -0.2268
     18  CD2       50.6800   61.7110   44.7110 C.ar  122  HIS122      0.1154
     19  CE1       50.8640   60.6320   46.6060 C.ar  122  HIS122      0.1986
     20  NE2       51.1170   61.7910   46.0040 N.ar  122  HIS122     -0.2212
     21  N         49.4500   58.1650   39.4860 N.3   124  ASP124     -0.1239
     22  CA        50.4800   57.1940   39.1120 C.3   124  ASP124      0.1674
     23  C         50.4890   56.9110   37.5980 C.2   124  ASP124      0.2266
     24  O         50.7310   55.7790   37.1600 O.2   124  ASP124     -0.2867
     25  CB        50.3030   55.8920   39.9180 C.3   124  ASP124      0.1410
     26  CG        50.4960   56.0960   41.4240 C.2   124  ASP124      0.3668
     27  OD1       50.7440   57.2400   41.8490 O.co2 124  ASP124     -0.2456
     28  OD2       50.3960   55.1090   42.1880 O.co2 124  ASP124     -0.2456
     29  N         52.0140   59.0750   35.1490 N.3   126  ASN126     -0.1240
     30  CA        53.0570   59.7140   34.3630 C.3   126  ASN126      0.1653
     31  C         53.6700   58.6740   33.4540 C.2   126  ASN126      0.2266
     32  O         53.6690   57.4850   33.7810 O.2   126  ASN126     -0.2867
     33  CB        54.1450   60.2940   35.2590 C.3   126  ASN126      0.1155
     34  CG        53.7670   61.6350   35.8160 C.2   126  ASN126      0.2627
     35  OD1       53.6770   62.6160   35.0760 O.2   126  ASN126     -0.2716
     36  ND2       53.5340   61.6930   37.1240 N.am  126  ASN126     -0.0877
     37  N         57.3290   62.0760   33.6020 N.3   131  THR131     -0.1203
     38  CA        57.7550   62.0110   35.0020 C.3   131  THR131      0.1994
     39  C         58.8050   63.0810   35.2910 C.2   131  THR131      0.2619
     40  O         59.7040   63.3110   34.4790 O.2   131  THR131     -0.2717
     41  CB        58.2970   60.6110   35.3890 C.3   131  THR131      0.1784
     42  OG1       58.7850   60.6340   36.7360 O.3   131  THR131     -0.2211
     43  CG2       59.4270   60.1810   34.4800 C.3   131  THR131      0.0376
     44  N         58.6690   63.7680   36.4200 N.am  132  SER132     -0.1937
     45  CA        59.6880   64.7380   36.8070 C.3   132  SER132      0.2055
     46  C         60.5430   64.1980   37.9470 C.2   132  SER132      0.2643
     47  O         61.4330   64.8920   38.4370 O.2   132  SER132     -0.2714
     48  CB        59.0570   66.0680   37.2140 C.3   132  SER132      0.2130
     49  OG        58.1810   65.9070   38.3170 O.3   132  SER132     -0.2179
     50  N         60.2700   62.9630   38.3660 N.am  133  SER133     -0.1949
     51  CA        61.0060   62.3570   39.4700 C.3   133  SER133      0.1924
     52  C         61.9160   61.2440   38.9680 C.2   133  SER133      0.2314
     53  O         62.9860   60.9970   39.5380 O.2   133  SER133     -0.2863
     54  CB        60.0240   61.7920   40.5040 C.3   133  SER133      0.2116
     55  OG        59.2560   60.7280   39.9560 O.3   133  SER133     -0.2180
     56  N         60.8360   58.2790   39.1510 N.3   135  ASN135     -0.1240
     57  CA        60.4340   57.1610   40.0000 C.3   135  ASN135      0.1653
     58  C         59.2890   56.3550   39.4010 C.2   135  ASN135      0.2266
     59  O         58.1830   56.8760   39.2180 O.2   135  ASN135     -0.2867
     60  CB        60.0610   57.6570   41.3990 C.3   135  ASN135      0.1155
     61  CG        61.2130   58.3750   42.0790 C.2   135  ASN135      0.2627
     62  OD1       62.3800   58.0980   41.7870 O.2   135  ASN135     -0.2716
     63  ND2       60.8960   59.3060   42.9870 N.am  135  ASN135     -0.0877
     64  N         57.2870   54.2080   40.5310 N.3   137  HIS137     -0.1226
     65  CA        56.0580   54.0030   41.3140 C.3   137  HIS137      0.1752
     66  C         55.0020   55.0710   41.0120 C.2   137  HIS137      0.2596
     67  O         53.8230   54.9340   41.4010 O.2   137  HIS137     -0.2718
     68  CB        56.3340   53.9010   42.8290 C.3   137  HIS137      0.0759
     69  CG        56.5870   55.2220   43.5050 C.ar  137  HIS137      0.0818
     70  ND1       56.3060   55.4340   44.8380 N.ar  137  HIS137     -0.2268
     71  CD2       57.0910   56.3860   43.0340 C.ar  137  HIS137      0.1154
     72  CE1       56.6310   56.6790   45.1640 C.ar  137  HIS137      0.1986
     73  NE2       57.1080   57.2750   44.0880 N.ar  137  HIS137     -0.2212
     74  N         55.4250   56.1260   40.3180 N.am  138  GLY138     -0.1957
     75  CA        54.5180   57.1880   39.9200 C.3   138  GLY138      0.1869
     76  C         54.1520   57.0730   38.4490 C.2   138  GLY138      0.2309
     77  O         53.4470   57.9330   37.9120 O.2   138  GLY138     -0.2863
     78  N         46.7810   64.8660   44.5810 N.3   177  ASP177     -0.1239
     79  CA        48.1110   65.3710   44.2400 C.3   177  ASP177      0.1674
     80  C         48.4990   64.9030   42.8410 C.2   177  ASP177      0.2266
     81  O         49.2400   63.9310   42.6760 O.2   177  ASP177     -0.2867
     82  CB        49.1550   64.9170   45.2770 C.3   177  ASP177      0.1410
     83  CG        50.5320   65.5370   45.0400 C.2   177  ASP177      0.3668
     84  OD1       50.6340   66.4490   44.1920 O.co2 177  ASP177     -0.2456
     85  OD2       51.5100   65.1140   45.7060 O.co2 177  ASP177     -0.2456
     86  N         50.0120   65.6050   38.9610 N.3   179  ASP179     -0.1239
     87  CA        50.8940   66.4240   38.1300 C.3   179  ASP179      0.1674
     88  C         50.1280   66.8930   36.8900 C.2   179  ASP179      0.2266
     89  O         49.2400   66.1810   36.4050 O.2   179  ASP179     -0.2867
     90  CB        52.1300   65.6200   37.7180 C.3   179  ASP179      0.1410
     91  CG        52.9490   65.1310   38.9160 C.2   179  ASP179      0.3668
     92  OD1       52.8720   65.7590   39.9950 O.co2 179  ASP179     -0.2456
     93  OD2       53.6870   64.1250   38.7740 O.co2 179  ASP179     -0.2456
     94  N         49.7160   64.4810   34.1240 N.3   182  GLU182     -0.1245
     95  CA        48.7770   63.4180   34.4720 C.3   182  GLU182      0.1567
     96  C         47.3450   63.9110   34.3010 C.2   182  GLU182      0.2260
     97  O         46.4740   63.1810   33.8210 O.2   182  GLU182     -0.2867
     98  CB        48.9840   62.9560   35.9170 C.3   182  GLU182      0.0388
     99  CG        50.2750   62.1840   36.1710 C.3   182  GLU182      0.1160
    100  CD        50.4310   61.8080   37.6380 C.2   182  GLU182      0.3649
    101  OE1       50.4700   62.7300   38.4860 O.co2 182  GLU182     -0.2457
    102  OE2       50.5000   60.5930   37.9430 O.co2 182  GLU182     -0.2457
    103  N         46.7900   52.2360   47.4770 N.3   228  ASP228     -0.1239
    104  CA        47.9820   52.8970   47.9960 C.3   228  ASP228      0.1674
    105  C         47.6180   53.4390   49.3730 C.2   228  ASP228      0.2266
    106  O         46.6600   54.2130   49.4970 O.2   228  ASP228     -0.2867
    107  CB        48.3550   54.0450   47.0560 C.3   228  ASP228      0.1410
    108  CG        49.6630   54.7180   47.4260 C.2   228  ASP228      0.3668
    109  OD1       49.9860   54.8050   48.6400 O.co2 228  ASP228     -0.2456
    110  OD2       50.3670   55.1810   46.4970 O.co2 228  ASP228     -0.2456
    111  N         55.0410   59.4610   50.3020 N.3   242  THR242     -0.1218
    112  CA        54.5180   60.7010   49.7310 C.3   242  THR242      0.1862
    113  C         53.1570   61.0630   50.3580 C.2   242  THR242      0.2287
    114  O         52.1180   60.9670   49.7000 O.2   242  THR242     -0.2866
    115  CB        54.3990   60.5780   48.1840 C.3   242  THR242      0.1770
    116  OG1       53.5570   59.4610   47.8550 O.3   242  THR242     -0.2211
    117  CG2       55.7360   60.2880   47.5770 C.3   242  THR242      0.0375
    118  N         52.9690   50.7930   49.6030 N.3   273  GLU273     -0.1245
    119  CA        53.5320   52.0720   50.0620 C.3   273  GLU273      0.1567
    120  C         53.5560   52.2740   51.5820 C.2   273  GLU273      0.2260
    121  O         53.8280   53.3880   52.0740 O.2   273  GLU273     -0.2867
    122  CB        52.8870   53.2630   49.3360 C.3   273  GLU273      0.0388
    123  CG        53.1420   53.2570   47.8210 C.3   273  GLU273      0.1160
    124  CD        54.5470   53.6850   47.4510 C.2   273  GLU273      0.3649
    125  OE1       55.3350   54.0330   48.3600 O.co2 273  GLU273     -0.2457
    126  OE2       54.8710   53.6850   46.2380 O.co2 273  GLU273     -0.2457
@<TRIPOS>BOND
     1    31    32    2
     2    31    30    1
     3    37    38    1
     4    97    96    2
     5    94    95    1
     6    96    95    1
     7    30    29    1
     8    30    33    1
     9    95    98    1
    10    40    39    2
    11    43    41    1
    12    38    39    1
    13    38    41    1
    14    35    34    2
    15    33    34    1
    16    39    44   am
    17    41    42    1
    18    34    36   am
    19    98    99    1
    20    99   100    1
    21    89    88    2
    22    44    45    1
    23    45    48    1
    24    45    46    1
    25    88    87    1
    26    24    23    2
    27    48    49    1
    28    23    22    1
    29   100   102   ar
    30   100   101   ar
    31    90    87    1
    32    90    91    1
    33    77    76    2
    34    46    50   am
    35    46    47    2
    36    87    86    1
    37    50    51    1
    38    76    75    1
    39    93    91   ar
    40    91    92   ar
    41    52    51    1
    42    52    53    2
    43    22    21    1
    44    22    25    1
    45    56    57    1
    46    59    58    2
    47    58    57    1
    48    51    54    1
    49    25    26    1
    50    75    74    1
    51    55    54    1
    52    57    60    1
    53    74    66   am
    54    64    65    1
    55    66    65    1
    56    66    67    2
    57    65    68    1
    58    60    61    1
    59    26    27   ar
    60    26    28   ar
    61     4     3    2
    62    62    61    2
    63    13    14    2
    64    13    12    1
    65    61    63   am
    66     3     2    1
    67    81    80    2
    68    68    69    1
    69    80    79    1
    70    71    69   ar
    71    71    73   ar
    72     8    10   ar
    73     8     6   ar
    74    12    15    1
    75    12    11    1
    76    10     9   ar
    77    15    16    1
    78    69    70   ar
    79     6     5    1
    80     6     7   ar
    81     5     2    1
    82     9     7   ar
    83     2     1    1
    84    73    72   ar
    85    84    83   ar
    86    79    78    1
    87    79    82    1
    88    16    18   ar
    89    16    17   ar
    90    18    20   ar
    91    70    72   ar
    92    83    82    1
    93    83    85   ar
    94    17    19   ar
    95    20    19   ar
    96   126   124   ar
    97   110   108   ar
    98   107   108    1
    99   107   104    1
   100   108   109   ar
   101   124   123    1
   102   124   125   ar
   103   103   104    1
   104   117   115    1
   105   123   122    1
   106   116   115    1
   107   104   105    1
   108   115   112    1
   109   122   119    1
   110   105   106    2
   111   118   119    1
   112   114   113    2
   113   112   111    1
   114   112   113    1
   115   119   120    1
   116   120   121    2
