@<TRIPOS>MOLECULE
tmp/4ie3C00.pdb
 126 116 0 0 0
SMALL
GASTEIGER

@<TRIPOS>ATOM
      1  N         27.9610   50.5410   81.7110 N.3    97  HIS97      -0.1241
      2  CA        26.6340   50.5440   81.1040 C.3    97  HIS97       0.1621
      3  C         25.5940   49.5940   81.7300 C.2    97  HIS97       0.2264
      4  O         24.4080   49.7010   81.4230 O.2    97  HIS97      -0.2867
      5  CB        26.7290   50.2850   79.6060 C.3    97  HIS97       0.0745
      6  CG        25.8060   51.1330   78.7940 C.ar   97  HIS97       0.0817
      7  ND1       26.0380   51.4200   77.4700 N.ar   97  HIS97      -0.2268
      8  CD2       24.6650   51.7800   79.1290 C.ar   97  HIS97       0.1154
      9  CE1       25.0770   52.2090   77.0200 C.ar   97  HIS97       0.1986
     10  NE2       24.2300   52.4380   78.0040 N.ar   97  HIS97      -0.2212
     11  N         28.6980   49.5810   70.6520 N.3   122  HIS122     -0.1241
     12  CA        28.3270   48.1980   70.9530 C.3   122  HIS122      0.1621
     13  C         26.8240   48.0640   71.1060 C.2   122  HIS122      0.2264
     14  O         26.1440   49.0350   71.4190 O.2   122  HIS122     -0.2867
     15  CB        28.9650   47.7640   72.2830 C.3   122  HIS122      0.0745
     16  CG        30.4510   47.9160   72.3140 C.ar  122  HIS122      0.0817
     17  ND1       31.0750   49.0060   72.8830 N.ar  122  HIS122     -0.2268
     18  CD2       31.4360   47.1240   71.8280 C.ar  122  HIS122      0.1154
     19  CE1       32.3830   48.8760   72.7470 C.ar  122  HIS122      0.1986
     20  NE2       32.6280   47.7480   72.1040 N.ar  122  HIS122     -0.2212
     21  N         25.2920   45.8380   73.2820 N.3   124  ASP124     -0.1239
     22  CA        24.9880   45.5850   74.6970 C.3   124  ASP124      0.1674
     23  C         23.7970   44.6410   74.9010 C.2   124  ASP124      0.2266
     24  O         23.0280   44.7800   75.8530 O.2   124  ASP124     -0.2867
     25  CB        24.7550   46.9120   75.4280 C.3   124  ASP124      0.1410
     26  CG        26.0240   47.7700   75.5230 C.2   124  ASP124      0.3668
     27  OD1       27.0740   47.3920   74.9590 O.co2 124  ASP124     -0.2456
     28  OD2       25.9730   48.8360   76.1700 O.co2 124  ASP124     -0.2456
     29  N         23.9960   41.0140   74.3660 N.3   126  ASN126     -0.1240
     30  CA        24.2960   39.6360   74.7250 C.3   126  ASN126      0.1653
     31  C         23.4060   39.2270   75.8810 C.2   126  ASN126      0.2266
     32  O         23.0190   40.0700   76.6890 O.2   126  ASN126     -0.2867
     33  CB        25.7530   39.4790   75.1420 C.3   126  ASN126      0.1155
     34  CG        26.6760   39.3340   73.9630 C.2   126  ASN126      0.2627
     35  OD1       26.5670   38.3730   73.2020 O.2   126  ASN126     -0.2716
     36  ND2       27.6100   40.2730   73.8120 N.am  126  ASN126     -0.0877
     37  N         27.0210   35.7640   76.0210 N.3   131  THR131     -0.1203
     38  CA        28.2200   36.5350   76.3640 C.3   131  THR131      0.1994
     39  C         29.4750   35.6650   76.4060 C.2   131  THR131      0.2619
     40  O         29.4430   34.5290   76.8720 O.2   131  THR131     -0.2717
     41  CB        28.0820   37.2810   77.7140 C.3   131  THR131      0.1784
     42  OG1       29.3250   37.9130   78.0240 O.3   131  THR131     -0.2211
     43  CG2       27.7320   36.3230   78.8360 C.3   131  THR131      0.0376
     44  N         30.5730   36.1990   75.8900 N.am  132  SER132     -0.1937
     45  CA        31.8450   35.5020   75.9250 C.3   132  SER132      0.2055
     46  C         32.8010   36.1780   76.9060 C.2   132  SER132      0.2643
     47  O         33.9090   35.6990   77.1250 O.2   132  SER132     -0.2714
     48  CB        32.4710   35.4480   74.5310 C.3   132  SER132      0.2130
     49  OG        32.9240   36.7180   74.1170 O.3   132  SER132     -0.2179
     50  N         32.3630   37.2890   77.4910 N.am  133  SER133     -0.1949
     51  CA        33.1800   38.0340   78.4470 C.3   133  SER133      0.1924
     52  C         32.6980   37.7970   79.8760 C.2   133  SER133      0.2314
     53  O         33.4900   37.7890   80.8070 O.2   133  SER133     -0.2863
     54  CB        33.1350   39.5340   78.1300 C.3   133  SER133      0.2116
     55  OG        31.8550   40.0610   78.4170 O.3   133  SER133     -0.2180
     56  N         30.7270   39.8760   81.2270 N.3   135  ASN135     -0.1240
     57  CA        30.5710   41.2270   81.7600 C.3   135  ASN135      0.1653
     58  C         29.1850   41.7850   81.4960 C.2   135  ASN135      0.2266
     59  O         28.7590   41.9210   80.3450 O.2   135  ASN135     -0.2867
     60  CB        31.6630   42.1600   81.2030 C.3   135  ASN135      0.1155
     61  CG        33.0520   41.7050   81.5970 C.2   135  ASN135      0.2627
     62  OD1       33.2420   41.1610   82.6970 O.2   135  ASN135     -0.2716
     63  ND2       34.0340   41.9030   80.7040 N.am  135  ASN135     -0.0877
     64  N         27.8850   44.6840   81.6110 N.3   137  HIS137     -0.1226
     65  CA        27.7240   45.9280   80.8330 C.3   137  HIS137      0.1752
     66  C         27.5350   45.6650   79.3390 C.2   137  HIS137      0.2596
     67  O         27.2140   46.5790   78.5850 O.2   137  HIS137     -0.2718
     68  CB        28.8670   46.9350   81.0710 C.3   137  HIS137      0.0759
     69  CG        30.1690   46.5510   80.4370 C.ar  137  HIS137      0.0818
     70  ND1       31.1400   47.4760   80.1180 N.ar  137  HIS137     -0.2268
     71  CD2       30.6630   45.3450   80.0660 C.ar  137  HIS137      0.1154
     72  CE1       32.1730   46.8590   79.5700 C.ar  137  HIS137      0.1986
     73  NE2       31.9100   45.5640   79.5280 N.ar  137  HIS137     -0.2212
     74  N         27.7290   44.4140   78.9190 N.am  138  GLY138     -0.1957
     75  CA        27.5220   44.0320   77.5310 C.3   138  GLY138      0.1869
     76  C         26.2420   43.2330   77.3550 C.2   138  GLY138      0.2309
     77  O         25.9820   42.6620   76.2950 O.2   138  GLY138     -0.2863
     78  N         31.0480   47.2960   66.7090 N.3   177  ASP177     -0.1239
     79  CA        31.6880   46.1380   67.3360 C.3   177  ASP177      0.1674
     80  C         30.5850   45.2600   67.9180 C.2   177  ASP177      0.2266
     81  O         30.1620   45.4360   69.0610 O.2   177  ASP177     -0.2867
     82  CB        32.6710   46.5930   68.4290 C.3   177  ASP177      0.1410
     83  CG        33.4110   45.4290   69.1000 C.2   177  ASP177      0.3668
     84  OD1       33.6310   44.3900   68.4550 O.co2 177  ASP177     -0.2456
     85  OD2       33.7950   45.5690   70.2860 O.co2 177  ASP177     -0.2456
     86  N         29.0280   41.3530   68.5380 N.3   179  ASP179     -0.1239
     87  CA        29.3340   39.9240   68.6010 C.3   179  ASP179      0.1674
     88  C         28.3170   39.1970   67.7240 C.2   179  ASP179      0.2266
     89  O         27.1810   39.6590   67.5900 O.2   179  ASP179     -0.2867
     90  CB        29.2640   39.3810   70.0410 C.3   179  ASP179      0.1410
     91  CG        30.1940   40.1230   71.0210 C.2   179  ASP179      0.3668
     92  OD1       31.2250   40.6860   70.5920 O.co2 179  ASP179     -0.2456
     93  OD2       29.8870   40.1310   72.2350 O.co2 179  ASP179     -0.2456
     94  N         24.8920   38.6590   68.9650 N.3   182  GLU182     -0.1245
     95  CA        24.1470   39.9120   69.0280 C.3   182  GLU182      0.1567
     96  C         23.5950   40.2900   67.6640 C.2   182  GLU182      0.2260
     97  O         22.4730   40.7750   67.5530 O.2   182  GLU182     -0.2867
     98  CB        25.0110   41.0450   69.5680 C.3   182  GLU182      0.0388
     99  CG        25.3830   40.9280   71.0340 C.3   182  GLU182      0.1160
    100  CD        26.2490   42.0970   71.4640 C.2   182  GLU182      0.3649
    101  OE1       27.3520   42.2460   70.8920 O.co2 182  GLU182     -0.2457
    102  OE2       25.8090   42.8760   72.3390 O.co2 182  GLU182     -0.2457
    103  N         26.6610   55.8400   75.5340 N.3   228  ASP228     -0.1239
    104  CA        27.9380   55.2610   75.9400 C.3   228  ASP228      0.1674
    105  C         29.0210   56.1300   75.2970 C.2   228  ASP228      0.2266
    106  O         29.0380   56.3070   74.0680 O.2   228  ASP228     -0.2867
    107  CB        28.0140   53.8090   75.4470 C.3   228  ASP228      0.1410
    108  CG        29.2810   53.0780   75.8740 C.2   228  ASP228      0.3668
    109  OD1       30.3100   53.7230   76.1690 O.co2 228  ASP228     -0.2456
    110  OD2       29.2540   51.8240   75.8840 O.co2 228  ASP228     -0.2456
    111  N         36.3300   50.0840   76.5140 N.3   242  THR242     -0.1218
    112  CA        36.3290   49.2870   75.2910 C.3   242  THR242      0.1862
    113  C         36.3020   50.1660   74.0360 C.2   242  THR242      0.2287
    114  O         35.3060   50.2130   73.3260 O.2   242  THR242     -0.2866
    115  CB        35.1340   48.3140   75.2720 C.3   242  THR242      0.1770
    116  OG1       33.9250   49.0390   75.5210 O.3   242  THR242     -0.2211
    117  CG2       35.2940   47.2500   76.3470 C.3   242  THR242      0.0375
    118  N         30.4160   55.0240   81.0390 N.3   273  GLU273     -0.1245
    119  CA        31.6920   54.4590   80.5970 C.3   273  GLU273      0.1567
    120  C         32.8720   55.4300   80.5020 C.2   273  GLU273      0.2260
    121  O         33.9120   55.0920   79.9360 O.2   273  GLU273     -0.2867
    122  CB        31.5190   53.6380   79.3160 C.3   273  GLU273      0.0388
    123  CG        30.5390   52.4610   79.4720 C.3   273  GLU273      0.1160
    124  CD        31.1600   51.2460   80.1550 C.2   273  GLU273      0.3649
    125  OE1       32.3500   51.3060   80.5260 O.co2 273  GLU273     -0.2457
    126  OE2       30.4580   50.2240   80.3210 O.co2 273  GLU273     -0.2457
@<TRIPOS>BOND
     1    78    79    1
     2    79    80    1
     3    79    82    1
     4    97    96    2
     5    89    88    2
     6    96    95    1
     7    88    87    1
     8    80    81    2
     9    82    83    1
    10    84    83   ar
    11    86    87    1
    12    87    90    1
    13    94    95    1
    14    95    98    1
    15    83    85   ar
    16    98    99    1
    17    90    91    1
    18    92    91   ar
    19    11    12    1
    20   101   100   ar
    21    12    13    1
    22    12    15    1
    23    91    93   ar
    24    99   100    1
    25    13    14    2
    26   100   102   ar
    27    18    20   ar
    28    18    16   ar
    29    20    19   ar
    30    15    16    1
    31    16    17   ar
    32    19    17   ar
    33    35    34    2
    34    21    22    1
    35   114   113    2
    36    36    34   am
    37    34    33    1
    38   113   112    1
    39   106   105    2
    40    49    48    1
    41    29    30    1
    42    48    45    1
    43    22    23    1
    44    22    25    1
    45    30    33    1
    46    30    31    1
    47    23    24    2
    48    27    26   ar
    49   115   112    1
    50   115   116    1
    51   115   117    1
    52   112   111    1
    53   105   104    1
    54    25    26    1
    55   107   108    1
    56   107   104    1
    57    26    28   ar
    58   103   104    1
    59   108   110   ar
    60   108   109   ar
    61    31    32    2
    62    44    45    1
    63    44    39   am
    64    45    46    1
    65    37    38    1
    66    77    76    2
    67    38    39    1
    68    38    41    1
    69    39    40    2
    70    46    47    2
    71    46    50   am
    72     9     7   ar
    73     9    10   ar
    74    76    75    1
    75     7     6   ar
    76    50    51    1
    77    75    74    1
    78    41    42    1
    79    41    43    1
    80    10     8   ar
    81    54    55    1
    82    54    51    1
    83    51    52    1
    84    67    66    2
    85     6     8   ar
    86     6     5    1
    87    74    66   am
    88   122   123    1
    89   122   119    1
    90    66    65    1
    91   123   124    1
    92    73    72   ar
    93    73    71   ar
    94    72    70   ar
    95     5     2    1
    96    52    53    2
    97   121   120    2
    98    71    69   ar
    99    70    69   ar
   100   124   126   ar
   101   124   125   ar
   102    59    58    2
   103    69    68    1
   104   120   119    1
   105   119   118    1
   106    63    61   am
   107    65    68    1
   108    65    64    1
   109     2     1    1
   110     2     3    1
   111    60    61    1
   112    60    57    1
   113    56    57    1
   114     4     3    2
   115    58    57    1
   116    61    62    2
