@<TRIPOS>MOLECULE
tmp/4ie4A00.pdb
 152 137 0 0 0
SMALL
GASTEIGER

@<TRIPOS>ATOM
      1  N         36.0210  -13.6700  -30.0840 N.3    68  VAL68      -0.1245
      2  CA        35.7030  -14.1020  -28.7360 C.3    68  VAL68       0.1561
      3  C         34.8550  -15.3760  -28.7760 C.2    68  VAL68       0.2260
      4  O         33.9700  -15.5080  -29.6230 O.2    68  VAL68      -0.2867
      5  CB        34.9710  -12.9320  -28.0010 C.3    68  VAL68       0.0252
      6  CG1       34.2510  -13.3860  -26.7730 C.3    68  VAL68       0.0019
      7  CG2       35.9690  -11.8400  -27.6480 C.3    68  VAL68       0.0019
      8  N         31.9890  -17.5690  -26.7350 N.3    70  ARG70      -0.1245
      9  CA        30.9150  -17.1760  -25.8270 C.3    70  ARG70       0.1563
     10  C         29.9550  -18.2800  -25.4230 C.2    70  ARG70       0.2260
     11  O         29.8680  -19.3200  -26.0610 O.2    70  ARG70      -0.2867
     12  CB        30.0980  -16.0370  -26.4390 C.3    70  ARG70       0.0307
     13  CG        30.9570  -14.8820  -26.8680 C.3    70  ARG70       0.0489
     14  CD        30.1540  -13.6630  -27.2830 C.3    70  ARG70       0.2205
     15  NE        30.9850  -12.4870  -27.0830 N.pl3  70  ARG70      -0.0865
     16  CZ        30.6630  -11.2560  -27.4300 C.cat  70  ARG70       0.5346
     17  NH1       29.5120  -11.0010  -28.0100 N.pl3  70  ARG70       0.1354
     18  NH2       31.5160  -10.2740  -27.2040 N.pl3  70  ARG70       0.1354
     19  N         32.3640  -14.6360  -21.8660 N.3   151  ASN151     -0.1240
     20  CA        33.3450  -14.5210  -22.9440 C.3   151  ASN151      0.1653
     21  C         34.6630  -15.1720  -22.5660 C.2   151  ASN151      0.2266
     22  O         35.0120  -15.2180  -21.3950 O.2   151  ASN151     -0.2867
     23  CB        33.6130  -13.0540  -23.2800 C.3   151  ASN151      0.1155
     24  CG        32.3550  -12.2660  -23.4680 C.2   151  ASN151      0.2627
     25  OD1       31.8890  -12.1070  -24.5880 O.2   151  ASN151     -0.2716
     26  ND2       31.7970  -11.7510  -22.3760 N.am  151  ASN151     -0.0877
     27  N         37.2860   -6.8020  -28.4190 N.3   174  VAL174     -0.1245
     28  CA        35.9350   -6.3960  -28.7930 C.3   174  VAL174      0.1561
     29  C         35.9920   -4.9380  -29.2250 C.2   174  VAL174      0.2260
     30  O         36.5140   -4.0960  -28.5000 O.2   174  VAL174     -0.2867
     31  CB        34.9860   -6.5390  -27.6000 C.3   174  VAL174      0.0252
     32  CG1       33.5360   -6.2960  -28.0200 C.3   174  VAL174      0.0019
     33  CG2       35.1570   -7.9180  -26.9740 C.3   174  VAL174      0.0019
     34  N         31.5380   -0.4550  -29.3500 N.3   177  HIS177     -0.1241
     35  CA        30.1140   -0.7360  -29.5600 C.3   177  HIS177      0.1621
     36  C         29.2240   -0.2260  -28.4170 C.2   177  HIS177      0.2264
     37  O         29.7060    0.1560  -27.3480 O.2   177  HIS177     -0.2867
     38  CB        29.8960   -2.2470  -29.6990 C.3   177  HIS177      0.0745
     39  CG        30.2020   -3.0170  -28.4420 C.ar  177  HIS177      0.0817
     40  ND1       31.4880   -3.1940  -27.9740 N.ar  177  HIS177     -0.2268
     41  CD2       29.3870   -3.6440  -27.5630 C.ar  177  HIS177      0.1154
     42  CE1       31.4520   -3.8960  -26.8530 C.ar  177  HIS177      0.1986
     43  NE2       30.1920   -4.1810  -26.5800 N.ar  177  HIS177     -0.2212
     44  N         26.1510   -2.0180  -26.1530 N.3   179  ASP179     -0.1239
     45  CA        25.4900   -3.3080  -25.9340 C.3   179  ASP179      0.1674
     46  C         24.0180   -3.2210  -26.4080 C.2   179  ASP179      0.2266
     47  O         23.2470   -2.3540  -25.9940 O.2   179  ASP179     -0.2867
     48  CB        25.5500   -3.7370  -24.4560 C.3   179  ASP179      0.1410
     49  CG        26.9480   -4.1410  -23.9970 C.2   179  ASP179      0.3668
     50  OD1       27.7130   -4.7390  -24.7750 O.co2 179  ASP179     -0.2456
     51  OD2       27.2840   -3.8690  -22.8310 O.co2 179  ASP179     -0.2456
     52  N         24.7380   -3.0280  -16.3490 N.3   188  VAL188     -0.1245
     53  CA        25.4260   -4.2530  -16.7570 C.3   188  VAL188      0.1561
     54  C         26.5550   -4.4820  -15.7750 C.2   188  VAL188      0.2260
     55  O         27.2690   -3.5350  -15.4400 O.2   188  VAL188     -0.2867
     56  CB        26.0250   -4.1450  -18.1710 C.3   188  VAL188      0.0252
     57  CG1       27.1580   -5.1520  -18.3590 C.3   188  VAL188      0.0019
     58  CG2       24.9400   -4.3480  -19.2250 C.3   188  VAL188      0.0019
     59  N         30.0760   -6.7530  -14.7430 N.3   190  VAL190     -0.1245
     60  CA        31.1130   -7.5710  -15.3360 C.3   190  VAL190      0.1561
     61  C         32.1060   -8.0520  -14.3000 C.2   190  VAL190      0.2260
     62  O         32.7640   -7.2430  -13.6220 O.2   190  VAL190     -0.2867
     63  CB        31.8540   -6.7950  -16.4120 C.3   190  VAL190      0.0252
     64  CG1       32.9590   -7.6550  -16.9940 C.3   190  VAL190      0.0019
     65  CG2       30.8800   -6.3700  -17.4810 C.3   190  VAL190      0.0019
     66  N         39.2200   -2.3170  -20.1160 N.3   207  VAL207     -0.1245
     67  CA        37.9990   -1.9260  -20.7690 C.3   207  VAL207      0.1561
     68  C         38.2340   -0.4860  -21.1980 C.2   207  VAL207      0.2260
     69  O         38.8650    0.2940  -20.4900 O.2   207  VAL207     -0.2867
     70  CB        36.7540   -2.0760  -19.8620 C.3   207  VAL207      0.0252
     71  CG1       36.9950   -1.5060  -18.4750 C.3   207  VAL207      0.0019
     72  CG2       35.5320   -1.4350  -20.5330 C.3   207  VAL207      0.0019
     73  N         42.0650   -4.0860  -15.9980 N.3   224  LEU224     -0.1245
     74  CA        41.2760   -5.1440  -15.3990 C.3   224  LEU224      0.1561
     75  C         42.2020   -6.2080  -14.8270 C.2   224  LEU224      0.2260
     76  O         42.9530   -6.8560  -15.5610 O.2   224  LEU224     -0.2867
     77  CB        40.3250   -5.7480  -16.4400 C.3   224  LEU224      0.0270
     78  CG        39.2140   -4.8000  -16.9180 C.3   224  LEU224      0.0019
     79  CD1       38.2800   -5.4540  -17.8920 C.3   224  LEU224      0.0001
     80  CD2       38.4080   -4.2630  -15.7470 C.3   224  LEU224      0.0001
     81  N         33.3580   -4.3810  -12.5710 N.3   230  TYR230     -0.1241
     82  CA        32.9600   -3.0090  -12.8670 C.3   230  TYR230      0.1605
     83  C         31.5150   -3.0100  -13.3560 C.2   230  TYR230      0.2264
     84  O         31.0190   -4.0280  -13.8360 O.2   230  TYR230     -0.2867
     85  CB        33.9000   -2.3380  -13.8770 C.3   230  TYR230      0.0534
     86  CG        33.8550   -2.9280  -15.2580 C.ar  230  TYR230     -0.0201
     87  CD1       33.0610   -2.3630  -16.2400 C.ar  230  TYR230     -0.0009
     88  CD2       34.6060   -4.0570  -15.5860 C.ar  230  TYR230     -0.0009
     89  CE1       32.9910   -2.9150  -17.5270 C.ar  230  TYR230      0.0417
     90  CE2       34.5500   -4.6190  -16.8660 C.ar  230  TYR230      0.0417
     91  CZ        33.7430   -4.0350  -17.8340 C.ar  230  TYR230      0.1957
     92  OH        33.6770   -4.5790  -19.1000 O.3   230  TYR230     -0.2866
     93  N         28.4050   -0.8040  -15.4670 N.3   232  MET232     -0.1245
     94  CA        27.9010    0.2880  -16.2760 C.3   232  MET232      0.1570
     95  C         26.5030    0.6160  -15.7930 C.2   232  MET232      0.2261
     96  O         25.6080   -0.2400  -15.8220 O.2   232  MET232     -0.2867
     97  CB        27.9150   -0.0960  -17.7490 C.3   232  MET232      0.0387
     98  CG        29.3380   -0.3590  -18.2830 C.3   232  MET232      0.0595
     99  SD        29.3270   -1.1270  -19.8860 S.3   232  MET232     -0.1393
    100  CE        28.4580    0.1410  -20.8170 C.3   232  MET232      0.0692
    101  N         31.9680    1.4280  -25.6100 N.3   242  HIS242     -0.1241
    102  CA        33.0460    0.7540  -24.9060 C.3   242  HIS242      0.1621
    103  C         33.6810   -0.3370  -25.7620 C.2   242  HIS242      0.2264
    104  O         33.0710   -0.8360  -26.7050 O.2   242  HIS242     -0.2867
    105  CB        32.5480    0.1640  -23.5870 C.3   242  HIS242      0.0745
    106  CG        31.5050   -0.8900  -23.7550 C.ar  242  HIS242      0.0817
    107  ND1       30.1810   -0.5940  -23.9900 N.ar  242  HIS242     -0.2268
    108  CD2       31.5890   -2.2430  -23.7150 C.ar  242  HIS242      0.1154
    109  CE1       29.4900   -1.7190  -24.0910 C.ar  242  HIS242      0.1986
    110  NE2       30.3210   -2.7320  -23.9250 N.ar  242  HIS242     -0.2212
    111  N         36.8990   -3.7080  -25.5130 N.3   244  VAL244     -0.1245
    112  CA        37.7360   -4.4960  -24.6430 C.3   244  VAL244      0.1561
    113  C         39.0970   -4.5820  -25.3180 C.2   244  VAL244      0.2260
    114  O         39.2050   -5.0040  -26.4680 O.2   244  VAL244     -0.2867
    115  CB        37.1400   -5.8510  -24.3730 C.3   244  VAL244      0.0252
    116  CG1       37.9380   -6.5440  -23.3150 C.3   244  VAL244      0.0019
    117  CG2       35.6940   -5.6980  -23.9150 C.3   244  VAL244      0.0019
    118  N         41.8210  -14.6060  -20.9900 N.3   251  ARG251     -0.1245
    119  CA        40.8750  -14.0790  -20.0040 C.3   251  ARG251      0.1563
    120  C         39.4060  -14.4860  -20.2810 C.2   251  ARG251      0.2260
    121  O         38.9640  -14.5540  -21.4290 O.2   251  ARG251     -0.2867
    122  CB        40.9850  -12.5550  -19.9460 C.3   251  ARG251      0.0307
    123  CG        39.9300  -11.8690  -19.0960 C.3   251  ARG251      0.0489
    124  CD        39.8650  -10.4060  -19.4830 C.3   251  ARG251      0.2205
    125  NE        38.7730   -9.6530  -18.8650 N.pl3 251  ARG251     -0.0865
    126  CZ        37.6230   -9.3580  -19.4610 C.cat 251  ARG251      0.5346
    127  NH1       37.3790   -9.7710  -20.6950 N.pl3 251  ARG251      0.1354
    128  NH2       36.7050   -8.6520  -18.8160 N.pl3 251  ARG251      0.1354
    129  N         35.2230  -13.7000  -18.8760 N.3   253  SER253     -0.1217
    130  CA        34.3930  -12.7090  -18.2040 C.3   253  SER253      0.1889
    131  C         32.9430  -13.1580  -18.1300 C.2   253  SER253      0.2288
    132  O         32.4730  -13.9410  -18.9650 O.2   253  SER253     -0.2866
    133  CB        34.4490  -11.3750  -18.9410 C.3   253  SER253      0.2089
    134  OG        33.8870  -11.4990  -20.2270 O.3   253  SER253     -0.2183
    135  N         29.3210  -11.3100  -18.0860 N.3   255  THR255     -0.1218
    136  CA        28.7520   -9.9870  -18.2950 C.3   255  THR255      0.1862
    137  C         27.2220  -10.0470  -18.2220 C.2   255  THR255      0.2287
    138  O         26.5330  -10.3130  -19.1980 O.2   255  THR255     -0.2866
    139  CB        29.2630   -9.3470  -19.6100 C.3   255  THR255      0.1770
    140  OG1       28.7370  -10.0450  -20.7300 O.3   255  THR255     -0.2211
    141  CG2       30.7420   -9.4370  -19.6960 C.3   255  THR255      0.0375
    142  N         23.3870   -9.0380  -17.7640 N.3   257  ARG257     -0.1245
    143  CA        22.5580   -8.0610  -18.4350 C.3   257  ARG257      0.1563
    144  C         21.0860   -8.2310  -18.0920 C.2   257  ARG257      0.2260
    145  O         20.6540   -9.3020  -17.6920 O.2   257  ARG257     -0.2867
    146  CB        22.7310   -8.2130  -19.9360 C.3   257  ARG257      0.0307
    147  CG        24.1630   -8.1270  -20.3950 C.3   257  ARG257      0.0489
    148  CD        24.4400   -9.1460  -21.4730 C.3   257  ARG257      0.2205
    149  NE        25.8610   -9.1960  -21.7850 N.pl3 257  ARG257     -0.0865
    150  CZ        26.4720   -8.3710  -22.6270 C.cat 257  ARG257      0.5346
    151  NH1       25.7790   -7.4360  -23.2340 N.pl3 257  ARG257      0.1354
    152  NH2       27.7730   -8.4850  -22.8570 N.pl3 257  ARG257      0.1354
@<TRIPOS>BOND
     1     1     2    1
     2    38    35    1
     3    38    39    1
     4     4     3    2
     5    35    34    1
     6    35    36    1
     7    29    28    1
     8    29    30    2
     9    28    27    1
    10    28    31    1
    11     3     2    1
    12     2     5    1
    13    39    40   ar
    14    39    41   ar
    15    36    37    2
    16    32    31    1
    17    17    16    1
    18     5     7    1
    19     5     6    1
    20    40    42   ar
    21    31    33    1
    22    41    43   ar
    23    16    18    1
    24    16    15    2
    25    14    15    1
    26    14    13    1
    27    13    12    1
    28    42    43   ar
    29     8     9    1
    30   104   103    2
    31   114   113    2
    32    12     9    1
    33    46    47    2
    34    46    45    1
    35    44    45    1
    36    11    10    2
    37    45    48    1
    38     9    10    1
    39   103   102    1
    40   101   102    1
    41   111   112    1
    42   113   112    1
    43   102   105    1
    44    50    49   ar
    45   112   115    1
    46    25    24    2
    47    48    49    1
    48   115   117    1
    49   115   116    1
    50   109   107   ar
    51   109   110   ar
    52    49    51   ar
    53   107   106   ar
    54   110   108   ar
    55   106   108   ar
    56   106   105    1
    57    24    23    1
    58    24    26   am
    59    23    20    1
    60   151   150    1
    61    20    21    1
    62    20    19    1
    63   152   150    1
    64   150   149    2
    65    21    22    2
    66   149   148    1
    67   148   147    1
    68   121   120    2
    69    68    67    1
    70    68    69    2
    71   118   119    1
    72   100    99    1
    73    67    66    1
    74    67    70    1
    75   140   139    1
    76   127   126    1
    77    72    70    1
    78   147   146    1
    79   120   119    1
    80   134   133    1
    81   119   122    1
    82   122   123    1
    83   146   143    1
    84    99    98    1
    85    70    71    1
    86   141   139    1
    87   139   136    1
    88   124   123    1
    89   124   125    1
    90   126   125    2
    91   126   128    1
    92    58    56    1
    93   138   137    2
    94    92    91    1
    95   132   131    2
    96   133   130    1
    97   129   130    1
    98   143   144    1
    99   143   142    1
   100    57    56    1
   101   136   137    1
   102   136   135    1
   103    98    97    1
   104   130   131    1
   105    56    53    1
   106   144   145    2
   107    79    78    1
   108    91    89   ar
   109    91    90   ar
   110    97    94    1
   111    89    87   ar
   112    65    63    1
   113    64    63    1
   114    78    77    1
   115    78    80    1
   116    90    88   ar
   117    53    52    1
   118    53    54    1
   119    77    74    1
   120    63    60    1
   121    94    95    1
   122    94    93    1
   123    87    86   ar
   124    73    74    1
   125    96    95    2
   126    54    55    2
   127    88    86   ar
   128    76    75    2
   129    74    75    1
   130    60    59    1
   131    60    61    1
   132    86    85    1
   133    61    62    2
   134    85    82    1
   135    84    83    2
   136    83    82    1
   137    82    81    1
