@<TRIPOS>MOLECULE
tmp/4ie5A00.pdb
 171 158 0 0 0
SMALL
GASTEIGER

@<TRIPOS>ATOM
      1  N         31.9890  -17.5760  -26.6370 N.3    70  ARG70      -0.1245
      2  CA        30.9210  -17.1560  -25.7340 C.3    70  ARG70       0.1563
      3  C         29.9600  -18.2600  -25.3400 C.2    70  ARG70       0.2260
      4  O         29.8600  -19.2860  -25.9990 O.2    70  ARG70      -0.2867
      5  CB        30.1250  -16.0160  -26.3710 C.3    70  ARG70       0.0307
      6  CG        30.9340  -14.7330  -26.4280 C.3    70  ARG70       0.0489
      7  CD        30.1180  -13.5490  -26.9030 C.3    70  ARG70       0.2205
      8  NE        30.8450  -12.2960  -26.6890 N.pl3  70  ARG70      -0.0865
      9  CZ        31.3350  -11.5150  -27.6490 C.cat  70  ARG70       0.5346
     10  NH1       31.1620  -11.8160  -28.9340 N.pl3  70  ARG70       0.1354
     11  NH2       32.0070  -10.4170  -27.3180 N.pl3  70  ARG70       0.1354
     12  N         18.8870  -13.7700  -25.5860 N.3    80  TYR80      -0.1241
     13  CA        19.5480  -12.4830  -25.6320 C.3    80  TYR80       0.1605
     14  C         20.0310  -12.3010  -27.0470 C.2    80  TYR80       0.2264
     15  O         20.7470  -13.1350  -27.5580 O.2    80  TYR80      -0.2867
     16  CB        20.7300  -12.4060  -24.6460 C.3    80  TYR80       0.0534
     17  CG        21.4850  -11.1150  -24.7880 C.ar   80  TYR80      -0.0201
     18  CD1       20.8750   -9.9060  -24.4880 C.ar   80  TYR80      -0.0009
     19  CD2       22.7760  -11.0880  -25.3000 C.ar   80  TYR80      -0.0009
     20  CE1       21.5370   -8.7200  -24.6510 C.ar   80  TYR80       0.0417
     21  CE2       23.4510   -9.8970  -25.4510 C.ar   80  TYR80       0.0417
     22  CZ        22.8330   -8.7200  -25.1450 C.ar   80  TYR80       0.1957
     23  OH        23.4990   -7.5220  -25.3160 O.3    80  TYR80      -0.2866
     24  N         22.0310  -10.2680  -30.0040 N.3    82  TYR82      -0.1241
     25  CA        23.0330   -9.2750  -30.3430 C.3    82  TYR82       0.1605
     26  C         23.5970   -9.6030  -31.7200 C.2    82  TYR82       0.2264
     27  O         23.6610  -10.7770  -32.1310 O.2    82  TYR82      -0.2867
     28  CB        24.1310   -9.2220  -29.2600 C.3    82  TYR82       0.0534
     29  CG        25.2510  -10.2210  -29.4070 C.ar   82  TYR82      -0.0201
     30  CD1       26.5680   -9.7980  -29.5020 C.ar   82  TYR82      -0.0009
     31  CD2       24.9990  -11.5830  -29.4460 C.ar   82  TYR82      -0.0009
     32  CE1       27.5870  -10.6830  -29.6480 C.ar   82  TYR82       0.0417
     33  CE2       26.0310  -12.4960  -29.5780 C.ar   82  TYR82       0.0417
     34  CZ        27.3230  -12.0340  -29.6830 C.ar   82  TYR82       0.1957
     35  OH        28.3730  -12.9080  -29.8290 O.3    82  TYR82      -0.2866
     36  N         26.2720  -13.1900  -20.3130 N.3   151  LEU151     -0.1245
     37  CA        26.9740  -13.5850  -21.5050 C.3   151  LEU151      0.1561
     38  C         28.4500  -13.7230  -21.1010 C.2   151  LEU151      0.2260
     39  O         29.1200  -12.7270  -20.7330 O.2   151  LEU151     -0.2867
     40  CB        26.7490  -12.5430  -22.6110 C.3   151  LEU151      0.0270
     41  CG        27.3770  -12.8540  -23.9740 C.3   151  LEU151      0.0019
     42  CD1       27.0350  -14.2690  -24.3620 C.3   151  LEU151      0.0001
     43  CD2       26.9490  -11.8720  -25.0370 C.3   151  LEU151      0.0001
     44  N         32.3850  -14.7320  -21.7530 N.3   153  ASN153     -0.1240
     45  CA        33.4000  -14.5980  -22.7890 C.3   153  ASN153      0.1653
     46  C         34.6940  -15.2970  -22.4080 C.2   153  ASN153      0.2266
     47  O         35.0570  -15.3460  -21.2340 O.2   153  ASN153     -0.2867
     48  CB        33.7120  -13.1200  -23.0230 C.3   153  ASN153      0.1155
     49  CG        32.4850  -12.3280  -23.3400 C.2   153  ASN153      0.2627
     50  OD1       31.9160  -12.4750  -24.4160 O.2   153  ASN153     -0.2716
     51  ND2       32.0350  -11.5090  -22.3940 N.am  153  ASN153     -0.0877
     52  N         37.2360   -6.7330  -28.4940 N.3   176  VAL176     -0.1245
     53  CA        35.8910   -6.3410  -28.8980 C.3   176  VAL176      0.1561
     54  C         35.9340   -4.8660  -29.2510 C.2   176  VAL176      0.2260
     55  O         36.4090   -4.0580  -28.4610 O.2   176  VAL176     -0.2867
     56  CB        34.9000   -6.5530  -27.7400 C.3   176  VAL176      0.0252
     57  CG1       33.5060   -6.0990  -28.1400 C.3   176  VAL176      0.0019
     58  CG2       34.9160   -8.0350  -27.2980 C.3   176  VAL176      0.0019
     59  N         31.4100   -0.2300  -29.0950 N.3   179  HIS179     -0.1241
     60  CA        29.9960   -0.5550  -29.3100 C.3   179  HIS179      0.1621
     61  C         29.1510   -0.0290  -28.1660 C.2   179  HIS179      0.2264
     62  O         29.6830    0.3960  -27.1160 O.2   179  HIS179     -0.2867
     63  CB        29.7970   -2.0830  -29.4540 C.3   179  HIS179      0.0745
     64  CG        30.0880   -2.8390  -28.1880 C.ar  179  HIS179      0.0817
     65  ND1       31.3720   -3.0850  -27.7450 N.ar  179  HIS179     -0.2268
     66  CD2       29.2590   -3.3430  -27.2370 C.ar  179  HIS179      0.1154
     67  CE1       31.3200   -3.7320  -26.5930 C.ar  179  HIS179      0.1986
     68  NE2       30.0500   -3.9040  -26.2610 N.ar  179  HIS179     -0.2212
     69  N         25.9420   -1.7670  -25.9900 N.3   181  ASP181     -0.1225
     70  CA        25.2700   -3.0330  -25.8290 C.3   181  ASP181      0.1805
     71  C         23.8460   -2.9740  -26.3580 C.2   181  ASP181      0.2597
     72  O         23.1300   -1.9960  -26.1520 O.2   181  ASP181     -0.2718
     73  CB        25.2430   -3.4460  -24.3560 C.3   181  ASP181      0.1424
     74  CG        26.5880   -3.9120  -23.8640 C.2   181  ASP181      0.3668
     75  OD1       27.5140   -4.0740  -24.6800 O.co2 181  ASP181     -0.2456
     76  OD2       26.7240   -4.1320  -22.6480 O.co2 181  ASP181     -0.2456
     77  N         23.4620   -4.0370  -27.0480 N.am  182  GLU182     -0.1979
     78  CA        22.1250   -4.2020  -27.5970 C.3   182  GLU182      0.1602
     79  C         21.1860   -4.9840  -26.6690 C.2   182  GLU182      0.2287
     80  O         21.6280   -5.6990  -25.7560 O.2   182  GLU182     -0.2864
     81  CB        22.2130   -4.9600  -28.9270 C.3   182  GLU182      0.0415
     82  CG        23.0560   -4.2630  -29.9990 C.3   182  GLU182      0.1163
     83  CD        23.1930   -5.1170  -31.2390 C.2   182  GLU182      0.3649
     84  OE1       23.8730   -6.1740  -31.1560 O.co2 182  GLU182     -0.2457
     85  OE2       22.5880   -4.7560  -32.2770 O.co2 182  GLU182     -0.2457
     86  N         30.0860   -6.7330  -14.7650 N.3   192  VAL192     -0.1245
     87  CA        31.0830   -7.5930  -15.3830 C.3   192  VAL192      0.1561
     88  C         32.1210   -8.0500  -14.3650 C.2   192  VAL192      0.2260
     89  O         32.8040   -7.2290  -13.7270 O.2   192  VAL192     -0.2867
     90  CB        31.8220   -6.8700  -16.5300 C.3   192  VAL192      0.0252
     91  CG1       32.8120   -7.8150  -17.2250 C.3   192  VAL192      0.0019
     92  CG2       30.8230   -6.2800  -17.5390 C.3   192  VAL192      0.0019
     93  N         39.0430   -2.4710  -20.0620 N.3   209  VAL209     -0.1245
     94  CA        37.8330   -2.0540  -20.7420 C.3   209  VAL209      0.1561
     95  C         38.0290   -0.5780  -21.1020 C.2   209  VAL209      0.2260
     96  O         38.5210    0.2130  -20.2930 O.2   209  VAL209     -0.2867
     97  CB        36.5680   -2.2740  -19.8690 C.3   209  VAL209      0.0252
     98  CG1       36.6890   -1.6070  -18.4900 C.3   209  VAL209      0.0019
     99  CG2       35.3080   -1.8110  -20.6220 C.3   209  VAL209      0.0019
    100  N         42.0840   -4.2270  -15.8530 N.3   226  LEU226     -0.1245
    101  CA        41.2970   -5.2880  -15.2460 C.3   226  LEU226      0.1561
    102  C         42.2420   -6.4170  -14.8560 C.2   226  LEU226      0.2260
    103  O         42.8340   -7.0940  -15.7000 O.2   226  LEU226     -0.2867
    104  CB        40.2150   -5.7850  -16.2160 C.3   226  LEU226      0.0270
    105  CG        39.1050   -4.7770  -16.5390 C.3   226  LEU226      0.0019
    106  CD1       38.0590   -5.3360  -17.4990 C.3   226  LEU226      0.0001
    107  CD2       38.4130   -4.2800  -15.2850 C.3   226  LEU226      0.0001
    108  N         33.4730   -4.4400  -12.8860 N.3   232  TYR232     -0.1241
    109  CA        33.0740   -3.0930  -13.2470 C.3   232  TYR232      0.1605
    110  C         31.5870   -3.0570  -13.5880 C.2   232  TYR232      0.2264
    111  O         30.9970   -4.0810  -13.9660 O.2   232  TYR232     -0.2867
    112  CB        33.9620   -2.4740  -14.3610 C.3   232  TYR232      0.0534
    113  CG        33.8080   -3.0510  -15.7500 C.ar  232  TYR232     -0.0201
    114  CD1       32.9260   -2.4870  -16.6620 C.ar  232  TYR232     -0.0009
    115  CD2       34.5940   -4.1290  -16.1770 C.ar  232  TYR232     -0.0009
    116  CE1       32.7690   -3.0150  -17.9420 C.ar  232  TYR232      0.0417
    117  CE2       34.4580   -4.6510  -17.4580 C.ar  232  TYR232      0.0417
    118  CZ        33.5490   -4.0900  -18.3360 C.ar  232  TYR232      0.1957
    119  OH        33.4150   -4.6250  -19.6070 O.3   232  TYR232     -0.2866
    120  N         31.8510    1.4610  -25.4150 N.3   244  HIS244     -0.1241
    121  CA        32.9630    0.7760  -24.7890 C.3   244  HIS244      0.1621
    122  C         33.5710   -0.2360  -25.7230 C.2   244  HIS244      0.2264
    123  O         33.0060   -0.5990  -26.7520 O.2   244  HIS244     -0.2867
    124  CB        32.5600    0.1430  -23.4470 C.3   244  HIS244      0.0745
    125  CG        31.4420   -0.8490  -23.5550 C.ar  244  HIS244      0.0817
    126  ND1       30.1310   -0.4680  -23.7540 N.ar  244  HIS244     -0.2268
    127  CD2       31.4310   -2.2020  -23.4580 C.ar  244  HIS244      0.1154
    128  CE1       29.3650   -1.5480  -23.8060 C.ar  244  HIS244      0.1986
    129  NE2       30.1290   -2.6120  -23.6240 N.ar  244  HIS244     -0.2212
    130  N         36.7570   -3.6600  -25.5090 N.3   246  VAL246     -0.1245
    131  CA        37.5730   -4.5170  -24.6580 C.3   246  VAL246      0.1561
    132  C         38.9600   -4.6140  -25.2720 C.2   246  VAL246      0.2260
    133  O         39.1260   -5.0320  -26.4060 O.2   246  VAL246     -0.2867
    134  CB        36.9860   -5.9140  -24.5200 C.3   246  VAL246      0.0252
    135  CG1       37.8410   -6.7370  -23.5370 C.3   246  VAL246      0.0019
    136  CG2       35.5110   -5.8500  -24.0700 C.3   246  VAL246      0.0019
    137  N         41.7630  -14.6590  -21.0990 N.3   253  ARG253     -0.1245
    138  CA        40.9090  -14.0040  -20.1240 C.3   253  ARG253      0.1563
    139  C         39.4430  -14.3820  -20.3300 C.2   253  ARG253      0.2260
    140  O         38.9620  -14.4690  -21.4690 O.2   253  ARG253     -0.2867
    141  CB        41.1110  -12.4780  -20.2340 C.3   253  ARG253      0.0307
    142  CG        40.2030  -11.6210  -19.3520 C.3   253  ARG253      0.0489
    143  CD        39.0290  -11.0890  -20.1410 C.3   253  ARG253      0.2205
    144  NE        38.3910   -9.9390  -19.4920 N.pl3 253  ARG253     -0.0865
    145  CZ        37.3930   -9.2360  -20.0260 C.cat 253  ARG253      0.5346
    146  NH1       36.9260   -9.5520  -21.2300 N.pl3 253  ARG253      0.1354
    147  NH2       36.8720   -8.2150  -19.3630 N.pl3 253  ARG253      0.1354
    148  N         35.3380  -13.3890  -19.0300 N.3   255  SER255     -0.1217
    149  CA        34.5030  -12.4620  -18.2600 C.3   255  SER255      0.1889
    150  C         33.0680  -12.9770  -18.1820 C.2   255  SER255      0.2288
    151  O         32.6350  -13.7670  -19.0170 O.2   255  SER255     -0.2866
    152  CB        34.5140  -11.0450  -18.8620 C.3   255  SER255      0.2089
    153  OG        33.8820  -11.0250  -20.1360 O.3   255  SER255     -0.2183
    154  N         29.3480  -11.2600  -18.1090 N.3   257  THR257     -0.1218
    155  CA        28.6870   -9.9690  -18.3200 C.3   257  THR257      0.1862
    156  C         27.1790  -10.1000  -18.0540 C.2   257  THR257      0.2287
    157  O         26.4020  -10.5570  -18.8880 O.2   257  THR257     -0.2866
    158  CB        29.0270   -9.3390  -19.6990 C.3   257  THR257      0.1770
    159  OG1       28.4360  -10.0700  -20.7860 O.3   257  THR257     -0.2211
    160  CG2       30.5280   -9.3130  -19.9120 C.3   257  THR257      0.0375
    161  N         23.4170   -9.0300  -17.3400 N.3   259  ARG259     -0.1245
    162  CA        22.5830   -8.1120  -18.0930 C.3   259  ARG259      0.1563
    163  C         21.1100   -8.3270  -17.8070 C.2   259  ARG259      0.2260
    164  O         20.6720   -9.4550  -17.4780 O.2   259  ARG259     -0.2867
    165  CB        22.7460   -8.3920  -19.5800 C.3   259  ARG259      0.0307
    166  CG        24.1330   -8.3490  -20.0550 C.3   259  ARG259      0.0489
    167  CD        24.3070   -9.0340  -21.3700 C.3   259  ARG259      0.2205
    168  NE        25.7080   -8.9350  -21.6810 N.pl3 259  ARG259     -0.0865
    169  CZ        26.2940   -7.8070  -22.0690 C.cat 259  ARG259      0.5346
    170  NH1       25.5690   -6.7110  -22.2380 N.pl3 259  ARG259      0.1354
    171  NH2       27.6040   -7.7720  -22.3080 N.pl3 259  ARG259      0.1354
@<TRIPOS>BOND
     1    85    83   ar
     2    27    26    2
     3    26    25    1
     4    83    84   ar
     5    83    82    1
     6    25    24    1
     7    25    28    1
     8    82    81    1
     9    35    34    1
    10    34    32   ar
    11    34    33   ar
    12    32    30   ar
    13    33    31   ar
    14    30    29   ar
    15    63    60    1
    16    63    64    1
    17    31    29   ar
    18    29    28    1
    19    60    59    1
    20    60    61    1
    21    54    53    1
    22    54    55    2
    23    10     9    1
    24    81    78    1
    25    53    52    1
    26    53    56    1
    27    64    65   ar
    28    64    66   ar
    29    61    62    2
    30    57    56    1
    31    65    67   ar
    32    56    58    1
    33     9    11    1
    34     9     8    2
    35    78    77    1
    36    78    79    1
    37    15    14    2
    38    66    68   ar
    39    77    71   am
    40    14    13    1
    41     7     8    1
    42     7     6    1
    43   123   122    2
    44    79    80    2
    45     1     2    1
    46    67    68   ar
    47     6     5    1
    48   133   132    2
    49     5     2    1
    50    71    72    2
    51    71    70    1
    52     4     3    2
    53    69    70    1
    54    70    73    1
    55     2     3    1
    56   122   121    1
    57    13    12    1
    58    13    16    1
    59   130   131    1
    60    21    19   ar
    61    21    22   ar
    62   120   121    1
    63    23    22    1
    64    19    17   ar
    65   132   131    1
    66    22    20   ar
    67    43    41    1
    68   121   124    1
    69    17    16    1
    70    17    18   ar
    71    75    74   ar
    72   131   134    1
    73    20    18   ar
    74   134   136    1
    75   134   135    1
    76    50    49    2
    77    42    41    1
    78    73    74    1
    79    41    40    1
    80    74    76   ar
    81   128   126   ar
    82   128   129   ar
    83   126   125   ar
    84   129   127   ar
    85   125   127   ar
    86   125   124    1
    87    49    48    1
    88    49    51   am
    89    48    45    1
    90    45    46    1
    91    45    44    1
    92    40    37    1
    93    46    47    2
    94   171   169    1
    95   170   169    1
    96   169   168    2
    97   168   167    1
    98    37    38    1
    99    37    36    1
   100   140   139    2
   101   167   166    1
   102   146   145    1
   103    95    94    1
   104    95    96    2
   105    38    39    2
   106   137   138    1
   107   159   158    1
   108    94    93    1
   109    94    97    1
   110    99    97    1
   111   139   138    1
   112   141   138    1
   113   141   142    1
   114   143   144    1
   115   143   142    1
   116   153   152    1
   117   166   165    1
   118   145   144    2
   119   145   147    1
   120   160   158    1
   121    97    98    1
   122   158   155    1
   123   119   118    1
   124   165   162    1
   125   148   149    1
   126   151   150    2
   127   157   156    2
   128   152   149    1
   129   118   116   ar
   130   118   117   ar
   131   155   154    1
   132   155   156    1
   133   149   150    1
   134   162   163    1
   135   162   161    1
   136   116   114   ar
   137   163   164    2
   138    92    90    1
   139   106   105    1
   140   117   115   ar
   141    91    90    1
   142   114   113   ar
   143   105   104    1
   144   105   107    1
   145    90    87    1
   146   104   101    1
   147   115   113   ar
   148   100   101    1
   149   113   112    1
   150   103   102    2
   151    87    86    1
   152    87    88    1
   153   101   102    1
   154    88    89    2
   155   112   109    1
   156   111   110    2
   157   110   109    1
   158   109   108    1
