@<TRIPOS>MOLECULE
tmp/4ie6A00.pdb
 196 184 0 0 0
SMALL
GASTEIGER

@<TRIPOS>ATOM
      1  N         33.1380  -14.4360  -34.8240 N.3    70  THR70      -0.1218
      2  CA        33.7010  -13.6310  -33.7400 C.3    70  THR70       0.1862
      3  C         34.9740  -14.2680  -33.1840 C.2    70  THR70       0.2287
      4  O         35.0230  -15.4760  -32.9920 O.2    70  THR70      -0.2866
      5  CB        32.6990  -13.4570  -32.5680 C.3    70  THR70       0.1770
      6  OG1       32.3500  -14.7340  -32.0190 O.3    70  THR70      -0.2211
      7  CG2       31.4410  -12.7610  -33.0370 C.3    70  THR70       0.0375
      8  N         31.7220  -17.5570  -26.7560 N.3    74  ARG74      -0.1245
      9  CA        30.6350  -17.0960  -25.9140 C.3    74  ARG74       0.1563
     10  C         29.6770  -18.2140  -25.5050 C.2    74  ARG74       0.2260
     11  O         29.5230  -19.2040  -26.2000 O.2    74  ARG74      -0.2867
     12  CB        29.8140  -16.0240  -26.6470 C.3    74  ARG74       0.0307
     13  CG        30.5840  -14.7950  -27.0000 C.3    74  ARG74       0.0489
     14  CD        29.6810  -13.5850  -27.1960 C.3    74  ARG74       0.2205
     15  NE        30.4540  -12.3760  -26.9680 N.pl3  74  ARG74      -0.0865
     16  CZ        31.3330  -11.8940  -27.8380 C.cat  74  ARG74       0.5346
     17  NH1       31.5050  -12.5120  -29.0030 N.pl3  74  ARG74       0.1354
     18  NH2       32.0350  -10.7960  -27.5550 N.pl3  74  ARG74       0.1354
     19  N         18.5440  -13.6640  -26.0980 N.3    84  TYR84      -0.1241
     20  CA        19.2310  -12.3790  -26.2080 C.3    84  TYR84       0.1605
     21  C         19.7420  -12.2530  -27.6170 C.2    84  TYR84       0.2264
     22  O         20.5570  -13.0390  -28.0640 O.2    84  TYR84      -0.2867
     23  CB        20.4040  -12.3000  -25.2400 C.3    84  TYR84       0.0534
     24  CG        21.2090  -11.0320  -25.3860 C.ar   84  TYR84      -0.0201
     25  CD1       20.6380   -9.7940  -25.1260 C.ar   84  TYR84      -0.0009
     26  CD2       22.5270  -11.0670  -25.7940 C.ar   84  TYR84      -0.0009
     27  CE1       21.3580   -8.6320  -25.2730 C.ar   84  TYR84       0.0417
     28  CE2       23.2660   -9.8820  -25.9430 C.ar   84  TYR84       0.0417
     29  CZ        22.6770   -8.6880  -25.6760 C.ar   84  TYR84       0.1957
     30  OH        23.3900   -7.5300  -25.8260 O.3    84  TYR84      -0.2866
     31  N         21.8210  -10.3400  -30.5150 N.3    86  TYR86      -0.1227
     32  CA        22.7470   -9.2980  -30.9580 C.3    86  TYR86       0.1736
     33  C         23.3160   -9.6430  -32.3370 C.2    86  TYR86       0.2595
     34  O         23.4520  -10.8160  -32.7010 O.2    86  TYR86      -0.2718
     35  CB        23.8710   -9.0930  -29.9330 C.3    86  TYR86       0.0548
     36  CG        24.9760  -10.1120  -30.0540 C.ar   86  TYR86      -0.0200
     37  CD1       26.2720   -9.7320  -30.3870 C.ar   86  TYR86      -0.0009
     38  CD2       24.7240  -11.4570  -29.8540 C.ar   86  TYR86      -0.0009
     39  CE1       27.2820  -10.6690  -30.5020 C.ar   86  TYR86       0.0417
     40  CE2       25.7240  -12.3940  -29.9720 C.ar   86  TYR86       0.0417
     41  CZ        27.0010  -11.9890  -30.2960 C.ar   86  TYR86       0.1957
     42  OH        28.0190  -12.8930  -30.4180 O.3    86  TYR86      -0.2866
     43  N         23.6340   -8.6080  -33.1050 N.am   87  LEU87      -0.1980
     44  CA        24.2160   -8.7670  -34.4380 C.3    87  LEU87       0.1596
     45  C         23.4670   -9.8260  -35.2730 C.2    87  LEU87       0.2287
     46  O         24.0800  -10.5700  -36.0480 O.2    87  LEU87      -0.2864
     47  CB        25.7210   -9.0800  -34.3340 C.3    87  LEU87       0.0297
     48  CG        26.5650   -8.0710  -33.5320 C.3    87  LEU87       0.0022
     49  CD1       28.0430   -8.4780  -33.5560 C.3    87  LEU87       0.0001
     50  CD2       26.3900   -6.6220  -34.0240 C.3    87  LEU87       0.0001
     51  N         26.2750  -13.1550  -20.4220 N.3   158  LEU158     -0.1245
     52  CA        26.9090  -13.6060  -21.6490 C.3   158  LEU158      0.1561
     53  C         28.3770  -13.7130  -21.2830 C.2   158  LEU158      0.2260
     54  O         29.0260  -12.7180  -20.9750 O.2   158  LEU158     -0.2867
     55  CB        26.6580  -12.6200  -22.7860 C.3   158  LEU158      0.0270
     56  CG        27.0650  -12.9410  -24.2260 C.3   158  LEU158      0.0019
     57  CD1       26.4340  -14.2050  -24.7140 C.3   158  LEU158      0.0001
     58  CD2       26.6470  -11.8110  -25.1400 C.3   158  LEU158      0.0001
     59  N         32.2760  -14.7020  -22.0590 N.3   160  ASN160     -0.1240
     60  CA        33.2130  -14.5470  -23.1680 C.3   160  ASN160      0.1653
     61  C         34.5530  -15.1360  -22.7890 C.2   160  ASN160      0.2266
     62  O         34.9710  -15.0530  -21.6360 O.2   160  ASN160     -0.2867
     63  CB        33.3800  -13.0600  -23.5180 C.3   160  ASN160      0.1155
     64  CG        32.0390  -12.3150  -23.5930 C.2   160  ASN160      0.2627
     65  OD1       31.3670  -12.3380  -24.6210 O.2   160  ASN160     -0.2716
     66  ND2       31.6520  -11.6540  -22.4950 N.am  160  ASN160     -0.0877
     67  N         37.2600   -6.7970  -28.7100 N.3   183  VAL183     -0.1245
     68  CA        35.9420   -6.3510  -29.1420 C.3   183  VAL183      0.1561
     69  C         36.0210   -4.8730  -29.5250 C.2   183  VAL183      0.2260
     70  O         36.4510   -4.0480  -28.7220 O.2   183  VAL183     -0.2867
     71  CB        34.9530   -6.5280  -27.9890 C.3   183  VAL183      0.0252
     72  CG1       33.5120   -6.2230  -28.4310 C.3   183  VAL183      0.0019
     73  CG2       35.1080   -7.9450  -27.4280 C.3   183  VAL183      0.0019
     74  N         31.4520   -0.3580  -29.4720 N.3   186  HIS186     -0.1226
     75  CA        30.0420   -0.7150  -29.6530 C.3   186  HIS186      0.1752
     76  C         29.2060   -0.2680  -28.4480 C.2   186  HIS186      0.2596
     77  O         29.7540    0.0870  -27.4180 O.2   186  HIS186     -0.2718
     78  CB        29.9000   -2.2400  -29.8430 C.3   186  HIS186      0.0759
     79  CG        30.1690   -3.0210  -28.5900 C.ar  186  HIS186      0.0818
     80  ND1       31.4440   -3.2790  -28.1260 N.ar  186  HIS186     -0.2268
     81  CD2       29.3220   -3.5450  -27.6720 C.ar  186  HIS186      0.1154
     82  CE1       31.3670   -3.9570  -26.9940 C.ar  186  HIS186      0.1986
     83  NE2       30.0910   -4.1270  -26.6950 N.ar  186  HIS186     -0.2212
     84  N         27.8880   -0.2780  -28.6110 N.am  187  HIS187     -0.1961
     85  CA        26.9110   -0.2110  -27.5050 C.3   187  HIS187      0.1787
     86  C         26.3900   -1.6230  -27.3020 C.2   187  HIS187      0.2620
     87  O         26.2340   -2.3550  -28.2840 O.2   187  HIS187     -0.2715
     88  CB        25.6870    0.6590  -27.8920 C.3   187  HIS187      0.0785
     89  CG        26.0180    2.0910  -28.1950 C.ar  187  HIS187      0.0821
     90  ND1       26.3120    3.0150  -27.2060 N.ar  187  HIS187     -0.2267
     91  CD2       26.1230    2.7540  -29.3720 C.ar  187  HIS187      0.1154
     92  CE1       26.5620    4.1900  -27.7590 C.ar  187  HIS187      0.1986
     93  NE2       26.4730    4.0540  -29.0710 N.ar  187  HIS187     -0.2212
     94  N         26.0890   -2.0310  -26.0740 N.am  188  ASP188     -0.1957
     95  CA        25.3600   -3.3110  -25.9200 C.3   188  ASP188      0.1840
     96  C         23.9060   -3.1390  -26.3800 C.2   188  ASP188      0.2621
     97  O         23.2040   -2.2860  -25.8790 O.2   188  ASP188     -0.2715
     98  CB        25.3890   -3.8240  -24.4880 C.3   188  ASP188      0.1450
     99  CG        26.7770   -4.2430  -24.0520 C.2   188  ASP188      0.3671
    100  OD1       27.5950   -4.6090  -24.9130 O.co2 188  ASP188     -0.2456
    101  OD2       27.0650   -4.1920  -22.8410 O.co2 188  ASP188     -0.2456
    102  N         23.4900   -3.9310  -27.3640 N.am  189  GLU189     -0.1977
    103  CA        22.1610   -3.8410  -27.9290 C.3   189  GLU189      0.1602
    104  C         21.1160   -4.5920  -27.1050 C.2   189  GLU189      0.2287
    105  O         21.4390   -5.3840  -26.1950 O.2   189  GLU189     -0.2864
    106  CB        22.1310   -4.4380  -29.3360 C.3   189  GLU189      0.0415
    107  CG        23.2450   -4.0030  -30.2650 C.3   189  GLU189      0.1163
    108  CD        23.7060   -5.1630  -31.1740 C.2   189  GLU189      0.3649
    109  OE1       24.9190   -5.5100  -31.1430 O.co2 189  GLU189     -0.2457
    110  OE2       22.8500   -5.7270  -31.9030 O.co2 189  GLU189     -0.2457
    111  N         29.9960   -6.5280  -15.1420 N.3   199  VAL199     -0.1245
    112  CA        30.9720   -7.4120  -15.7560 C.3   199  VAL199      0.1561
    113  C         31.9850   -7.8710  -14.7280 C.2   199  VAL199      0.2260
    114  O         32.7200   -7.0590  -14.1530 O.2   199  VAL199     -0.2867
    115  CB        31.7200   -6.7150  -16.9060 C.3   199  VAL199      0.0252
    116  CG1       32.7960   -7.6200  -17.4710 C.3   199  VAL199      0.0019
    117  CG2       30.7430   -6.3060  -18.0080 C.3   199  VAL199      0.0019
    118  N         39.1110   -2.4320  -20.3030 N.3   216  VAL216     -0.1245
    119  CA        37.8780   -2.0600  -20.9850 C.3   216  VAL216      0.1561
    120  C         38.0220   -0.5720  -21.3690 C.2   216  VAL216      0.2260
    121  O         38.4400    0.2310  -20.5540 O.2   216  VAL216     -0.2867
    122  CB        36.6270   -2.2950  -20.1080 C.3   216  VAL216      0.0252
    123  CG1       36.6860   -1.4960  -18.7940 C.3   216  VAL216      0.0019
    124  CG2       35.3930   -1.9310  -20.8840 C.3   216  VAL216      0.0019
    125  N         42.0470   -4.1770  -16.0810 N.3   233  LEU233     -0.1245
    126  CA        41.3090   -5.2490  -15.4360 C.3   233  LEU233      0.1561
    127  C         42.2390   -6.3960  -15.0720 C.2   233  LEU233      0.2260
    128  O         43.0570   -6.8550  -15.8820 O.2   233  LEU233     -0.2867
    129  CB        40.1930   -5.7450  -16.3570 C.3   233  LEU233      0.0270
    130  CG        39.1030   -4.7020  -16.6050 C.3   233  LEU233      0.0019
    131  CD1       38.1780   -5.1270  -17.7380 C.3   233  LEU233      0.0001
    132  CD2       38.3030   -4.4140  -15.3170 C.3   233  LEU233      0.0001
    133  N         33.2970   -4.2530  -13.2390 N.3   239  TYR239     -0.1241
    134  CA        32.8840   -2.9000  -13.5920 C.3   239  TYR239      0.1605
    135  C         31.3700   -2.8800  -13.8460 C.2   239  TYR239      0.2264
    136  O         30.7780   -3.9230  -14.0190 O.2   239  TYR239     -0.2867
    137  CB        33.7240   -2.3090  -14.7390 C.3   239  TYR239      0.0534
    138  CG        33.5990   -2.9310  -16.1080 C.ar  239  TYR239     -0.0201
    139  CD1       32.7000   -2.4290  -17.0620 C.ar  239  TYR239     -0.0009
    140  CD2       34.4140   -3.9950  -16.4800 C.ar  239  TYR239     -0.0009
    141  CE1       32.5960   -3.0090  -18.3360 C.ar  239  TYR239      0.0417
    142  CE2       34.3200   -4.5760  -17.7490 C.ar  239  TYR239      0.0417
    143  CZ        33.4200   -4.0820  -18.6650 C.ar  239  TYR239      0.1957
    144  OH        33.3730   -4.6670  -19.9090 O.3   239  TYR239     -0.2866
    145  N         31.8540    1.2530  -25.5610 N.3   251  HIS251     -0.1241
    146  CA        32.9640    0.5870  -24.9180 C.3   251  HIS251      0.1621
    147  C         33.6020   -0.4150  -25.8670 C.2   251  HIS251      0.2264
    148  O         33.0240   -0.8000  -26.8920 O.2   251  HIS251     -0.2867
    149  CB        32.5450   -0.0700  -23.6130 C.3   251  HIS251      0.0745
    150  CG        31.4560   -1.0760  -23.7870 C.ar  251  HIS251      0.0817
    151  ND1       30.1400   -0.7140  -23.9580 N.ar  251  HIS251     -0.2268
    152  CD2       31.4900   -2.4320  -23.8260 C.ar  251  HIS251      0.1154
    153  CE1       29.4060   -1.8060  -24.1060 C.ar  251  HIS251      0.1986
    154  NE2       30.1990   -2.8610  -24.0260 N.ar  251  HIS251     -0.2212
    155  N         36.9350   -3.6720  -25.6600 N.3   253  VAL253     -0.1245
    156  CA        37.7300   -4.4960  -24.7790 C.3   253  VAL253      0.1561
    157  C         39.1020   -4.5390  -25.4420 C.2   253  VAL253      0.2260
    158  O         39.2290   -4.8510  -26.6130 O.2   253  VAL253     -0.2867
    159  CB        37.0870   -5.8840  -24.6200 C.3   253  VAL253      0.0252
    160  CG1       37.8880   -6.7700  -23.6560 C.3   253  VAL253      0.0019
    161  CG2       35.5990   -5.7310  -24.1620 C.3   253  VAL253      0.0019
    162  N         41.6530  -14.6920  -21.0910 N.3   260  ARG260     -0.1245
    163  CA        40.7640  -14.0240  -20.1560 C.3   260  ARG260      0.1563
    164  C         39.3010  -14.3700  -20.4370 C.2   260  ARG260      0.2260
    165  O         38.8830  -14.4540  -21.5910 O.2   260  ARG260     -0.2867
    166  CB        41.0070  -12.5120  -20.2260 C.3   260  ARG260      0.0307
    167  CG        40.0950  -11.6700  -19.3750 C.3   260  ARG260      0.0489
    168  CD        39.2270  -10.8320  -20.2540 C.3   260  ARG260      0.2205
    169  NE        38.5020   -9.8200  -19.5010 N.pl3 260  ARG260     -0.0865
    170  CZ        37.4760   -9.1130  -19.9820 C.cat 260  ARG260      0.5346
    171  NH1       37.0390   -9.3080  -21.2200 N.pl3 260  ARG260      0.1354
    172  NH2       36.8890   -8.2100  -19.2090 N.pl3 260  ARG260      0.1354
    173  N         35.1580  -13.3050  -19.2510 N.3   262  SER262     -0.1217
    174  CA        34.3130  -12.3390  -18.5500 C.3   262  SER262      0.1889
    175  C         32.8720  -12.8140  -18.5080 C.2   262  SER262      0.2288
    176  O         32.4320  -13.5810  -19.3610 O.2   262  SER262     -0.2866
    177  CB        34.3800  -10.9460  -19.1880 C.3   262  SER262      0.2089
    178  OG        33.7250  -10.9100  -20.4430 O.3   262  SER262     -0.2183
    179  N         29.3060  -11.0280  -18.4510 N.3   264  THR264     -0.1218
    180  CA        28.5720   -9.7750  -18.6280 C.3   264  THR264      0.1862
    181  C         27.0470   -9.9370  -18.4140 C.2   264  THR264      0.2287
    182  O         26.2870  -10.3410  -19.3080 O.2   264  THR264     -0.2866
    183  CB        28.8950   -9.1360  -20.0010 C.3   264  THR264      0.1770
    184  OG1       28.2550   -9.8610  -21.0500 O.3   264  THR264     -0.2211
    185  CG2       30.3960   -9.1590  -20.2510 C.3   264  THR264      0.0375
    186  N         23.2170   -8.8100  -17.7400 N.3   266  ARG266     -0.1245
    187  CA        22.3740   -7.8740  -18.4840 C.3   266  ARG266      0.1563
    188  C         20.9030   -8.0800  -18.2300 C.2   266  ARG266      0.2260
    189  O         20.4680   -9.1670  -17.8640 O.2   266  ARG266     -0.2867
    190  CB        22.6050   -8.0290  -19.9850 C.3   266  ARG266      0.0307
    191  CG        24.0370   -7.7850  -20.4110 C.3   266  ARG266      0.0489
    192  CD        24.3970   -8.6390  -21.6060 C.3   266  ARG266      0.2205
    193  NE        25.8090   -8.5550  -21.9740 N.pl3 266  ARG266     -0.0865
    194  CZ        26.2640   -7.9330  -23.0490 C.cat 266  ARG266      0.5346
    195  NH1       25.4310   -7.3250  -23.8570 N.pl3 266  ARG266      0.1354
    196  NH2       27.5610   -7.9240  -23.3240 N.pl3 266  ARG266      0.1354
@<TRIPOS>BOND
     1    46    45    2
     2    45    44    1
     3     1     2    1
     4    44    47    1
     5    44    43    1
     6    47    48    1
     7    50    48    1
     8     2     3    1
     9     2     5    1
    10    49    48    1
    11     3     4    2
    12    43    33   am
    13     7     5    1
    14    34    33    2
    15     5     6    1
    16    33    32    1
    17   110   108   ar
    18   108   109   ar
    19   108   107    1
    20    32    31    1
    21    32    35    1
    22    39    37   ar
    23    39    41   ar
    24    42    41    1
    25    37    36   ar
    26    41    40   ar
    27   107   106    1
    28    36    35    1
    29    36    38   ar
    30    40    38   ar
    31    78    75    1
    32    78    79    1
    33    75    74    1
    34    75    76    1
    35    69    68    1
    36    69    70    2
    37    91    93   ar
    38    91    89   ar
    39   106   103    1
    40    68    67    1
    41    68    71    1
    42    93    92   ar
    43    17    16    1
    44    84    76   am
    45    84    85    1
    46    79    80   ar
    47    79    81   ar
    48    76    77    2
    49    72    71    1
    50    87    86    2
    51    89    88    1
    52    89    90   ar
    53    80    82   ar
    54    22    21    2
    55    71    73    1
    56   103   102    1
    57   103   104    1
    58    88    85    1
    59    16    18    1
    60    16    15    2
    61    92    90   ar
    62    81    83   ar
    63    21    20    1
    64    85    86    1
    65   102    96   am
    66    86    94   am
    67    14    13    1
    68    14    15    1
    69   104   105    2
    70    13    12    1
    71    82    83   ar
    72   148   147    2
    73     8     9    1
    74    12     9    1
    75   158   157    2
    76    96    95    1
    77    96    97    2
    78    20    19    1
    79    20    23    1
    80    11    10    2
    81    94    95    1
    82    28    26   ar
    83    28    29   ar
    84    95    98    1
    85     9    10    1
    86   147   146    1
    87    30    29    1
    88    26    24   ar
    89    29    27   ar
    90   155   156    1
    91   145   146    1
    92   157   156    1
    93    24    23    1
    94    24    25   ar
    95    27    25   ar
    96    58    56    1
    97   146   149    1
    98   100    99   ar
    99   156   159    1
   100    57    56    1
   101    65    64    2
   102   159   161    1
   103   159   160    1
   104    98    99    1
   105    56    55    1
   106   153   154   ar
   107   153   151   ar
   108    99   101   ar
   109   154   152   ar
   110   151   150   ar
   111   195   194    1
   112   152   150   ar
   113   150   149    1
   114    64    63    1
   115    64    66   am
   116    63    60    1
   117   196   194    1
   118    60    61    1
   119    60    59    1
   120   194   193    2
   121    61    62    2
   122    55    52    1
   123   193   192    1
   124    52    53    1
   125    52    51    1
   126   192   191    1
   127   165   164    2
   128   120   119    1
   129   120   121    2
   130    53    54    2
   131   171   170    1
   132   162   163    1
   133   184   183    1
   134   119   118    1
   135   119   122    1
   136   124   122    1
   137   178   177    1
   138   164   163    1
   139   191   190    1
   140   168   169    1
   141   168   167    1
   142   185   183    1
   143   166   163    1
   144   166   167    1
   145   122   123    1
   146   183   180    1
   147   190   187    1
   148   170   169    2
   149   170   172    1
   150   144   143    1
   151   176   175    2
   152   182   181    2
   153   173   174    1
   154   177   174    1
   155   143   141   ar
   156   143   142   ar
   157   180   179    1
   158   180   181    1
   159   174   175    1
   160   187   188    1
   161   187   186    1
   162   141   139   ar
   163   188   189    2
   164   117   115    1
   165   142   140   ar
   166   131   130    1
   167   116   115    1
   168   139   138   ar
   169   115   112    1
   170   130   129    1
   171   130   132    1
   172   140   138   ar
   173   129   126    1
   174   138   137    1
   175   125   126    1
   176   128   127    2
   177   112   111    1
   178   112   113    1
   179   126   127    1
   180   137   134    1
   181   113   114    2
   182   136   135    2
   183   135   134    1
   184   134   133    1
