@<TRIPOS>MOLECULE
tmp/4ie7A00.pdb
 141 139 0 0 0
SMALL
GASTEIGER

@<TRIPOS>ATOM
      1  N         27.3370   -8.2140  -39.7030 N.3    59  ILE59      -0.1245
      2  CA        27.7510   -6.8350  -39.5060 C.3    59  ILE59       0.1561
      3  C         27.8910   -6.1720  -40.8720 C.2    59  ILE59       0.2260
      4  O         28.5120   -6.7360  -41.7890 O.2    59  ILE59      -0.2867
      5  CB        29.0790   -6.7710  -38.7790 C.3    59  ILE59       0.0252
      6  CG1       28.9680   -7.4850  -37.4310 C.3    59  ILE59       0.0019
      7  CG2       29.5060   -5.3300  -38.5840 C.3    59  ILE59       0.0019
      8  CD1       30.2430   -7.4420  -36.6030 C.3    59  ILE59       0.0001
      9  N         33.1620  -14.0840  -34.9510 N.3    66  THR66      -0.1218
     10  CA        33.6930  -13.3000  -33.8490 C.3    66  THR66       0.1862
     11  C         34.9910  -13.9250  -33.3040 C.2    66  THR66       0.2287
     12  O         35.0480  -15.1300  -33.0450 O.2    66  THR66      -0.2866
     13  CB        32.6610  -13.1610  -32.7200 C.3    66  THR66       0.1770
     14  OG1       32.4550  -14.4240  -32.0840 O.3    66  THR66      -0.2211
     15  CG2       31.3280  -12.6540  -33.2680 C.3    66  THR66       0.0375
     16  N         31.8400  -17.3330  -26.9820 N.3    70  ARG70      -0.1245
     17  CA        30.8140  -16.9330  -26.0410 C.3    70  ARG70       0.1563
     18  C         29.8990  -18.0720  -25.6270 C.2    70  ARG70       0.2260
     19  O         29.8590  -19.1310  -26.2600 O.2    70  ARG70      -0.2867
     20  CB        29.9790  -15.7890  -26.6360 C.3    70  ARG70       0.0307
     21  CG        30.8120  -14.5790  -27.0390 C.3    70  ARG70       0.0489
     22  CD        29.9730  -13.3130  -27.2710 C.3    70  ARG70       0.2205
     23  NE        30.8090  -12.1060  -27.2580 N.pl3  70  ARG70      -0.0865
     24  CZ        31.3900  -11.6020  -28.3420 C.cat  70  ARG70       0.5346
     25  NH1       31.2080  -12.2000  -29.5160 N.pl3  70  ARG70       0.1354
     26  NH2       32.1520  -10.5080  -28.2700 N.pl3  70  ARG70       0.1354
     27  N         18.7200  -13.6520  -25.8470 N.3    80  TYR80      -0.1241
     28  CA        19.4180  -12.3750  -25.8700 C.3    80  TYR80       0.1605
     29  C         19.8910  -12.2230  -27.2810 C.2    80  TYR80       0.2264
     30  O         20.6600  -13.0370  -27.7640 O.2    80  TYR80      -0.2867
     31  CB        20.6260  -12.3790  -24.9290 C.3    80  TYR80       0.0534
     32  CG        21.4300  -11.0920  -24.9870 C.ar   80  TYR80      -0.0201
     33  CD1       20.8400   -9.8820  -24.6640 C.ar   80  TYR80      -0.0009
     34  CD2       22.7480  -11.0840  -25.3770 C.ar   80  TYR80      -0.0009
     35  CE1       21.5260   -8.7250  -24.7240 C.ar   80  TYR80       0.0417
     36  CE2       23.4570   -9.9010  -25.4310 C.ar   80  TYR80       0.0417
     37  CZ        22.8350   -8.7280  -25.0990 C.ar   80  TYR80       0.1957
     38  OH        23.4960   -7.5190  -25.1470 O.3    80  TYR80      -0.2866
     39  N         21.9540  -10.2950  -30.1610 N.3    82  TYR82      -0.1227
     40  CA        22.8880   -9.2940  -30.6730 C.3    82  TYR82       0.1736
     41  C         23.4230   -9.6590  -32.0640 C.2    82  TYR82       0.2595
     42  O         23.5520  -10.8410  -32.4090 O.2    82  TYR82      -0.2718
     43  CB        24.0400   -9.0920  -29.6960 C.3    82  TYR82       0.0548
     44  CG        25.1950  -10.0630  -29.8880 C.ar   82  TYR82      -0.0200
     45  CD1       26.0150   -9.9840  -31.0030 C.ar   82  TYR82      -0.0009
     46  CD2       25.4810  -11.0340  -28.9480 C.ar   82  TYR82      -0.0009
     47  CE1       27.0660  -10.8540  -31.1880 C.ar   82  TYR82       0.0417
     48  CE2       26.5430  -11.9020  -29.1230 C.ar   82  TYR82       0.0417
     49  CZ        27.3260  -11.8060  -30.2450 C.ar   82  TYR82       0.1957
     50  OH        28.3760  -12.6680  -30.4260 O.3    82  TYR82      -0.2866
     51  N         23.7590   -8.6320  -32.8450 N.am   83  LEU83      -0.1980
     52  CA        24.2920   -8.7890  -34.2060 C.3    83  LEU83       0.1596
     53  C         23.5280   -9.8590  -35.0390 C.2    83  LEU83       0.2287
     54  O         24.1230  -10.6900  -35.7410 O.2    83  LEU83      -0.2864
     55  CB        25.8250   -9.0300  -34.1740 C.3    83  LEU83       0.0297
     56  CG        26.6840   -7.9310  -33.5010 C.3    83  LEU83       0.0022
     57  CD1       28.1740   -8.2040  -33.5720 C.3    83  LEU83       0.0001
     58  CD2       26.3820   -6.5640  -34.0930 C.3    83  LEU83       0.0001
     59  N         26.4010  -13.0590  -20.3860 N.3   150  LEU150     -0.1245
     60  CA        27.0700  -13.4890  -21.5990 C.3   150  LEU150      0.1561
     61  C         28.5170  -13.6630  -21.2420 C.2   150  LEU150      0.2260
     62  O         29.2070  -12.7020  -20.9090 O.2   150  LEU150     -0.2867
     63  CB        26.9090  -12.4630  -22.7190 C.3   150  LEU150      0.0270
     64  CG        27.3920  -12.8170  -24.1430 C.3   150  LEU150      0.0019
     65  CD1       26.8250  -14.1160  -24.6130 C.3   150  LEU150      0.0001
     66  CD2       27.0230  -11.7380  -25.1580 C.3   150  LEU150      0.0001
     67  N         37.4860   -6.6240  -28.7490 N.3   175  VAL175     -0.1231
     68  CA        36.1480   -6.2440  -29.1480 C.3   175  VAL175      0.1692
     69  C         36.2150   -4.7750  -29.4810 C.2   175  VAL175      0.2593
     70  O         36.6660   -3.9930  -28.6480 O.2   175  VAL175     -0.2718
     71  CB        35.1880   -6.4670  -27.9900 C.3   175  VAL175      0.0266
     72  CG1       33.7810   -6.2230  -28.4360 C.3   175  VAL175      0.0020
     73  CG2       35.3610   -7.8890  -27.4660 C.3   175  VAL175      0.0020
     74  N         35.8080   -4.3850  -30.6870 N.am  176  SER176     -0.1938
     75  CA        35.8870   -2.9650  -31.0450 C.3   176  SER176      0.2055
     76  C         34.7550   -2.1350  -30.4360 C.2   176  SER176      0.2643
     77  O         33.8390   -2.6730  -29.8310 O.2   176  SER176     -0.2714
     78  CB        35.9240   -2.7810  -32.5510 C.3   176  SER176      0.2130
     79  OG        35.1050   -3.7450  -33.1500 O.3   176  SER176     -0.2179
     80  N         34.8480   -0.8200  -30.5940 N.am  177  TRP177     -0.1959
     81  CA        33.8980    0.1160  -29.9910 C.3   177  TRP177      0.1771
     82  C         32.4530   -0.1850  -30.3770 C.2   177  TRP177      0.2620
     83  O         32.1460   -0.2590  -31.5680 O.2   177  TRP177     -0.2715
     84  CB        34.2280    1.5430  -30.4280 C.3   177  TRP177      0.0590
     85  CG        35.5150    2.0560  -29.9370 C.ar  177  TRP177      0.0006
     86  CD1       36.6430    2.3040  -30.6820 C.ar  177  TRP177      0.0946
     87  CD2       35.8340    2.4260  -28.5920 C.ar  177  TRP177      0.0152
     88  NE1       37.6390    2.8230  -29.8820 N.ar  177  TRP177     -0.2442
     89  CE2       37.1760    2.9010  -28.5940 C.ar  177  TRP177      0.0810
     90  CE3       35.1240    2.4080  -27.3860 C.ar  177  TRP177      0.0012
     91  CZ2       37.8140    3.3470  -27.4360 C.ar  177  TRP177      0.0191
     92  CZ3       35.7590    2.8570  -26.2340 C.ar  177  TRP177      0.0001
     93  CH2       37.0950    3.3180  -26.2690 C.ar  177  TRP177      0.0015
     94  N         31.5680   -0.3170  -29.3800 N.am  178  HIS178     -0.1959
     95  CA        30.1440   -0.6520  -29.6380 C.3   178  HIS178      0.1787
     96  C         29.2550   -0.2790  -28.4720 C.2   178  HIS178      0.2620
     97  O         29.7310    0.0070  -27.3850 O.2   178  HIS178     -0.2715
     98  CB        29.9610   -2.1570  -29.8810 C.3   178  HIS178      0.0785
     99  CG        30.2260   -2.9930  -28.6720 C.ar  178  HIS178      0.0821
    100  ND1       31.5010   -3.2250  -28.1870 N.ar  178  HIS178     -0.2267
    101  CD2       29.3870   -3.6310  -27.8190 C.ar  178  HIS178      0.1154
    102  CE1       31.4280   -3.9650  -27.1010 C.ar  178  HIS178      0.1986
    103  NE2       30.1520   -4.2250  -26.8500 N.ar  178  HIS178     -0.2212
    104  N         27.9550   -0.2760  -28.7120 N.am  179  HIS179     -0.1959
    105  CA        26.9570   -0.1620  -27.6430 C.3   179  HIS179      0.1787
    106  C         26.3950   -1.5680  -27.4430 C.2   179  HIS179      0.2620
    107  O         26.2070   -2.2890  -28.4300 O.2   179  HIS179     -0.2715
    108  CB        25.8190    0.7620  -28.0690 C.3   179  HIS179      0.0785
    109  CG        26.1870    2.2080  -28.2030 C.ar  179  HIS179      0.0821
    110  ND1       26.3700    3.0420  -27.1160 N.ar  179  HIS179     -0.2267
    111  CD2       26.3360    2.9930  -29.2970 C.ar  179  HIS179      0.1154
    112  CE1       26.6310    4.2650  -27.5350 C.ar  179  HIS179      0.1986
    113  NE2       26.6250    4.2620  -28.8570 N.ar  179  HIS179     -0.2212
    114  N         26.1430   -1.9880  -26.2050 N.am  180  ASP180     -0.1957
    115  CA        25.4090   -3.2530  -26.0060 C.3   180  ASP180      0.1840
    116  C         23.9190   -3.0790  -26.3530 C.2   180  ASP180      0.2621
    117  O         23.2260   -2.3000  -25.7140 O.2   180  ASP180     -0.2715
    118  CB        25.5230   -3.7500  -24.5760 C.3   180  ASP180      0.1450
    119  CG        26.8910   -4.3060  -24.2630 C.2   180  ASP180      0.3671
    120  OD1       27.5610   -4.7560  -25.2090 O.co2 180  ASP180     -0.2456
    121  OD2       27.3130   -4.2870  -23.0790 O.co2 180  ASP180     -0.2456
    122  N         23.5120   -3.6930  -27.4620 N.am  181  GLU181     -0.1977
    123  CA        22.1280   -3.9580  -27.8600 C.3   181  GLU181      0.1602
    124  C         21.2150   -4.7640  -26.9190 C.2   181  GLU181      0.2287
    125  O         21.6720   -5.4980  -26.0380 O.2   181  GLU181     -0.2864
    126  CB        22.1250   -4.7150  -29.1870 C.3   181  GLU181      0.0415
    127  CG        22.8680   -4.0690  -30.3410 C.3   181  GLU181      0.1163
    128  CD        23.0570   -5.0520  -31.5150 C.2   181  GLU181      0.3649
    129  OE1       22.4680   -6.1570  -31.4520 O.co2 181  GLU181     -0.2457
    130  OE2       23.7820   -4.7280  -32.4930 O.co2 181  GLU181     -0.2457
    131  N         23.3610   -8.9160  -17.5930 N.3   258  ARG258     -0.1245
    132  CA        22.5520   -7.9620  -18.3530 C.3   258  ARG258      0.1563
    133  C         21.0860   -8.1710  -18.0570 C.2   258  ARG258      0.2260
    134  O         20.6660   -9.2980  -17.7680 O.2   258  ARG258     -0.2867
    135  CB        22.7820   -8.1700  -19.8620 C.3   258  ARG258      0.0307
    136  CG        24.2430   -8.2470  -20.2320 C.3   258  ARG258      0.0489
    137  CD        24.5620   -8.8160  -21.6050 C.3   258  ARG258      0.2205
    138  NE        26.0000   -8.6570  -21.8390 N.pl3 258  ARG258     -0.0865
    139  CZ        26.5440   -7.9130  -22.8000 C.cat 258  ARG258      0.5346
    140  NH1       25.7840   -7.2870  -23.6790 N.pl3 258  ARG258      0.1354
    141  NH2       27.8660   -7.8210  -22.9150 N.pl3 258  ARG258      0.1354
@<TRIPOS>BOND
     1     4     3    2
     2     3     2    1
     3     1     2    1
     4     2     5    1
     5     5     7    1
     6     5     6    1
     7     6     8    1
     8    54    53    2
     9    53    52    1
    10     9    10    1
    11    52    55    1
    12    52    51    1
    13    55    56    1
    14    58    56    1
    15    10    11    1
    16    10    13    1
    17    57    56    1
    18    11    12    2
    19    15    13    1
    20    79    78    1
    21    51    41   am
    22    13    14    1
    23    78    75    1
    24   130   128   ar
    25    42    41    2
    26    41    40    1
    27    83    82    2
    28   128   129   ar
    29   128   127    1
    30    47    45   ar
    31    47    49   ar
    32    75    74    1
    33    75    76    1
    34    45    44   ar
    35    74    69   am
    36    86    85   ar
    37    86    88   ar
    38    40    39    1
    39    40    43    1
    40    80    76   am
    41    80    81    1
    42    76    77    2
    43    84    81    1
    44    84    85    1
    45    50    49    1
    46    82    81    1
    47    82    94   am
    48   127   126    1
    49    49    48   ar
    50    85    87   ar
    51    44    43    1
    52    44    46   ar
    53    88    89   ar
    54    98    95    1
    55    98    99    1
    56    95    94    1
    57    95    96    1
    58    25    24    1
    59    69    68    1
    60    69    70    2
    61   111   113   ar
    62   111   109   ar
    63   126   123    1
    64    68    67    1
    65    68    71    1
    66    48    46   ar
    67   113   112   ar
    68   104    96   am
    69   104   105    1
    70    99   100   ar
    71    99   101   ar
    72    89    87   ar
    73    89    91   ar
    74    87    90   ar
    75    96    97    2
    76    72    71    1
    77   107   106    2
    78    24    26    1
    79    24    23    2
    80   109   108    1
    81   109   110   ar
    82   100   102   ar
    83   108   105    1
    84    71    73    1
    85   123   122    1
    86   123   124    1
    87   101   103   ar
    88    30    29    2
    89   105   106    1
    90   112   110   ar
    91   122   116   am
    92   106   114   am
    93    91    93   ar
    94    90    92   ar
    95    29    28    1
    96    22    23    1
    97    22    21    1
    98   102   103   ar
    99    21    20    1
   100    16    17    1
   101   124   125    2
   102    20    17    1
   103   116   115    1
   104   116   117    2
   105    93    92   ar
   106    19    18    2
   107   114   115    1
   108    17    18    1
   109   115   118    1
   110    28    27    1
   111    28    31    1
   112    36    34   ar
   113    36    37   ar
   114    34    32   ar
   115   120   119   ar
   116    66    64    1
   117    38    37    1
   118    37    35   ar
   119    32    31    1
   120    32    33   ar
   121    35    33   ar
   122    65    64    1
   123   118   119    1
   124   119   121   ar
   125    64    63    1
   126   140   139    1
   127   141   139    1
   128   139   138    2
   129    63    60    1
   130   138   137    1
   131   137   136    1
   132    60    61    1
   133    60    59    1
   134    61    62    2
   135   136   135    1
   136   135   132    1
   137   132   133    1
   138   132   131    1
   139   133   134    2
