@<TRIPOS>MOLECULE
tmp/4ie7A01.pdb
 152 137 0 0 0
SMALL
GASTEIGER

@<TRIPOS>ATOM
      1  N         36.1450  -13.6250  -30.4510 N.3    68  VAL68      -0.1245
      2  CA        35.8000  -14.0190  -29.0930 C.3    68  VAL68       0.1561
      3  C         34.8520  -15.2250  -29.0950 C.2    68  VAL68       0.2260
      4  O         34.0100  -15.3570  -29.9780 O.2    68  VAL68      -0.2867
      5  CB        35.1050  -12.8120  -28.3900 C.3    68  VAL68       0.0252
      6  CG1       34.4550  -13.2040  -27.0600 C.3    68  VAL68       0.0019
      7  CG2       36.1050  -11.6720  -28.2060 C.3    68  VAL68       0.0019
      8  N         31.8400  -17.3330  -26.9820 N.3    70  ARG70      -0.1245
      9  CA        30.8140  -16.9330  -26.0410 C.3    70  ARG70       0.1563
     10  C         29.8990  -18.0720  -25.6270 C.2    70  ARG70       0.2260
     11  O         29.8590  -19.1310  -26.2600 O.2    70  ARG70      -0.2867
     12  CB        29.9790  -15.7890  -26.6360 C.3    70  ARG70       0.0307
     13  CG        30.8120  -14.5790  -27.0390 C.3    70  ARG70       0.0489
     14  CD        29.9730  -13.3130  -27.2710 C.3    70  ARG70       0.2205
     15  NE        30.8090  -12.1060  -27.2580 N.pl3  70  ARG70      -0.0865
     16  CZ        31.3900  -11.6020  -28.3420 C.cat  70  ARG70       0.5346
     17  NH1       31.2080  -12.2000  -29.5160 N.pl3  70  ARG70       0.1354
     18  NH2       32.1520  -10.5080  -28.2700 N.pl3  70  ARG70       0.1354
     19  N         26.4010  -13.0590  -20.3860 N.3   150  LEU150     -0.1245
     20  CA        27.0700  -13.4890  -21.5990 C.3   150  LEU150      0.1561
     21  C         28.5170  -13.6630  -21.2420 C.2   150  LEU150      0.2260
     22  O         29.2070  -12.7020  -20.9090 O.2   150  LEU150     -0.2867
     23  CB        26.9090  -12.4630  -22.7190 C.3   150  LEU150      0.0270
     24  CG        27.3920  -12.8170  -24.1430 C.3   150  LEU150      0.0019
     25  CD1       26.8250  -14.1160  -24.6130 C.3   150  LEU150      0.0001
     26  CD2       27.0230  -11.7380  -25.1580 C.3   150  LEU150      0.0001
     27  N         32.4150  -14.6700  -22.0380 N.3   152  ASN152     -0.1240
     28  CA        33.3530  -14.5270  -23.1580 C.3   152  ASN152      0.1653
     29  C         34.7210  -15.0980  -22.8020 C.2   152  ASN152      0.2266
     30  O         35.1620  -15.0060  -21.6530 O.2   152  ASN152     -0.2867
     31  CB        33.4890  -13.0520  -23.5840 C.3   152  ASN152      0.1155
     32  CG        32.1460  -12.3130  -23.5830 C.2   152  ASN152      0.2627
     33  OD1       31.4880  -12.1700  -24.6300 O.2   152  ASN152     -0.2716
     34  ND2       31.7220  -11.8570  -22.3930 N.am  152  ASN152     -0.0877
     35  N         37.4860   -6.6240  -28.7490 N.3   175  VAL175     -0.1245
     36  CA        36.1480   -6.2440  -29.1480 C.3   175  VAL175      0.1561
     37  C         36.2150   -4.7750  -29.4810 C.2   175  VAL175      0.2260
     38  O         36.6660   -3.9930  -28.6480 O.2   175  VAL175     -0.2867
     39  CB        35.1880   -6.4670  -27.9900 C.3   175  VAL175      0.0252
     40  CG1       33.7810   -6.2230  -28.4360 C.3   175  VAL175      0.0019
     41  CG2       35.3610   -7.8890  -27.4660 C.3   175  VAL175      0.0019
     42  N         31.5680   -0.3170  -29.3800 N.3   178  HIS178     -0.1241
     43  CA        30.1440   -0.6520  -29.6380 C.3   178  HIS178      0.1621
     44  C         29.2550   -0.2790  -28.4720 C.2   178  HIS178      0.2264
     45  O         29.7310    0.0070  -27.3850 O.2   178  HIS178     -0.2867
     46  CB        29.9610   -2.1570  -29.8810 C.3   178  HIS178      0.0745
     47  CG        30.2260   -2.9930  -28.6720 C.ar  178  HIS178      0.0817
     48  ND1       31.5010   -3.2250  -28.1870 N.ar  178  HIS178     -0.2268
     49  CD2       29.3870   -3.6310  -27.8190 C.ar  178  HIS178      0.1154
     50  CE1       31.4280   -3.9650  -27.1010 C.ar  178  HIS178      0.1986
     51  NE2       30.1520   -4.2250  -26.8500 N.ar  178  HIS178     -0.2212
     52  N         26.1430   -1.9880  -26.2050 N.3   180  ASP180     -0.1239
     53  CA        25.4090   -3.2530  -26.0060 C.3   180  ASP180      0.1674
     54  C         23.9190   -3.0790  -26.3530 C.2   180  ASP180      0.2266
     55  O         23.2260   -2.3000  -25.7140 O.2   180  ASP180     -0.2867
     56  CB        25.5230   -3.7500  -24.5760 C.3   180  ASP180      0.1410
     57  CG        26.8910   -4.3060  -24.2630 C.2   180  ASP180      0.3668
     58  OD1       27.5610   -4.7560  -25.2090 O.co2 180  ASP180     -0.2456
     59  OD2       27.3130   -4.2870  -23.0790 O.co2 180  ASP180     -0.2456
     60  N         24.7650   -3.0750  -16.3850 N.3   189  VAL189     -0.1245
     61  CA        25.4950   -4.2390  -16.8650 C.3   189  VAL189      0.1561
     62  C         26.6590   -4.4270  -15.9090 C.2   189  VAL189      0.2260
     63  O         27.3550   -3.4560  -15.6020 O.2   189  VAL189     -0.2867
     64  CB        25.9950   -4.0120  -18.2990 C.3   189  VAL189      0.0252
     65  CG1       27.0510   -5.0300  -18.6850 C.3   189  VAL189      0.0019
     66  CG2       24.8150   -4.0280  -19.2840 C.3   189  VAL189      0.0019
     67  N         30.1570   -6.6050  -15.1040 N.3   191  VAL191     -0.1245
     68  CA        31.1500   -7.5040  -15.6770 C.3   191  VAL191      0.1561
     69  C         32.1470   -7.9790  -14.6540 C.2   191  VAL191      0.2260
     70  O         32.7870   -7.1720  -13.9660 O.2   191  VAL191     -0.2867
     71  CB        31.9420   -6.8210  -16.7660 C.3   191  VAL191      0.0252
     72  CG1       33.0410   -7.7400  -17.2670 C.3   191  VAL191      0.0019
     73  CG2       31.0180   -6.3970  -17.8790 C.3   191  VAL191      0.0019
     74  N         39.2260   -2.5370  -20.2650 N.3   208  VAL208     -0.1245
     75  CA        37.9880   -2.1490  -20.9250 C.3   208  VAL208      0.1561
     76  C         38.1430   -0.6600  -21.2620 C.2   208  VAL208      0.2260
     77  O         38.5460    0.1210  -20.4110 O.2   208  VAL208     -0.2867
     78  CB        36.7370   -2.4020  -20.0520 C.3   208  VAL208      0.0252
     79  CG1       36.8440   -1.7280  -18.6790 C.3   208  VAL208      0.0019
     80  CG2       35.4890   -1.9440  -20.7830 C.3   208  VAL208      0.0019
     81  N         33.5280   -4.3250  -13.1710 N.3   231  TYR231     -0.1241
     82  CA        33.0920   -2.9760  -13.5100 C.3   231  TYR231      0.1605
     83  C         31.5780   -2.9860  -13.7370 C.2   231  TYR231      0.2264
     84  O         30.9810   -4.0500  -13.8230 O.2   231  TYR231     -0.2867
     85  CB        33.8980   -2.3550  -14.6710 C.3   231  TYR231      0.0534
     86  CG        33.7040   -2.9170  -16.0680 C.ar  231  TYR231     -0.0201
     87  CD1       32.7890   -2.3450  -16.9450 C.ar  231  TYR231     -0.0009
     88  CD2       34.4810   -3.9740  -16.5340 C.ar  231  TYR231     -0.0009
     89  CE1       32.6080   -2.8410  -18.2270 C.ar  231  TYR231      0.0417
     90  CE2       34.3190   -4.4740  -17.8260 C.ar  231  TYR231      0.0417
     91  CZ        33.3800   -3.9040  -18.6590 C.ar  231  TYR231      0.1957
     92  OH        33.2160   -4.3850  -19.9260 O.3   231  TYR231     -0.2866
     93  N         28.3700   -0.6720  -15.7640 N.3   233  MET233     -0.1245
     94  CA        27.8320    0.4590  -16.4820 C.3   233  MET233      0.1570
     95  C         26.4560    0.7180  -15.9050 C.2   233  MET233      0.2261
     96  O         25.5670   -0.1410  -15.9230 O.2   233  MET233     -0.2867
     97  CB        27.7960    0.1800  -17.9820 C.3   233  MET233      0.0387
     98  CG        29.1340   -0.3850  -18.5110 C.3   233  MET233      0.0595
     99  SD        29.1520   -0.7870  -20.2710 S.3   233  MET233     -0.1393
    100  CE        27.8060   -1.9550  -20.4400 C.3   233  MET233      0.0692
    101  N         31.9470    1.3150  -25.5240 N.3   243  HIS243     -0.1241
    102  CA        33.0420    0.6280  -24.8710 C.3   243  HIS243      0.1621
    103  C         33.6510   -0.4080  -25.8080 C.2   243  HIS243      0.2264
    104  O         33.0460   -0.8110  -26.8080 O.2   243  HIS243     -0.2867
    105  CB        32.5850   -0.0320  -23.5870 C.3   243  HIS243      0.0745
    106  CG        31.5740   -1.1010  -23.8140 C.ar  243  HIS243      0.0817
    107  ND1       30.2320   -0.8330  -23.8480 N.ar  243  HIS243     -0.2268
    108  CD2       31.7080   -2.4320  -24.0510 C.ar  243  HIS243      0.1154
    109  CE1       29.5690   -1.9550  -24.0840 C.ar  243  HIS243      0.1986
    110  NE2       30.4410   -2.9380  -24.2250 N.ar  243  HIS243     -0.2212
    111  N         37.0430   -3.6400  -25.7410 N.3   245  VAL245     -0.1245
    112  CA        37.9080   -4.4440  -24.8930 C.3   245  VAL245      0.1561
    113  C         39.3120   -4.4140  -25.5130 C.2   245  VAL245      0.2260
    114  O         39.4840   -4.7130  -26.6810 O.2   245  VAL245     -0.2867
    115  CB        37.3790   -5.8800  -24.7640 C.3   245  VAL245      0.0252
    116  CG1       38.2700   -6.6920  -23.8470 C.3   245  VAL245      0.0019
    117  CG2       35.9000   -5.8890  -24.2670 C.3   245  VAL245      0.0019
    118  N         41.7020  -14.5890  -21.3580 N.3   252  ARG252     -0.1245
    119  CA        40.8310  -13.9880  -20.3660 C.3   252  ARG252      0.1563
    120  C         39.3830  -14.3830  -20.5880 C.2   252  ARG252      0.2260
    121  O         38.9280  -14.5150  -21.7290 O.2   252  ARG252     -0.2867
    122  CB        40.9740  -12.4620  -20.4040 C.3   252  ARG252      0.0307
    123  CG        40.0090  -11.6760  -19.5230 C.3   252  ARG252      0.0489
    124  CD        39.2650  -10.6540  -20.3680 C.3   252  ARG252      0.2205
    125  NE        38.4070   -9.7570  -19.5840 N.pl3 252  ARG252     -0.0865
    126  CZ        37.3880   -9.0550  -20.0860 C.cat 252  ARG252      0.5346
    127  NH1       37.0750   -9.1330  -21.3730 N.pl3 252  ARG252      0.1354
    128  NH2       36.6780   -8.2530  -19.3040 N.pl3 252  ARG252      0.1354
    129  N         35.2480  -13.4290  -19.1630 N.3   254  SER254     -0.1217
    130  CA        34.4140  -12.5070  -18.3870 C.3   254  SER254      0.1889
    131  C         32.9610  -12.9430  -18.3410 C.2   254  SER254      0.2288
    132  O         32.4920  -13.6730  -19.2240 O.2   254  SER254     -0.2866
    133  CB        34.5190  -11.0690  -18.9120 C.3   254  SER254      0.2089
    134  OG        33.9960  -10.9510  -20.2150 O.3   254  SER254     -0.2183
    135  N         29.3560  -11.2300  -18.2670 N.3   256  THR256     -0.1218
    136  CA        28.7130   -9.9420  -18.4290 C.3   256  THR256      0.1862
    137  C         27.1850  -10.0260  -18.2480 C.2   256  THR256      0.2287
    138  O         26.4310  -10.3420  -19.1770 O.2   256  THR256     -0.2866
    139  CB        29.1500   -9.3200  -19.7550 C.3   256  THR256      0.1770
    140  OG1       28.4690   -9.9430  -20.8480 O.3   256  THR256     -0.2211
    141  CG2       30.6540   -9.5410  -19.9140 C.3   256  THR256      0.0375
    142  N         23.3610   -8.9160  -17.5930 N.3   258  ARG258     -0.1245
    143  CA        22.5520   -7.9620  -18.3530 C.3   258  ARG258      0.1563
    144  C         21.0860   -8.1710  -18.0570 C.2   258  ARG258      0.2260
    145  O         20.6660   -9.2980  -17.7680 O.2   258  ARG258     -0.2867
    146  CB        22.7820   -8.1700  -19.8620 C.3   258  ARG258      0.0307
    147  CG        24.2430   -8.2470  -20.2320 C.3   258  ARG258      0.0489
    148  CD        24.5620   -8.8160  -21.6050 C.3   258  ARG258      0.2205
    149  NE        26.0000   -8.6570  -21.8390 N.pl3 258  ARG258     -0.0865
    150  CZ        26.5440   -7.9130  -22.8000 C.cat 258  ARG258      0.5346
    151  NH1       25.7840   -7.2870  -23.6790 N.pl3 258  ARG258      0.1354
    152  NH2       27.8660   -7.8210  -22.9150 N.pl3 258  ARG258      0.1354
@<TRIPOS>BOND
     1     1     2    1
     2     4     3    2
     3    46    43    1
     4    46    47    1
     5    43    42    1
     6    43    44    1
     7    17    16    1
     8    37    36    1
     9    37    38    2
    10    36    35    1
    11    36    39    1
    12     3     2    1
    13     2     5    1
    14    47    48   ar
    15    47    49   ar
    16    44    45    2
    17    40    39    1
    18     5     7    1
    19     5     6    1
    20    16    18    1
    21    16    15    2
    22    48    50   ar
    23    39    41    1
    24    49    51   ar
    25    14    15    1
    26    14    13    1
    27    50    51   ar
    28    13    12    1
    29     8     9    1
    30   104   103    2
    31   114   113    2
    32    12     9    1
    33    54    53    1
    34    54    55    2
    35    11    10    2
    36    52    53    1
    37     9    10    1
    38    53    56    1
    39   103   102    1
    40   111   112    1
    41   101   102    1
    42   113   112    1
    43    58    57   ar
    44    26    24    1
    45   112   115    1
    46   102   105    1
    47   115   117    1
    48   115   116    1
    49    33    32    2
    50    25    24    1
    51    56    57    1
    52    57    59   ar
    53   110   109   ar
    54   110   108   ar
    55    24    23    1
    56   109   107   ar
    57   108   106   ar
    58   107   106   ar
    59   106   105    1
    60   151   150    1
    61    31    32    1
    62    31    28    1
    63    32    34   am
    64    28    29    1
    65    28    27    1
    66   152   150    1
    67    29    30    2
    68   150   149    2
    69    23    20    1
    70   149   148    1
    71   121   120    2
    72   148   147    1
    73    20    21    1
    74    20    19    1
    75   127   126    1
    76   118   119    1
    77    76    75    1
    78    76    77    2
    79    21    22    2
    80    75    74    1
    81    75    78    1
    82   140   139    1
    83    80    78    1
    84   120   119    1
    85   100    99    1
    86   122   119    1
    87   122   123    1
    88   124   125    1
    89   124   123    1
    90    99    98    1
    91   147   146    1
    92   134   133    1
    93   126   125    2
    94   126   128    1
    95    78    79    1
    96    92    91    1
    97   141   139    1
    98   146   143    1
    99   139   136    1
   100    66    64    1
   101   132   131    2
   102   138   137    2
   103   129   130    1
   104   133   130    1
   105    65    64    1
   106    91    89   ar
   107    91    90   ar
   108    98    97    1
   109   136   135    1
   110   136   137    1
   111   130   131    1
   112   143   144    1
   113   143   142    1
   114    64    61    1
   115    89    87   ar
   116   144   145    2
   117    97    94    1
   118    73    71    1
   119    90    88   ar
   120    72    71    1
   121    87    86   ar
   122    61    60    1
   123    61    62    1
   124    71    68    1
   125    88    86   ar
   126    94    95    1
   127    94    93    1
   128    86    85    1
   129    96    95    2
   130    62    63    2
   131    68    67    1
   132    68    69    1
   133    85    82    1
   134    69    70    2
   135    84    83    2
   136    83    82    1
   137    82    81    1
