@<TRIPOS>MOLECULE
tmp/4ie9A00.pdb
 132 123 0 0 0
SMALL
GASTEIGER

@<TRIPOS>ATOM
      1  N         27.9750  -15.1850    8.1520 N.3    36  LEU36      -0.1245
      2  CA        28.1780  -13.7520    8.3740 C.3    36  LEU36       0.1561
      3  C         26.9570  -12.9130    7.9560 C.2    36  LEU36       0.2260
      4  O         26.8890  -11.7150    8.2460 O.2    36  LEU36      -0.2867
      5  CB        29.3930  -13.2930    7.5370 C.3    36  LEU36       0.0270
      6  CG        30.7540  -13.9620    7.8610 C.3    36  LEU36       0.0019
      7  CD1       31.7770  -13.5580    6.8420 C.3    36  LEU36       0.0001
      8  CD2       31.2710  -13.5530    9.2450 C.3    36  LEU36       0.0001
      9  N         26.1770  -15.9100    3.2900 N.3    44  VAL44      -0.1245
     10  CA        27.6060  -15.6050    3.2050 C.3    44  VAL44       0.1561
     11  C         28.2350  -16.2720    4.4420 C.2    44  VAL44       0.2260
     12  O         27.7820  -16.0470    5.5580 O.2    44  VAL44      -0.2867
     13  CB        27.9400  -14.0960    3.1260 C.3    44  VAL44       0.0252
     14  CG1       29.4540  -13.8960    3.1220 C.3    44  VAL44       0.0019
     15  CG2       27.3050  -13.4500    1.8840 C.3    44  VAL44       0.0019
     16  N         35.1810  -14.8810    2.6400 N.3    57  ALA57      -0.1245
     17  CA        33.7400  -14.7830    2.8100 C.3    57  ALA57       0.1562
     18  C         33.1150  -15.4210    1.5640 C.2    57  ALA57       0.2260
     19  O         33.2050  -14.8680    0.4590 O.2    57  ALA57      -0.2867
     20  CB        33.3180  -13.3200    2.9300 C.3    57  ALA57       0.0290
     21  N         30.0050  -16.5310   -0.5840 N.3    59  LYS59      -0.1245
     22  CA        28.5700  -16.3070   -0.8840 C.3    59  LYS59       0.1561
     23  C         28.0370  -17.5860   -1.5520 C.2    59  LYS59       0.2260
     24  O         28.5500  -18.0070   -2.5850 O.2    59  LYS59      -0.2867
     25  CB        28.4000  -15.0880   -1.8230 C.3    59  LYS59       0.0271
     26  CG        26.9340  -14.8370   -2.2130 C.3    59  LYS59       0.0035
     27  CD        26.4810  -13.4070   -1.9860 C.3    59  LYS59       0.0206
     28  CE        26.7770  -12.5050   -3.1390 C.3    59  LYS59       0.1093
     29  NZ        25.8320  -11.3490   -3.2210 N.3    59  LYS59      -0.1314
     30  N         34.9700   -4.9670   -2.6860 N.3    91  VAL91      -0.1245
     31  CA        35.3590   -6.2940   -2.1630 C.3    91  VAL91       0.1561
     32  C         35.7770   -7.1260   -3.3760 C.2    91  VAL91       0.2260
     33  O         35.0600   -7.1660   -4.3910 O.2    91  VAL91      -0.2867
     34  CB        34.2530   -7.0220   -1.3430 C.3    91  VAL91       0.0252
     35  CG1       34.7420   -8.3850   -0.8430 C.3    91  VAL91       0.0019
     36  CG2       33.8010   -6.1820   -0.1600 C.3    91  VAL91       0.0019
     37  N         34.8550  -14.3530   -1.7680 N.3   107  MET107     -0.1230
     38  CA        35.3250  -12.9860   -1.6820 C.3   107  MET107      0.1702
     39  C         36.3830  -12.8700   -0.5920 C.2   107  MET107      0.2592
     40  O         36.4200  -13.6740    0.3410 O.2   107  MET107     -0.2718
     41  CB        34.1720  -12.0230   -1.2480 C.3   107  MET107      0.0401
     42  CG        32.7940  -12.2170   -1.9230 C.3   107  MET107      0.0596
     43  SD        32.8040  -12.0360   -3.7160 S.3   107  MET107     -0.1393
     44  CE        33.3470  -10.3460   -3.8730 C.3   107  MET107      0.0692
     45  N         37.1390  -11.7670   -0.6400 N.am  108  GLU108     -0.1966
     46  CA        38.0570  -11.3770    0.4210 C.3   108  GLU108      0.1733
     47  C         37.2060  -11.1450    1.6800 C.2   108  GLU108      0.2616
     48  O         36.0910  -10.5850    1.5970 O.2   108  GLU108     -0.2715
     49  CB        38.7590  -10.0680    0.0400 C.3   108  GLU108      0.0429
     50  CG        39.7150   -9.5390    1.1000 C.3   108  GLU108      0.1163
     51  CD        40.4980   -8.3080    0.6880 C.2   108  GLU108      0.3649
     52  OE1       40.6580   -7.3960    1.5310 O.co2 108  GLU108     -0.2457
     53  OE2       40.9110   -8.2320   -0.4920 O.co2 108  GLU108     -0.2457
     54  N         37.7010  -11.6240    2.8260 N.am  109  TYR109     -0.1960
     55  CA        37.0090  -11.4550    4.1050 C.3   109  TYR109      0.1771
     56  C         37.3190  -10.0850    4.6800 C.2   109  TYR109      0.2619
     57  O         38.4870   -9.7220    4.8490 O.2   109  TYR109     -0.2715
     58  CB        37.3510  -12.5870    5.0830 C.3   109  TYR109      0.0574
     59  CG        36.7720  -12.4010    6.4670 C.ar  109  TYR109     -0.0198
     60  CD1       35.4080  -12.1760    6.6510 C.ar  109  TYR109     -0.0009
     61  CD2       37.5830  -12.4580    7.5970 C.ar  109  TYR109     -0.0009
     62  CE1       34.8750  -11.9750    7.9190 C.ar  109  TYR109      0.0417
     63  CE2       37.0520  -12.2880    8.8770 C.ar  109  TYR109      0.0417
     64  CZ        35.6930  -12.0660    9.0310 C.ar  109  TYR109      0.1957
     65  OH        35.1440  -11.8800   10.2710 O.3   109  TYR109     -0.2866
     66  N         36.2690   -9.2940    4.9380 N.am  110  VAL110     -0.1977
     67  CA        36.4060   -7.9330    5.4930 C.3   110  VAL110      0.1596
     68  C         35.9480   -8.0240    6.9700 C.2   110  VAL110      0.2287
     69  O         34.7500   -8.1310    7.2610 O.2   110  VAL110     -0.2864
     70  CB        35.6490   -6.8700    4.6590 C.3   110  VAL110      0.0276
     71  CG1       35.9240   -5.4740    5.1850 C.3   110  VAL110      0.0022
     72  CG2       36.0100   -6.9620    3.1750 C.3   110  VAL110      0.0022
     73  N         29.6930   -4.6720    9.0650 N.3   114  GLU114     -0.1245
     74  CA        28.9460   -3.7530    8.2090 C.3   114  GLU114      0.1567
     75  C         28.9000   -2.3570    8.7920 C.2   114  GLU114      0.2260
     76  O         28.7780   -2.2050   10.0060 O.2   114  GLU114     -0.2867
     77  CB        27.4940   -4.2350    7.9900 C.3   114  GLU114      0.0388
     78  CG        27.4010   -5.6450    7.4290 C.3   114  GLU114      0.1160
     79  CD        26.0270   -6.2930    7.4740 C.2   114  GLU114      0.3649
     80  OE1       25.0670   -5.6270    7.9170 O.co2 114  GLU114     -0.2457
     81  OE2       25.9090   -7.4630    7.0470 O.co2 114  GLU114     -0.2457
     82  N         24.1020   -1.4720    4.8340 N.3   157  GLU157     -0.1231
     83  CA        24.1020   -2.9340    4.9350 C.3   157  GLU157      0.1699
     84  C         25.1160   -3.5380    3.9680 C.2   157  GLU157      0.2592
     85  O         25.5900   -4.6410    4.2230 O.2   157  GLU157     -0.2718
     86  CB        22.7140   -3.5270    4.6180 C.3   157  GLU157      0.0402
     87  CG        21.6380   -3.2440    5.6590 C.3   157  GLU157      0.1161
     88  CD        20.8410   -1.9730    5.4390 C.2   157  GLU157      0.3649
     89  OE1       21.4440   -0.9320    5.0960 O.co2 157  GLU157     -0.2457
     90  OE2       19.6180   -2.0000    5.6890 O.co2 157  GLU157     -0.2457
     91  N         25.3700   -2.8600    2.8320 N.am  158  ASN158     -0.1974
     92  CA        26.2710   -3.3530    1.7690 C.3   158  ASN158      0.1688
     93  C         27.6520   -2.7290    1.8400 C.2   158  ASN158      0.2292
     94  O         28.4270   -2.8650    0.8970 O.2   158  ASN158     -0.2864
     95  CB        25.6360   -3.0990    0.3820 C.3   158  ASN158      0.1181
     96  CG        24.4590   -3.9840    0.1030 C.2   158  ASN158      0.2629
     97  OD1       24.2660   -4.9820    0.7760 O.2   158  ASN158     -0.2716
     98  ND2       23.6630   -3.6580   -0.9070 N.am  158  ASN158     -0.0877
     99  N         31.1950   -2.6300    3.9610 N.3   160  LEU160     -0.1245
    100  CA        31.9830   -3.2940    5.0000 C.3   160  LEU160      0.1561
    101  C         33.1690   -2.4370    5.3880 C.2   160  LEU160      0.2260
    102  O         33.6680   -1.6920    4.5400 O.2   160  LEU160     -0.2867
    103  CB        32.4170   -4.6770    4.4850 C.3   160  LEU160      0.0270
    104  CG        31.2800   -5.6710    4.2490 C.3   160  LEU160      0.0019
    105  CD1       31.7300   -6.8200    3.3970 C.3   160  LEU160      0.0001
    106  CD2       30.6820   -6.1740    5.5820 C.3   160  LEU160      0.0001
    107  N         30.1790   -4.1700   -1.1450 N.3   170  THR170     -0.1203
    108  CA        29.7920   -5.5270   -1.4680 C.3   170  THR170      0.1994
    109  C         28.4060   -5.5560   -2.1460 C.2   170  THR170      0.2617
    110  O         27.7560   -4.5280   -2.2450 O.2   170  THR170     -0.2717
    111  CB        29.9030   -6.4010   -0.2090 C.3   170  THR170      0.1784
    112  OG1       29.9740   -7.7550   -0.6550 O.3   170  THR170     -0.2211
    113  CG2       28.7250   -6.2000    0.7590 C.3   170  THR170      0.0376
    114  N         27.9500   -6.7300   -2.5550 N.am  171  ASP171     -0.1973
    115  CA        26.6350   -6.9600   -3.1730 C.3   171  ASP171      0.1709
    116  C         26.4520   -6.3220   -4.5230 C.2   171  ASP171      0.2293
    117  O         25.8540   -5.2370   -4.6540 O.2   171  ASP171     -0.2864
    118  CB        25.4500   -6.6090   -2.2520 C.3   171  ASP171      0.1436
    119  CG        24.2180   -7.4340   -2.5990 C.2   171  ASP171      0.3671
    120  OD1       24.0380   -7.7670   -3.7960 O.co2 171  ASP171     -0.2456
    121  OD2       23.5000   -7.8390   -1.6680 O.co2 171  ASP171     -0.2456
    122  N         30.3410   -9.1060   13.4630 N.3   313  PHE313     -0.1241
    123  CA        29.1790   -9.5770   12.7020 C.3   313  PHE313      0.1605
    124  C         28.1710  -10.1950   13.6380 C.2   313  PHE313      0.2264
    125  O         28.5620  -10.8350   14.6180 O.2   313  PHE313     -0.2867
    126  CB        29.5930  -10.6010   11.6270 C.3   313  PHE313      0.0534
    127  CG        30.3920   -9.9910   10.4960 C.ar  313  PHE313     -0.0203
    128  CD1       29.7520   -9.4300    9.3950 C.ar  313  PHE313     -0.0042
    129  CD2       31.7880   -9.9310   10.5570 C.ar  313  PHE313     -0.0042
    130  CE1       30.4870   -8.8450    8.3630 C.ar  313  PHE313     -0.0003
    131  CE2       32.5220   -9.3310    9.5340 C.ar  313  PHE313     -0.0003
    132  CZ        31.8660   -8.7920    8.4430 C.ar  313  PHE313     -0.0000
@<TRIPOS>BOND
     1   117   116    2
     2   116   115    1
     3    33    32    2
     4    44    43    1
     5   120   119   ar
     6    43    42    1
     7    32    31    1
     8    29    28    1
     9   115   114    1
    10   115   118    1
    11    28    27    1
    12    30    31    1
    13   119   118    1
    14   119   121   ar
    15    24    23    2
    16   114   109   am
    17   110   109    2
    18    26    27    1
    19    26    25    1
    20    31    34    1
    21   109   108    1
    22    42    41    1
    23    25    22    1
    24    37    38    1
    25    38    41    1
    26    38    39    1
    27    23    22    1
    28   108   107    1
    29   108   111    1
    30    34    35    1
    31    34    36    1
    32    98    96   am
    33    22    21    1
    34   112   111    1
    35    45    39   am
    36    45    46    1
    37    39    40    2
    38    53    51   ar
    39   111   113    1
    40    49    46    1
    41    49    50    1
    42    96    95    1
    43    96    97    2
    44    95    92    1
    45    46    47    1
    46    19    18    2
    47    51    50    1
    48    51    52   ar
    49    94    93    2
    50    18    17    1
    51    48    47    2
    52    47    54   am
    53    92    93    1
    54    92    91    1
    55    15    13    1
    56    16    17    1
    57    17    20    1
    58    54    55    1
    59    91    84   am
    60    14    13    1
    61    13    10    1
    62    72    70    1
    63    10     9    1
    64    10    11    1
    65   105   104    1
    66    99   100    1
    67    84    85    2
    68    84    83    1
    69    55    56    1
    70    55    58    1
    71   104   103    1
    72   104   106    1
    73    11    12    2
    74   103   100    1
    75   102   101    2
    76    86    83    1
    77    86    87    1
    78    70    71    1
    79    70    67    1
    80    56    57    2
    81    56    66   am
    82    82    83    1
    83    66    67    1
    84   100   101    1
    85    58    59    1
    86    89    88   ar
    87    88    87    1
    88    88    90   ar
    89    67    68    1
    90    59    60   ar
    91    59    61   ar
    92    60    62   ar
    93     7     6    1
    94    68    69    2
    95    81    79   ar
    96    78    79    1
    97    78    77    1
    98    79    80   ar
    99     5     6    1
   100     5     2    1
   101    61    63   ar
   102     6     8    1
   103    62    64   ar
   104     3     4    2
   105     3     2    1
   106    77    74    1
   107     1     2    1
   108    74    75    1
   109    74    73    1
   110   130   132   ar
   111   130   128   ar
   112   132   131   ar
   113    75    76    2
   114    63    64   ar
   115    64    65    1
   116   128   127   ar
   117   131   129   ar
   118   127   129   ar
   119   127   126    1
   120   126   123    1
   121   123   122    1
   122   123   124    1
   123   124   125    2
