@<TRIPOS>MOLECULE
tmp/4ieaA00.pdb
 254 240 0 0 0
SMALL
GASTEIGER

@<TRIPOS>ATOM
      1  N        -24.8460   -9.0220   -8.5980 N.3    18  GLU18      -0.1245
      2  CA       -23.5970   -9.2710   -7.8540 C.3    18  GLU18       0.1567
      3  C        -22.4250   -8.4800   -8.5570 C.2    18  GLU18       0.2260
      4  O        -21.5840   -7.8240   -7.8900 O.2    18  GLU18      -0.2867
      5  CB       -23.2690  -10.7810   -7.8810 C.3    18  GLU18       0.0388
      6  CG       -21.9200  -11.0620   -7.2370 C.3    18  GLU18       0.1160
      7  CD       -21.5710  -12.5490   -7.1840 C.2    18  GLU18       0.3649
      8  OE1      -21.9440  -13.2860   -8.1200 O.co2  18  GLU18      -0.2457
      9  OE2      -20.8730  -12.9310   -6.2000 O.co2  18  GLU18      -0.2457
     10  N        -24.6350  -20.7420   -3.5140 N.3    46  ASN46      -0.1240
     11  CA       -23.6770  -19.7030   -3.2690 C.3    46  ASN46       0.1653
     12  C        -24.1810  -18.3090   -3.5960 C.2    46  ASN46       0.2266
     13  O        -23.8640  -17.3830   -2.8690 O.2    46  ASN46      -0.2867
     14  CB       -22.3340  -20.1240   -3.8500 C.3    46  ASN46       0.1155
     15  CG       -21.6670  -21.2150   -2.9230 C.2    46  ASN46       0.2627
     16  OD1      -21.0590  -20.8590   -1.9230 O.2    46  ASN46      -0.2716
     17  ND2      -21.9230  -22.5090   -3.1560 N.am   46  ASN46      -0.0877
     18  N        -26.2920  -17.2260   -0.6590 N.3    49  SER49      -0.1202
     19  CA       -25.4540  -16.9180    0.5030 C.3    49  SER49       0.2020
     20  C        -24.7170  -15.5980    0.3230 C.2    49  SER49       0.2618
     21  O        -24.7110  -14.7610    1.2230 O.2    49  SER49      -0.2717
     22  CB       -24.4630  -18.0240    0.7210 C.3    49  SER49       0.2103
     23  OG       -23.6040  -17.6840    1.8590 O.3    49  SER49      -0.2182
     24  N        -24.0780  -15.3870   -0.8120 N.am   50  VAL50      -0.1979
     25  CA       -23.3870  -14.1220   -1.0820 C.3    50  VAL50       0.1595
     26  C        -24.3370  -12.9290   -0.8970 C.2    50  VAL50       0.2287
     27  O        -23.9460  -11.9320   -0.2700 O.2    50  VAL50      -0.2864
     28  CB       -22.8130  -14.1190   -2.5150 C.3    50  VAL50       0.0276
     29  CG1      -22.3550  -12.7090   -2.9710 C.3    50  VAL50       0.0022
     30  CG2      -21.6610  -15.1290   -2.5960 C.3    50  VAL50       0.0022
     31  N        -25.3590  -12.4820    2.7810 N.3    53  LYS53      -0.1231
     32  CA       -24.2090  -12.1820    3.6390 C.3    53  LYS53       0.1693
     33  C        -23.8910  -10.7130    3.4600 C.2    53  LYS53       0.2592
     34  O        -23.4920  -10.0520    4.4230 O.2    53  LYS53      -0.2718
     35  CB       -22.9810  -12.9400    3.2070 C.3    53  LYS53       0.0285
     36  CG       -22.8410  -14.2320    3.8140 C.3    53  LYS53       0.0035
     37  CD       -21.2860  -14.5640    3.9390 C.3    53  LYS53       0.0206
     38  CE       -21.0880  -15.9360    4.5250 C.3    53  LYS53       0.1093
     39  NZ       -20.1050  -16.5950    3.6600 N.3    53  LYS53      -0.1314
     40  N        -23.8750  -10.2260    2.2210 N.am   54  ASN54      -0.1974
     41  CA       -23.5530   -8.8260    2.0350 C.3    54  ASN54       0.1688
     42  C        -24.6180   -7.9000    2.5740 C.2    54  ASN54       0.2292
     43  O        -24.2390   -6.8500    3.1340 O.2    54  ASN54      -0.2864
     44  CB       -23.3100   -8.5910    0.5290 C.3    54  ASN54       0.1181
     45  CG       -21.9150   -9.0110    0.1160 C.2    54  ASN54       0.2629
     46  OD1      -20.9740   -8.1890    0.2070 O.2    54  ASN54      -0.2716
     47  ND2      -21.7220  -10.2410   -0.3370 N.am   54  ASN54      -0.0877
     48  N        -25.0480   -5.1840    9.8800 N.3    60  ARG60      -0.1245
     49  CA       -24.2900   -5.4820   11.1370 C.3    60  ARG60       0.1563
     50  C        -23.2550   -4.3940   11.3920 C.2    60  ARG60       0.2260
     51  O        -23.0990   -3.9340   12.5250 O.2    60  ARG60      -0.2867
     52  CB       -23.5800   -6.8130   11.1000 C.3    60  ARG60       0.0307
     53  CG       -24.6450   -7.9440   11.0310 C.3    60  ARG60       0.0489
     54  CD       -23.9950   -9.2840   10.5400 C.3    60  ARG60       0.2205
     55  NE       -23.0030   -9.8300   11.5060 N.pl3  60  ARG60      -0.0865
     56  CZ       -21.9470  -10.5530   11.1300 C.cat  60  ARG60       0.5346
     57  NH1      -21.6540  -10.7450    9.8630 N.pl3  60  ARG60       0.1354
     58  NH2      -21.1700  -11.0910   12.0760 N.pl3  60  ARG60       0.1354
     59  N        -23.2740   -1.9640   14.6460 N.3    64  ARG64      -0.1245
     60  CA       -22.1460   -1.8170   15.5550 C.3    64  ARG64       0.1563
     61  C        -21.7440   -0.3650   15.7870 C.2    64  ARG64       0.2260
     62  O        -21.3910   -0.0020   16.9200 O.2    64  ARG64      -0.2867
     63  CB       -20.9300   -2.6070   15.0660 C.3    64  ARG64       0.0307
     64  CG       -21.2740   -4.1280   15.1250 C.3    64  ARG64       0.0489
     65  CD       -20.1160   -4.8640   14.4570 C.3    64  ARG64       0.2205
     66  NE       -20.4110   -6.2870   14.4490 N.pl3  64  ARG64      -0.0865
     67  CZ       -20.0830   -7.0930   13.4410 C.cat  64  ARG64       0.5346
     68  NH1      -19.4460   -6.6220   12.3760 N.pl3  64  ARG64       0.1354
     69  NH2      -20.3570   -8.3910   13.5400 N.pl3  64  ARG64       0.1354
     70  N        -24.8340  -27.0930    3.9440 N.3   118  PHE118     -0.1241
     71  CA       -24.8560  -25.6710    3.5870 C.3   118  PHE118      0.1605
     72  C        -26.0010  -24.9290    4.2420 C.2   118  PHE118      0.2264
     73  O        -25.8030  -23.8290    4.8680 O.2   118  PHE118     -0.2867
     74  CB       -25.0030  -25.5870    2.0560 C.3   118  PHE118      0.0534
     75  CG       -24.7490  -24.1870    1.5390 C.ar  118  PHE118     -0.0203
     76  CD1      -23.4630  -23.7890    1.1700 C.ar  118  PHE118     -0.0042
     77  CD2      -25.8330  -23.2950    1.4650 C.ar  118  PHE118     -0.0042
     78  CE1      -23.2170  -22.5640    0.6760 C.ar  118  PHE118     -0.0003
     79  CE2      -25.5530  -21.9210    0.9470 C.ar  118  PHE118     -0.0003
     80  CZ       -24.2880  -21.6370    0.5930 C.ar  118  PHE118     -0.0000
     81  N        -25.7540  -24.8570    8.1690 N.3   121  LYS121     -0.1245
     82  CA       -24.8200  -23.7970    8.4820 C.3   121  LYS121      0.1561
     83  C        -25.4290  -22.4050    8.3280 C.2   121  LYS121      0.2260
     84  O        -25.2440  -21.5720    9.2180 O.2   121  LYS121     -0.2867
     85  CB       -23.5840  -23.9100    7.5590 C.3   121  LYS121      0.0271
     86  CG       -22.5890  -22.8350    7.8270 C.3   121  LYS121      0.0035
     87  CD       -21.5110  -22.9120    6.7170 C.3   121  LYS121      0.0206
     88  CE       -20.7050  -21.5920    6.6980 C.3   121  LYS121      0.1093
     89  NZ       -21.5690  -20.4170    6.0430 N.3   121  LYS121     -0.1314
     90  N        -27.0440  -16.7290   14.6070 N.3   128  ARG128     -0.1231
     91  CA       -25.9580  -16.0690   15.2710 C.3   128  ARG128      0.1694
     92  C        -26.0560  -14.5210   15.0910 C.2   128  ARG128      0.2592
     93  O        -25.7680  -13.7850   15.9930 O.2   128  ARG128     -0.2718
     94  CB       -24.5830  -16.5900   14.7970 C.3   128  ARG128      0.0321
     95  CG       -23.3660  -15.7060   15.1760 C.3   128  ARG128      0.0489
     96  CD       -22.0540  -16.5450   14.9960 C.3   128  ARG128      0.2205
     97  NE       -21.8330  -16.9280   13.5840 N.pl3 128  ARG128     -0.0865
     98  CZ       -21.2430  -16.1590   12.6850 C.cat 128  ARG128      0.5346
     99  NH1      -20.7230  -14.9910   13.0260 N.pl3 128  ARG128      0.1354
    100  NH2      -21.0270  -16.5730   11.4450 N.pl3 128  ARG128      0.1354
    101  N        -26.4470  -14.0660   13.9010 N.am  129  TYR129     -0.1976
    102  CA       -26.6070  -12.6000   13.6960 C.3   129  TYR129      0.1639
    103  C        -27.7560  -12.1110   14.5220 C.2   129  TYR129      0.2290
    104  O        -27.6570  -10.9650   15.0730 O.2   129  TYR129     -0.2864
    105  CB       -26.8190  -12.3120   12.2060 C.3   129  TYR129      0.0560
    106  CG       -25.7270  -12.8350   11.2840 C.ar  129  TYR129     -0.0198
    107  CD1      -24.4170  -13.0000   11.7180 C.ar  129  TYR129     -0.0009
    108  CD2      -26.0530  -13.2380   10.0270 C.ar  129  TYR129     -0.0009
    109  CE1      -23.4080  -13.5460   10.8710 C.ar  129  TYR129      0.0417
    110  CE2      -25.0770  -13.7890    9.1590 C.ar  129  TYR129      0.0417
    111  CZ       -23.7760  -13.9400    9.5770 C.ar  129  TYR129      0.1957
    112  OH       -22.8380  -14.4950    8.6960 O.3   129  TYR129     -0.2866
    113  N        -26.3840  -11.5890   18.0260 N.3   132  GLU132     -0.1245
    114  CA       -25.4640  -10.5070   18.2000 C.3   132  GLU132      0.1567
    115  C        -26.2470   -9.2950   18.7390 C.2   132  GLU132      0.2260
    116  O        -25.6280   -8.4540   19.4290 O.2   132  GLU132     -0.2867
    117  CB       -24.7600  -10.1330   16.8700 C.3   132  GLU132      0.0388
    118  CG       -23.6870  -11.1550   16.4330 C.3   132  GLU132      0.1160
    119  CD       -23.0640  -10.7940   15.0950 C.2   132  GLU132      0.3649
    120  OE1      -23.6870  -10.0450   14.3300 O.co2 132  GLU132     -0.2457
    121  OE2      -21.9200  -11.2040   14.8790 O.co2 132  GLU132     -0.2457
    122  N        -14.5140  -27.1750    1.5660 N.3   166  PRO166     -0.2102
    123  CA       -14.6510  -25.7840    1.9540 C.3   166  PRO166      0.1504
    124  C        -15.9400  -25.4670    2.7420 C.2   166  PRO166      0.2575
    125  O        -15.9140  -24.5830    3.5900 O.2   166  PRO166     -0.2718
    126  CB       -14.7200  -25.0680    0.6290 C.3   166  PRO166      0.0282
    127  CG       -13.7750  -25.8950   -0.2300 C.3   166  PRO166      0.0208
    128  CD       -14.2790  -27.2750    0.1030 C.3   166  PRO166      0.0893
    129  N        -17.0160  -26.2040    2.5060 N.am  167  ILE167     -0.1980
    130  CA       -18.1960  -25.9190    3.3030 C.3   167  ILE167      0.1595
    131  C        -18.0200  -26.4400    4.7070 C.2   167  ILE167      0.2287
    132  O        -18.4090  -25.8010    5.6640 O.2   167  ILE167     -0.2864
    133  CB       -19.4350  -26.6780    2.7270 C.3   167  ILE167      0.0276
    134  CG1      -19.6570  -26.3330    1.2400 C.3   167  ILE167      0.0022
    135  CG2      -20.7490  -26.3000    3.5770 C.3   167  ILE167      0.0022
    136  CD1      -20.0550  -24.9280    0.9910 C.3   167  ILE167      0.0001
    137  N        -15.7680  -23.9210    6.3200 N.3   170  GLY170     -0.1225
    138  CA       -16.4670  -22.6300    6.6570 C.3   170  GLY170      0.1811
    139  C        -17.4720  -22.8030    7.7880 C.2   170  GLY170      0.2280
    140  O        -17.6400  -21.8670    8.6070 O.2   170  GLY170     -0.2866
    141  N        -15.2770  -22.9660   10.9490 N.3   173  LEU173     -0.1231
    142  CA       -14.8700  -21.5780   11.2060 C.3   173  LEU173      0.1693
    143  C        -16.0140  -20.7940   11.8410 C.2   173  LEU173      0.2592
    144  O        -15.7790  -20.1430   12.8750 O.2   173  LEU173     -0.2718
    145  CB       -14.4880  -20.8890    9.8560 C.3   173  LEU173      0.0284
    146  CG       -14.1630  -19.3510    9.9650 C.3   173  LEU173      0.0019
    147  CD1      -12.9110  -19.2070   10.8200 C.3   173  LEU173      0.0001
    148  CD2      -13.8570  -18.8910    8.5330 C.3   173  LEU173      0.0001
    149  N        -17.2000  -20.7990   11.2150 N.am  174  ASN174     -0.1974
    150  CA       -18.2930  -19.9960   11.8260 C.3   174  ASN174      0.1688
    151  C        -18.7730  -20.5330   13.1430 C.2   174  ASN174      0.2292
    152  O        -19.1340  -19.7370   14.0130 O.2   174  ASN174     -0.2864
    153  CB       -19.4300  -19.9570   10.7920 C.3   174  ASN174      0.1181
    154  CG       -19.0960  -18.9900    9.6530 C.2   174  ASN174      0.2629
    155  OD1      -17.9800  -18.5000    9.5650 O.2   174  ASN174     -0.2716
    156  ND2      -20.1100  -18.7050    8.7510 N.am  174  ASN174     -0.0877
    157  N        -16.4620  -19.1720   15.6820 N.3   177  VAL177     -0.1245
    158  CA       -16.7540  -17.7460   15.9560 C.3   177  VAL177      0.1561
    159  C        -17.9990  -17.6330   16.8730 C.2   177  VAL177      0.2260
    160  O        -18.0010  -16.8340   17.8340 O.2   177  VAL177     -0.2867
    161  CB       -16.9610  -16.9540   14.6410 C.3   177  VAL177      0.0252
    162  CG1      -17.4430  -15.5490   15.0010 C.3   177  VAL177      0.0019
    163  CG2      -15.5670  -16.8360   13.8140 C.3   177  VAL177      0.0019
    164  N        -16.6860  -18.2340   20.3590 N.3   180  TYR180     -0.1227
    165  CA       -15.8320  -17.2140   20.9580 C.3   180  TYR180      0.1736
    166  C        -16.6350  -15.9240   21.2130 C.2   180  TYR180      0.2595
    167  O        -16.5470  -15.2720   22.3140 O.2   180  TYR180     -0.2718
    168  CB       -14.7170  -16.8570   19.9230 C.3   180  TYR180      0.0548
    169  CG       -13.6790  -16.0050   20.5520 C.ar  180  TYR180     -0.0200
    170  CD1      -12.6150  -16.6080   21.2300 C.ar  180  TYR180     -0.0009
    171  CD2      -13.8260  -14.6350   20.5850 C.ar  180  TYR180     -0.0009
    172  CE1      -11.6590  -15.7870   21.8450 C.ar  180  TYR180      0.0417
    173  CE2      -12.8600  -13.8230   21.1860 C.ar  180  TYR180      0.0417
    174  CZ       -11.7790  -14.4320   21.7870 C.ar  180  TYR180      0.1957
    175  OH       -10.7700  -13.7330   22.4580 O.3   180  TYR180     -0.2866
    176  N        -17.4850  -15.5730   20.2300 N.am  181  GLU181     -0.1979
    177  CA       -18.0940  -14.2510   20.2460 C.3   181  GLU181      0.1602
    178  C        -19.5210  -14.2530   20.8390 C.2   181  GLU181      0.2287
    179  O        -19.9860  -13.2070   21.3220 O.2   181  GLU181     -0.2864
    180  CB       -18.1440  -13.6790   18.7760 C.3   181  GLU181      0.0415
    181  CG       -16.7620  -13.4520   18.1210 C.3   181  GLU181      0.1163
    182  CD       -15.9090  -12.2430   18.6150 C.2   181  GLU181      0.3649
    183  OE1      -16.4160  -11.4810   19.4480 O.co2 181  GLU181     -0.2457
    184  OE2      -14.7170  -12.0640   18.1920 O.co2 181  GLU181     -0.2457
    185  N         -8.5780  -23.5500   -2.5350 N.3   214  ASP214     -0.1239
    186  CA        -9.8860  -23.2810   -1.8780 C.3   214  ASP214      0.1674
    187  C         -9.8310  -23.5810   -0.3860 C.2   214  ASP214      0.2266
    188  O        -10.3070  -22.7830    0.4450 O.2   214  ASP214     -0.2867
    189  CB       -11.0300  -24.0510   -2.5030 C.3   214  ASP214      0.1410
    190  CG       -11.3620  -23.5990   -3.9340 C.2   214  ASP214      0.3668
    191  OD1      -11.1190  -22.4120   -4.3070 O.co2 214  ASP214     -0.2456
    192  OD2      -11.8720  -24.4440   -4.6470 O.co2 214  ASP214     -0.2456
    193  N         -7.4110  -21.3020    1.7470 N.3   217  LEU217     -0.1231
    194  CA        -7.9260  -19.9320    2.0130 C.3   217  LEU217      0.1693
    195  C         -8.7440  -19.9000    3.3320 C.2   217  LEU217      0.2591
    196  O         -8.5710  -19.0000    4.1480 O.2   217  LEU217     -0.2718
    197  CB        -8.8220  -19.4490    0.8420 C.3   217  LEU217      0.0284
    198  CG        -9.3390  -17.9860    0.9650 C.3   217  LEU217      0.0019
    199  CD1       -9.4170  -17.3980   -0.4000 C.3   217  LEU217      0.0001
    200  CD2      -10.7110  -17.9560    1.6320 C.3   217  LEU217      0.0001
    201  N         -9.5650  -20.9230    3.5660 N.am  218  ILE218     -0.1980
    202  CA       -10.3880  -20.9480    4.8280 C.3   218  ILE218      0.1595
    203  C         -9.5410  -21.3610    5.9940 C.2   218  ILE218      0.2287
    204  O         -9.6920  -20.8460    7.0610 O.2   218  ILE218     -0.2864
    205  CB       -11.6010  -21.9050    4.6970 C.3   218  ILE218      0.0276
    206  CG1      -12.4650  -21.5780    3.4560 C.3   218  ILE218      0.0022
    207  CG2      -12.4760  -21.8870    6.0090 C.3   218  ILE218      0.0022
    208  CD1      -13.1380  -20.1680    3.5540 C.3   218  ILE218      0.0001
    209  N         -7.9810  -18.4230    7.6320 N.3   221  LEU221     -0.1245
    210  CA        -8.8440  -17.7330    8.5650 C.3   221  LEU221      0.1561
    211  C         -8.8830  -18.3910    9.9220 C.2   221  LEU221      0.2260
    212  O         -8.9030  -17.6820   10.9400 O.2   221  LEU221     -0.2867
    213  CB       -10.2830  -17.5420    7.9900 C.3   221  LEU221      0.0270
    214  CG       -10.2520  -16.7690    6.6420 C.3   221  LEU221      0.0019
    215  CD1      -11.7000  -16.8270    6.1550 C.3   221  LEU221      0.0001
    216  CD2       -9.7620  -15.3250    6.8870 C.3   221  LEU221      0.0001
    217  N         -5.6970  -17.2420   11.5270 N.3   224  ASP224     -0.1225
    218  CA        -5.7620  -15.8420   11.9210 C.3   224  ASP224      0.1805
    219  C         -6.5370  -15.7120   13.1910 C.2   224  ASP224      0.2597
    220  O         -6.1430  -14.9760   14.0700 O.2   224  ASP224     -0.2718
    221  CB        -6.4710  -14.9710   10.8760 C.3   224  ASP224      0.1424
    222  CG        -5.7280  -14.8470    9.5200 C.2   224  ASP224      0.3668
    223  OD1       -4.4840  -15.0630    9.4330 O.co2 224  ASP224     -0.2456
    224  OD2       -6.4420  -14.4440    8.5350 O.co2 224  ASP224     -0.2456
    225  N         -7.6670  -16.4360   13.3050 N.am  225  ASN225     -0.1974
    226  CA        -8.4270  -16.3710   14.5340 C.3   225  ASN225      0.1688
    227  C         -7.6490  -16.9180   15.7200 C.2   225  ASN225      0.2292
    228  O         -7.6720  -16.3440   16.7810 O.2   225  ASN225     -0.2864
    229  CB        -9.7560  -17.0820   14.3480 C.3   225  ASN225      0.1181
    230  CG       -10.7850  -16.2150   13.5750 C.2   225  ASN225      0.2629
    231  OD1      -10.6210  -14.9980   13.4210 O.2   225  ASN225     -0.2716
    232  ND2      -11.8630  -16.8680   13.0990 N.am  225  ASN225     -0.0877
    233  N         -5.3650  -14.3680   16.9100 N.3   228  LEU228     -0.1231
    234  CA        -6.0800  -13.3480   17.6470 C.3   228  LEU228      0.1693
    235  C         -6.4790  -13.8400   19.0600 C.2   228  LEU228      0.2592
    236  O         -6.4460  -13.0390   20.0100 O.2   228  LEU228     -0.2718
    237  CB        -7.3080  -12.9550   16.8380 C.3   228  LEU228      0.0284
    238  CG        -8.1420  -11.7280   17.0860 C.3   228  LEU228      0.0019
    239  CD1       -7.2790  -10.4980   16.8430 C.3   228  LEU228      0.0001
    240  CD2       -9.2950  -11.8180   16.0750 C.3   228  LEU228      0.0001
    241  N         -6.8350  -15.1300   19.2110 N.am  229  TRP229     -0.1976
    242  CA        -7.4430  -15.6160   20.4440 C.3   229  TRP229      0.1640
    243  C         -6.4540  -16.1190   21.4730 C.2   229  TRP229      0.2290
    244  O         -6.8740  -16.4960   22.5550 O.2   229  TRP229     -0.2864
    245  CB        -8.3980  -16.7950   20.1370 C.3   229  TRP229      0.0576
    246  CG        -9.5410  -16.3820   19.2510 C.ar  229  TRP229      0.0006
    247  CD1      -10.0000  -15.1550   19.0390 C.ar  229  TRP229      0.0946
    248  CD2      -10.3910  -17.2970   18.5230 C.ar  229  TRP229      0.0152
    249  NE1      -11.1350  -15.2130   18.2010 N.ar  229  TRP229     -0.2442
    250  CE2      -11.3630  -16.5360   17.8670 C.ar  229  TRP229      0.0810
    251  CE3      -10.3520  -18.6840   18.3320 C.ar  229  TRP229      0.0012
    252  CZ2      -12.3870  -17.1270   17.0940 C.ar  229  TRP229      0.0191
    253  CZ3      -11.3440  -19.2990   17.5230 C.ar  229  TRP229      0.0001
    254  CH2      -12.3460  -18.5140   16.9230 C.ar  229  TRP229      0.0015
@<TRIPOS>BOND
     1     1     2    1
     2     3     4    2
     3     3     2    1
     4     8     7   ar
     5     5     2    1
     6     5     6    1
     7     6     7    1
     8     7     9   ar
     9   192   190   ar
    10   191   190   ar
    11   190   189    1
    12    14    11    1
    13    14    15    1
    14    12    11    1
    15    12    13    2
    16    10    11    1
    17    17    15   am
    18    29    28    1
    19    15    16    2
    20    30    28    1
    21   185   186    1
    22    28    25    1
    23   189   186    1
    24   186   187    1
    25    25    26    1
    26    25    24    1
    27    26    27    2
    28    24    20   am
    29    18    19    1
    30   199   198    1
    31   187   188    2
    32    47    45   am
    33   127   128    1
    34   127   126    1
    35   128   122    1
    36    45    46    2
    37    45    44    1
    38    20    19    1
    39    20    21    2
    40    19    22    1
    41    44    41    1
    42    80    78   ar
    43    80    79   ar
    44   126   123    1
    45    78    76   ar
    46    22    23    1
    47   197   198    1
    48   197   194    1
    49    79    77   ar
    50   198   200    1
    51   136   134    1
    52    76    75   ar
    53   134   133    1
    54    77    75   ar
    55    75    74    1
    56   122   123    1
    57   193   194    1
    58   123   124    1
    59   194   195    1
    60    41    40    1
    61    41    42    1
    62    74    71    1
    63    40    33   am
    64   129   124   am
    65   129   130    1
    66    42    43    2
    67   133   130    1
    68   133   135    1
    69   124   125    2
    70    31    32    1
    71    35    32    1
    72    35    36    1
    73   130   131    1
    74   195   201   am
    75   195   196    2
    76   206   208    1
    77   206   205    1
    78    33    32    1
    79    33    34    2
    80   201   202    1
    81    71    70    1
    82    71    72    1
    83    39    38    1
    84    36    37    1
    85    37    38    1
    86    72    73    2
    87   205   202    1
    88   205   207    1
    89   131   132    2
    90   202   203    1
    91   203   204    2
    92    89    88    1
    93   215   214    1
    94   137   138    1
    95   214   216    1
    96   214   213    1
    97   138   139    1
    98    88    87    1
    99    87    86    1
   100    85    86    1
   101    85    82    1
   102   209   210    1
   103   139   140    2
   104   213   210    1
   105    81    82    1
   106    83    82    1
   107    83    84    2
   108   148   146    1
   109   224   222   ar
   110   210   211    1
   111   112   111    1
   112   156   154   am
   113   110   111   ar
   114   110   108   ar
   115   223   222   ar
   116   222   221    1
   117   155   154    2
   118   111   109   ar
   119   154   153    1
   120   145   146    1
   121   145   142    1
   122    57    56    1
   123    48    49    1
   124   211   212    2
   125   146   147    1
   126   108   106   ar
   127    54    53    1
   128    54    55    1
   129   153   150    1
   130   109   107   ar
   131   221   218    1
   132   141   142    1
   133    53    52    1
   134    52    49    1
   135    56    55    2
   136    56    58    1
   137    49    50    1
   138   142   143    1
   139   149   150    1
   140   149   143   am
   141   106   107   ar
   142   106   105    1
   143    50    51    2
   144   100    98    1
   145   217   218    1
   146   150   151    1
   147   143   144    2
   148   218   219    1
   149   105   102    1
   150    68    67    1
   151    98    99    1
   152    98    97    2
   153   232   230   am
   154   151   152    2
   155   219   225   am
   156   219   220    2
   157   225   226    1
   158   231   230    2
   159    67    69    1
   160    67    66    2
   161   230   229    1
   162    97    96    1
   163   102   101    1
   164   102   103    1
   165   163   161    1
   166   101    92   am
   167   120   119   ar
   168   229   226    1
   169    66    65    1
   170    65    64    1
   171   103   104    2
   172   226   227    1
   173    90    91    1
   174   161   162    1
   175   161   158    1
   176    59    60    1
   177    94    95    1
   178    94    91    1
   179   121   119   ar
   180    96    95    1
   181    63    64    1
   182    63    60    1
   183    92    91    1
   184    92    93    2
   185   119   118    1
   186    60    61    1
   187   157   158    1
   188   227   228    2
   189    61    62    2
   190   158   159    1
   191   240   238    1
   192   118   117    1
   193   237   238    1
   194   237   234    1
   195   239   238    1
   196   117   114    1
   197   159   160    2
   198   233   234    1
   199   254   252   ar
   200   254   253   ar
   201   252   250   ar
   202   253   251   ar
   203   234   235    1
   204   250   249   ar
   205   250   248   ar
   206   113   114    1
   207   181   182    1
   208   181   180    1
   209   184   182   ar
   210   114   115    1
   211   249   247   ar
   212   251   248   ar
   213   248   246   ar
   214   182   183   ar
   215   115   116    2
   216   180   177    1
   217   247   246   ar
   218   235   241   am
   219   235   236    2
   220   241   242    1
   221   246   245    1
   222   168   169    1
   223   168   165    1
   224   245   242    1
   225   176   177    1
   226   176   166   am
   227   177   178    1
   228   164   165    1
   229   242   243    1
   230   169   171   ar
   231   169   170   ar
   232   171   173   ar
   233   178   179    2
   234   165   166    1
   235   173   174   ar
   236   166   167    2
   237   170   172   ar
   238   243   244    2
   239   174   172   ar
   240   174   175    1
