@<TRIPOS>MOLECULE
tmp/4iebA00.pdb
 153 144 0 0 0
SMALL
GASTEIGER

@<TRIPOS>ATOM
      1  N          8.6940    5.6460   10.2910 N.3    26  LEU26      -0.1231
      2  CA         8.9890    4.3590    9.7130 C.3    26  LEU26       0.1693
      3  C         10.1150    3.7500   10.5130 C.2    26  LEU26       0.2593
      4  O         11.0140    4.4630   10.9550 O.2    26  LEU26      -0.2718
      5  CB         9.4530    4.5870    8.2680 C.3    26  LEU26       0.0284
      6  CG         9.1850    3.6240    7.1250 C.3    26  LEU26       0.0019
      7  CD1        7.6960    3.3590    6.9460 C.3    26  LEU26       0.0001
      8  CD2        9.7650    4.3010    5.8960 C.3    26  LEU26       0.0001
      9  N         10.0760    2.4350   10.7030 N.am   27  GLY27      -0.1942
     10  CA        11.2000    1.7330   11.3070 C.3    27  GLY27       0.2014
     11  C         11.1320    1.6580   12.8290 C.2    27  GLY27       0.2639
     12  O         10.2110    2.1870   13.4680 O.2    27  GLY27      -0.2714
     13  N         12.1310    0.9870   13.3940 N.am   28  LYS28      -0.1963
     14  CA        12.1860    0.7250   14.8170 C.3    28  LYS28       0.1728
     15  C         13.4000    1.4480   15.4260 C.2    28  LYS28       0.2616
     16  O         13.8810    1.0580   16.4870 O.2    28  LYS28      -0.2715
     17  CB        12.2540   -0.7980   15.0640 C.3    28  LYS28       0.0311
     18  CG        13.4730   -1.4710   14.5370 C.3    28  LYS28       0.0038
     19  CD        13.5490   -2.8990   15.0840 C.3    28  LYS28       0.0206
     20  CE        14.6730   -3.5830   14.3530 C.3    28  LYS28       0.1093
     21  NZ        14.8910   -4.9000   15.0000 N.3    28  LYS28      -0.1314
     22  N         13.8880    2.4990   14.7640 N.am   29  GLY29      -0.1955
     23  CA        14.9980    3.2870   15.3090 C.3    29  GLY29       0.1869
     24  C         14.5410    4.4520   16.1950 C.2    29  GLY29       0.2309
     25  O         13.3670    4.5470   16.5920 O.2    29  GLY29      -0.2863
     26  N         13.2120    9.8530   13.0840 N.3    33  GLU33      -0.1231
     27  CA        14.4070   10.0750   12.2830 C.3    33  GLU33       0.1699
     28  C         14.3110    9.5290   10.8510 C.2    33  GLU33       0.2592
     29  O         15.0220    9.9970    9.9540 O.2    33  GLU33      -0.2718
     30  CB        15.6370    9.5890   13.0140 C.3    33  GLU33       0.0402
     31  CG        15.9550   10.4790   14.2040 C.3    33  GLU33       0.1161
     32  CD        17.2470   10.0900   14.8830 C.2    33  GLU33       0.3649
     33  OE1       17.9600    9.2180   14.3380 O.co2  33  GLU33      -0.2457
     34  OE2       17.5480   10.6480   15.9690 O.co2  33  GLU33      -0.2457
     35  N         13.4280    8.5480   10.6620 N.am   34  VAL34      -0.1980
     36  CA        13.0720    8.0240    9.3530 C.3    34  VAL34       0.1595
     37  C         11.5550    8.1740    9.2060 C.2    34  VAL34       0.2287
     38  O         10.7760    7.7590   10.0800 O.2    34  VAL34      -0.2864
     39  CB        13.5590    6.5480    9.1690 C.3    34  VAL34       0.0276
     40  CG1       13.2140    6.0310    7.7860 C.3    34  VAL34       0.0022
     41  CG2       15.0630    6.4580    9.3940 C.3    34  VAL34       0.0022
     42  N         11.2310    6.8110    1.8000 N.3    47  ALA47      -0.1245
     43  CA        11.6480    6.7980    3.2180 C.3    47  ALA47       0.1562
     44  C         12.6810    7.8840    3.3310 C.2    47  ALA47       0.2260
     45  O         13.6460    7.8710    2.5570 O.2    47  ALA47      -0.2867
     46  CB        12.2810    5.4660    3.5680 C.3    47  ALA47       0.0290
     47  N         15.4990    9.7350    5.6650 N.3    49  LYS49      -0.1245
     48  CA        16.2710    9.8070    6.9170 C.3    49  LYS49       0.1561
     49  C         16.6650   11.2670    7.1090 C.2    49  LYS49       0.2260
     50  O         17.3050   11.8570    6.2280 O.2    49  LYS49      -0.2867
     51  CB        17.5060    8.9030    6.8890 C.3    49  LYS49       0.0271
     52  CG        18.3460    8.9440    8.1720 C.3    49  LYS49       0.0035
     53  CD        19.1920    7.6880    8.2670 C.3    49  LYS49       0.0206
     54  CE        20.3480    7.8030    9.2500 C.3    49  LYS49       0.1093
     55  NZ        19.8580    7.8330   10.6620 N.3    49  LYS49      -0.1314
     56  N         20.2200   -0.8030   -1.9100 N.3    78  MET78      -0.1245
     57  CA        19.2730    0.2810   -1.6460 C.3    78  MET78       0.1570
     58  C         19.4130    1.4100   -2.6770 C.2    78  MET78       0.2261
     59  O         20.5190    1.7570   -3.0920 O.2    78  MET78      -0.2867
     60  CB        19.4420    0.8510   -0.2530 C.3    78  MET78       0.0387
     61  CG        20.8390    1.4360   -0.0200 C.3    78  MET78       0.0595
     62  SD        20.9760    2.4560    1.4710 S.3    78  MET78      -0.1393
     63  CE        19.8720    3.8320    1.1100 C.3    78  MET78       0.0692
     64  N         15.1570    7.9970    0.1750 N.3    94  MET94      -0.1230
     65  CA        15.4340    6.6370   -0.2710 C.3    94  MET94       0.1702
     66  C         14.1770    5.8990   -0.7420 C.2    94  MET94       0.2592
     67  O         13.0460    6.2280   -0.3450 O.2    94  MET94      -0.2718
     68  CB        16.0330    5.8340    0.9040 C.3    94  MET94       0.0401
     69  CG        17.2110    6.5080    1.6260 C.3    94  MET94       0.0596
     70  SD        17.6240    5.6760    3.1880 S.3    94  MET94      -0.1393
     71  CE        16.2250    6.0710    4.2360 C.3    94  MET94       0.0692
     72  N         14.3940    4.8500   -1.5430 N.am   95  GLU95      -0.1966
     73  CA        13.3370    3.9360   -1.8850 C.3    95  GLU95       0.1733
     74  C         12.8860    3.2400   -0.5930 C.2    95  GLU95       0.2616
     75  O         13.7280    2.8270    0.2220 O.2    95  GLU95      -0.2715
     76  CB        13.8360    2.9350   -2.9620 C.3    95  GLU95       0.0429
     77  CG        12.7760    1.9300   -3.4120 C.3    95  GLU95       0.1163
     78  CD        13.2020    1.0880   -4.6270 C.2    95  GLU95       0.3649
     79  OE1       14.3790    0.6630   -4.7480 O.co2  95  GLU95      -0.2457
     80  OE2       12.3400    0.8450   -5.4810 O.co2  95  GLU95      -0.2457
     81  N         11.5730    3.1240   -0.3910 N.am   96  VAL96      -0.1963
     82  CA        11.0680    2.5570    0.8610 C.3    96  VAL96       0.1727
     83  C         10.9880    1.0270    0.7520 C.2    96  VAL96       0.2616
     84  O         10.5090    0.4960   -0.2470 O.2    96  VAL96      -0.2715
     85  CB         9.7160    3.1860    1.3320 C.3    96  VAL96       0.0290
     86  CG1        8.6300    3.1180    0.2620 C.3    96  VAL96       0.0023
     87  CG2        9.2270    2.5180    2.6240 C.3    96  VAL96       0.0023
     88  N         11.4920    0.3320    1.7700 N.am   97  TYR97      -0.1974
     89  CA        11.3970   -1.1260    1.8430 C.3    97  TYR97       0.1639
     90  C         10.6190   -1.4430    3.1130 C.2    97  TYR97       0.2290
     91  O         11.0370   -1.0540    4.2050 O.2    97  TYR97      -0.2864
     92  CB        12.7980   -1.7490    1.8710 C.3    97  TYR97       0.0560
     93  CG        13.6350   -1.2470    0.7070 C.ar   97  TYR97      -0.0198
     94  CD1       13.1680   -1.3790   -0.6020 C.ar   97  TYR97      -0.0009
     95  CD2       14.8500   -0.5980    0.9120 C.ar   97  TYR97      -0.0009
     96  CE1       13.8880   -0.9040   -1.6870 C.ar   97  TYR97       0.0417
     97  CE2       15.5930   -0.1140   -0.1830 C.ar   97  TYR97       0.0417
     98  CZ        15.1130   -0.2810   -1.4640 C.ar   97  TYR97       0.1957
     99  OH        15.8210    0.2140   -2.5490 O.3    97  TYR97      -0.2866
    100  N         10.8970   -5.0540    6.7030 N.3   100  GLY100     -0.1210
    101  CA        11.7070   -5.1750    7.9200 C.3   100  GLY100      0.1956
    102  C         13.1110   -5.7360    7.6660 C.2   100  GLY100      0.2611
    103  O         13.4380   -6.1420    6.5370 O.2   100  GLY100     -0.2717
    104  N         13.9450   -5.7400    8.7190 N.am  101  GLU101     -0.1979
    105  CA        15.3210   -6.2630    8.6620 C.3   101  GLU101      0.1602
    106  C         15.3140   -7.7720    8.6410 C.2   101  GLU101      0.2287
    107  O         14.4700   -8.4050    9.2720 O.2   101  GLU101     -0.2864
    108  CB        16.1470   -5.7700    9.8780 C.3   101  GLU101      0.0415
    109  CG        16.1800   -4.2450   10.0210 C.3   101  GLU101      0.1163
    110  CD        16.9710   -3.7120   11.2130 C.2   101  GLU101      0.3649
    111  OE1       17.3130   -4.4900   12.1400 O.co2 101  GLU101     -0.2457
    112  OE2       17.2370   -2.4760   11.2040 O.co2 101  GLU101     -0.2457
    113  N         20.9370   -6.8660   10.2000 N.3   144  GLU144     -0.1231
    114  CA        20.3300   -5.5560   10.4560 C.3   144  GLU144      0.1699
    115  C         20.4330   -4.6300    9.2460 C.2   144  GLU144      0.2592
    116  O         19.6210   -3.7160    9.0820 O.2   144  GLU144     -0.2718
    117  CB        20.9630   -4.8790   11.6840 C.3   144  GLU144      0.0402
    118  CG        20.7610   -5.6810   12.9790 C.3   144  GLU144      0.1161
    119  CD        21.9100   -6.6410   13.3030 C.2   144  GLU144      0.3649
    120  OE1       22.4860   -7.3080   12.3970 O.co2 144  GLU144     -0.2457
    121  OE2       22.2320   -6.7470   14.5170 O.co2 144  GLU144     -0.2457
    122  N         21.4180   -4.8850    8.3920 N.am  145  ASN145     -0.1974
    123  CA        21.6440   -4.0430    7.2240 C.3   145  ASN145      0.1688
    124  C         21.1330   -4.6790    5.9240 C.2   145  ASN145      0.2292
    125  O         21.6270   -4.3520    4.8730 O.2   145  ASN145     -0.2864
    126  CB        23.1310   -3.6740    7.1100 C.3   145  ASN145      0.1181
    127  CG        23.5580   -2.6570    8.1630 C.2   145  ASN145      0.2629
    128  OD1       22.7210   -1.9390    8.7060 O.2   145  ASN145     -0.2716
    129  ND2       24.8470   -2.6020    8.4660 N.am  145  ASN145     -0.0877
    130  N         17.3970   -5.3470    4.2740 N.3   147  LEU147     -0.1245
    131  CA        15.9570   -5.1040    4.4490 C.3   147  LEU147      0.1561
    132  C         15.2020   -5.8990    3.4180 C.2   147  LEU147      0.2260
    133  O         15.6640   -6.0160    2.2870 O.2   147  LEU147     -0.2867
    134  CB        15.6300   -3.6360    4.1990 C.3   147  LEU147      0.0270
    135  CG        16.1600   -2.5990    5.1840 C.3   147  LEU147      0.0019
    136  CD1       15.4110   -1.2760    4.9750 C.3   147  LEU147      0.0001
    137  CD2       16.0190   -3.1130    6.6140 C.3   147  LEU147      0.0001
    138  N         21.5240   -2.2620    2.7560 N.3   160  ILE160     -0.1231
    139  CA        21.4690   -0.8480    3.1710 C.3   160  ILE160      0.1692
    140  C         22.7030   -0.4640    4.0010 C.2   160  ILE160      0.2592
    141  O         23.5690   -1.3100    4.2830 O.2   160  ILE160     -0.2718
    142  CB        20.1870   -0.5340    3.9940 C.3   160  ILE160      0.0266
    143  CG1       20.2250   -1.2680    5.3560 C.3   160  ILE160      0.0019
    144  CG2       18.9150   -0.8510    3.1770 C.3   160  ILE160      0.0020
    145  CD1       19.4200   -0.5750    6.4610 C.3   160  ILE160      0.0001
    146  N         22.7080    0.7970    4.4390 N.am  161  ASP161     -0.1974
    147  CA        23.6710    1.3730    5.3650 C.3   161  ASP161      0.1709
    148  C         25.1250    1.2740    4.9150 C.2   161  ASP161      0.2293
    149  O         25.8760    0.3930    5.3570 O.2   161  ASP161     -0.2864
    150  CB        23.5250    0.8380    6.7920 C.3   161  ASP161      0.1436
    151  CG        24.1730    1.7770    7.8080 C.2   161  ASP161      0.3671
    152  OD1       25.0040    2.6310    7.3940 O.co2 161  ASP161     -0.2456
    153  OD2       23.8300    1.6920    8.9990 O.co2 161  ASP161     -0.2456
@<TRIPOS>BOND
     1    80    78   ar
     2    79    78   ar
     3    78    77    1
     4    77    76    1
     5    59    58    2
     6    76    73    1
     7    58    57    1
     8    99    98    1
     9    56    57    1
    10    73    72    1
    11    73    74    1
    12    96    98   ar
    13    96    94   ar
    14    57    60    1
    15    72    66   am
    16    98    97   ar
    17    66    67    2
    18    66    65    1
    19    94    93   ar
    20    74    81   am
    21    74    75    2
    22    81    82    1
    23    65    64    1
    24    65    68    1
    25    60    61    1
    26    84    83    2
    27    97    95   ar
    28    61    62    1
    29    86    85    1
    30    93    95   ar
    31    93    92    1
    32    83    82    1
    33    83    88   am
    34    82    85    1
    35    68    69    1
    36    63    62    1
    37    85    87    1
    38    69    70    1
    39    88    89    1
    40    42    43    1
    41    89    92    1
    42    89    90    1
    43   133   132    2
    44    45    44    2
    45   138   139    1
    46    90    91    2
    47   139   142    1
    48   139   140    1
    49   144   142    1
    50    70    71    1
    51    43    44    1
    52    43    46    1
    53   132   131    1
    54   142   143    1
    55   140   141    2
    56   140   146   am
    57   134   131    1
    58   134   135    1
    59   130   131    1
    60   146   147    1
    61   125   124    2
    62   148   149    2
    63   148   147    1
    64   136   135    1
    65   135   137    1
    66   143   145    1
    67   147   150    1
    68    47    48    1
    69     8     6    1
    70   124   123    1
    71    50    49    2
    72   103   102    2
    73   100   101    1
    74   150   151    1
    75    51    48    1
    76    51    52    1
    77    48    49    1
    78     7     6    1
    79   126   123    1
    80   126   127    1
    81     6     5    1
    82   123   122    1
    83   152   151   ar
    84   102   101    1
    85   102   104   am
    86    40    39    1
    87   151   153   ar
    88   127   129   am
    89   127   128    2
    90    52    53    1
    91    53    54    1
    92     5     2    1
    93   122   115   am
    94   106   105    1
    95   106   107    2
    96   105   104    1
    97   105   108    1
    98   116   115    2
    99    39    36    1
   100    39    41    1
   101    37    36    1
   102    37    38    2
   103   115   114    1
   104    54    55    1
   105    36    35    1
   106     2     1    1
   107     2     3    1
   108   108   109    1
   109    29    28    2
   110   109   110    1
   111   113   114    1
   112   114   117    1
   113     3     9   am
   114     3     4    2
   115    35    28   am
   116     9    10    1
   117    28    27    1
   118   112   110   ar
   119   110   111   ar
   120    10    11    1
   121   117   118    1
   122    27    30    1
   123    27    26    1
   124   120   119   ar
   125    11    13   am
   126    11    12    2
   127   118   119    1
   128    30    31    1
   129   119   121   ar
   130    13    14    1
   131    31    32    1
   132    33    32   ar
   133    20    21    1
   134    20    19    1
   135    18    17    1
   136    18    19    1
   137    22    23    1
   138    22    15   am
   139    14    17    1
   140    14    15    1
   141    32    34   ar
   142    23    24    1
   143    15    16    2
   144    24    25    2
