@<TRIPOS>MOLECULE
tmp/4ieeA00.pdb
 127 123 0 0 0
SMALL
GASTEIGER

@<TRIPOS>ATOM
      1  N         10.8880   40.7080   26.1380 N.3     1  ILE1       -0.1231
      2  CA        11.9930   41.6480   26.3050 C.3     1  ILE1        0.1692
      3  C         11.7020   42.6930   27.3860 C.2     1  ILE1        0.2592
      4  O         10.9380   43.6320   27.1740 O.2     1  ILE1       -0.2718
      5  CB        12.3490   42.3410   24.9780 C.3     1  ILE1        0.0266
      6  CG1       13.2520   43.5500   25.2430 C.3     1  ILE1        0.0019
      7  CG2       11.0810   42.7230   24.2130 C.3     1  ILE1        0.0020
      8  CD1       14.5590   43.1960   25.9220 C.3     1  ILE1        0.0001
      9  N         12.3300   42.5200   28.5420 N.am    2  ASN2       -0.1974
     10  CA        11.9890   43.2900   29.7340 C.3     2  ASN2        0.1688
     11  C         12.1270   44.8020   29.5610 C.2     2  ASN2        0.2292
     12  O         13.2210   45.3110   29.3180 O.2     2  ASN2       -0.2864
     13  CB        12.8120   42.7990   30.9250 C.3     2  ASN2        0.1181
     14  CG        12.8220   41.2840   31.0360 C.2     2  ASN2        0.2629
     15  OD1       11.8150   40.6190   30.7740 O.2     2  ASN2       -0.2716
     16  ND2       13.9650   40.7290   31.4140 N.am    2  ASN2       -0.0877
     17  N         21.9480   37.3340   40.5650 N.3    21  ARG21      -0.1231
     18  CA        21.8120   36.1600   39.7300 C.3    21  ARG21       0.1694
     19  C         20.3990   36.0420   39.1560 C.2    21  ARG21       0.2593
     20  O         19.4220   36.3420   39.8330 O.2    21  ARG21      -0.2718
     21  CB        22.1580   34.9550   40.6010 C.3    21  ARG21       0.0321
     22  CG        22.0730   33.5890   39.9770 C.3    21  ARG21       0.0489
     23  CD        22.7650   32.6050   40.9250 C.3    21  ARG21       0.2205
     24  NE        22.5130   31.2080   40.5960 N.pl3  21  ARG21      -0.0865
     25  CZ        23.2600   30.4970   39.7640 C.cat  21  ARG21       0.5346
     26  NH1       24.3030   31.0590   39.1680 N.pl3  21  ARG21       0.1354
     27  NH2       22.9610   29.2280   39.5290 N.pl3  21  ARG21       0.1354
     28  N         20.3010   35.6320   37.8900 N.am   22  GLY22      -0.1942
     29  CA        19.0160   35.3440   37.2670 C.3    22  GLY22       0.2014
     30  C         18.1610   36.5650   36.9920 C.2    22  GLY22       0.2640
     31  O         16.9360   36.4750   36.8690 O.2    22  GLY22      -0.2714
     32  N         18.8080   37.7170   36.8780 N.am   23  SER23      -0.1935
     33  CA        18.0890   38.9770   36.7610 C.3    23  SER23       0.2055
     34  C         17.6710   39.2760   35.3200 C.2    23  SER23       0.2644
     35  O         16.9150   40.2070   35.0820 O.2    23  SER23      -0.2714
     36  CB        18.9540   40.1240   37.2900 C.3    23  SER23       0.2130
     37  OG        19.9990   40.3990   36.3710 O.3    23  SER23      -0.2179
     38  N         18.1610   38.4840   34.3690 N.am   24  GLY24      -0.1939
     39  CA        17.8040   38.6520   32.9680 C.3    24  GLY24       0.2014
     40  C         18.7020   39.6000   32.1890 C.2    24  GLY24       0.2639
     41  O         18.4380   39.9000   31.0240 O.2    24  GLY24      -0.2714
     42  N         19.7820   40.0720   32.8000 N.am   25  LYS25      -0.1963
     43  CA        20.5920   41.0560   32.1020 C.3    25  LYS25       0.1728
     44  C         21.3300   40.4860   30.8880 C.2    25  LYS25       0.2617
     45  O         21.4580   41.1680   29.8820 O.2    25  LYS25      -0.2715
     46  CB        21.5290   41.8110   33.0440 C.3    25  LYS25       0.0311
     47  CG        22.5400   40.9800   33.7500 C.3    25  LYS25       0.0038
     48  CD        23.0140   41.7280   34.9990 C.3    25  LYS25       0.0206
     49  CE        23.9540   40.8720   35.8130 C.3    25  LYS25       0.1093
     50  NZ        23.2220   39.7510   36.4690 N.3    25  LYS25      -0.1314
     51  N         21.7970   39.2450   30.9750 N.am   26  SER26      -0.1936
     52  CA        22.5000   38.6170   29.8500 C.3    26  SER26       0.2055
     53  C         21.5700   38.3730   28.6730 C.2    26  SER26       0.2643
     54  O         21.9250   38.6480   27.5230 O.2    26  SER26      -0.2714
     55  CB        23.1170   37.2820   30.2710 C.3    26  SER26       0.2130
     56  OG        24.2620   37.5140   31.0590 O.3    26  SER26      -0.2179
     57  N         20.3850   37.8440   28.9560 N.am   27  TRP27      -0.1959
     58  CA        19.4230   37.5740   27.8820 C.3    27  TRP27       0.1771
     59  C         18.9510   38.8640   27.2150 C.2    27  TRP27       0.2619
     60  O         18.7390   38.8980   25.9940 O.2    27  TRP27      -0.2715
     61  CB        18.2200   36.7870   28.3920 C.3    27  TRP27       0.0590
     62  CG        18.4250   35.3160   28.4580 C.ar   27  TRP27       0.0006
     63  CD1       19.4980   34.6520   28.9830 C.ar   27  TRP27       0.0946
     64  CD2       17.5150   34.3140   28.0000 C.ar   27  TRP27       0.0152
     65  NE1       19.3150   33.2940   28.8630 N.ar   27  TRP27      -0.2442
     66  CE2       18.1030   33.0630   28.2660 C.ar   27  TRP27       0.0810
     67  CE3       16.2620   34.3530   27.3840 C.ar   27  TRP27       0.0012
     68  CZ2       17.4780   31.8640   27.9390 C.ar   27  TRP27       0.0191
     69  CZ3       15.6450   33.1580   27.0580 C.ar   27  TRP27       0.0001
     70  CH2       16.2510   31.9360   27.3380 C.ar   27  TRP27       0.0015
     71  N         18.7760   39.9180   28.0170 N.am   28  ALA28      -0.1977
     72  CA        18.3200   41.2050   27.5020 C.3    28  ALA28       0.1597
     73  C         19.3590   41.8220   26.5830 C.2    28  ALA28       0.2287
     74  O         19.0380   42.2790   25.4850 O.2    28  ALA28      -0.2864
     75  CB        17.9850   42.1730   28.6430 C.3    28  ALA28       0.0319
     76  N         19.7830   39.8420   23.3590 N.3    31  ARG31      -0.1245
     77  CA        18.6470   40.1700   22.4860 C.3    31  ARG31       0.1563
     78  C         18.8210   41.5190   21.7860 C.2    31  ARG31       0.2260
     79  O         18.7030   41.6110   20.5700 O.2    31  ARG31      -0.2867
     80  CB        17.3210   40.1450   23.2570 C.3    31  ARG31       0.0307
     81  CG        16.1120   40.5940   22.4220 C.3    31  ARG31       0.0489
     82  CD        15.7600   39.5680   21.3330 C.3    31  ARG31       0.2205
     83  NE        14.6590   40.0540   20.4980 N.pl3  31  ARG31      -0.0865
     84  CZ        13.3730   39.9460   20.8200 C.cat  31  ARG31       0.5346
     85  NH1       13.0170   39.3500   21.9480 N.pl3  31  ARG31       0.1354
     86  NH2       12.4410   40.4300   20.0140 N.pl3  31  ARG31       0.1354
     87  N         27.7120   41.1370   38.1430 N.3   144  ASN144     -0.1240
     88  CA        27.1530   40.8790   39.4560 C.3   144  ASN144      0.1653
     89  C         28.1600   41.4130   40.4580 C.2   144  ASN144      0.2266
     90  O         29.2740   40.8870   40.5600 O.2   144  ASN144     -0.2867
     91  CB        26.9770   39.3740   39.6740 C.3   144  ASN144      0.1155
     92  CG        25.9230   38.7620   38.7620 C.2   144  ASN144      0.2627
     93  OD1       25.1450   37.9000   39.1820 O.2   144  ASN144     -0.2716
     94  ND2       25.8960   39.2020   37.5090 N.am  144  ASN144     -0.0877
     95  N         12.6320   40.2840   36.4990 N.3   174  ASN174     -0.1240
     96  CA        12.6640   39.3010   35.4290 C.3   174  ASN174      0.1653
     97  C         11.3400   38.5590   35.3940 C.2   174  ASN174      0.2266
     98  O         11.1250   37.6360   36.1690 O.2   174  ASN174     -0.2867
     99  CB        13.8210   38.3280   35.6780 C.3   174  ASN174      0.1155
    100  CG        13.9700   37.2930   34.5830 C.2   174  ASN174      0.2627
    101  OD1       14.8260   36.4080   34.6650 O.2   174  ASN174     -0.2716
    102  ND2       13.1540   37.4050   33.5460 N.am  174  ASN174     -0.0877
    103  N         10.3700   36.4760   33.4040 N.3   176  HIS176     -0.1241
    104  CA        10.5590   35.0930   32.9700 C.3   176  HIS176      0.1621
    105  C         11.4900   34.3200   33.9040 C.2   176  HIS176      0.2264
    106  O         12.0990   33.3310   33.5060 O.2   176  HIS176     -0.2867
    107  CB        11.1030   35.0410   31.5430 C.3   176  HIS176      0.0745
    108  CG        10.2280   35.7240   30.5370 C.ar  176  HIS176      0.0817
    109  ND1       10.4030   37.0410   30.1680 N.ar  176  HIS176     -0.2268
    110  CD2        9.1680   35.2720   29.8260 C.ar  176  HIS176      0.1154
    111  CE1        9.4920   37.3690   29.2700 C.ar  176  HIS176      0.1986
    112  NE2        8.7300   36.3140   29.0450 N.ar  176  HIS176     -0.2212
    113  N         12.9020   31.7080   35.8680 N.3   178  PRO178     -0.2116
    114  CA        12.5060   30.2970   35.7710 C.3   178  PRO178      0.1372
    115  C         12.4820   29.5890   37.1190 C.2   178  PRO178      0.2244
    116  O         13.2270   29.9570   38.0260 O.2   178  PRO178     -0.2868
    117  CB        13.5990   29.6930   34.8860 C.3   178  PRO178      0.0268
    118  CG        14.8010   30.5330   35.1600 C.3   178  PRO178      0.0207
    119  CD        14.2850   31.9250   35.4160 C.3   178  PRO178      0.0892
    120  N         15.7100   28.4560   38.9400 N.3   181  LEU181     -0.1245
    121  CA        16.4620   29.4910   39.6430 C.3   181  LEU181      0.1561
    122  C         15.7060   29.9560   40.8790 C.2   181  LEU181      0.2260
    123  O         16.3210   30.2730   41.8930 O.2   181  LEU181     -0.2867
    124  CB        16.7800   30.6810   38.7220 C.3   181  LEU181      0.0270
    125  CG        17.7820   30.3940   37.5960 C.3   181  LEU181      0.0019
    126  CD1       18.0280   31.6300   36.7420 C.3   181  LEU181      0.0001
    127  CD2       19.0980   29.8630   38.1610 C.3   181  LEU181      0.0001
@<TRIPOS>BOND
     1    86    84    1
     2    83    84    2
     3    83    82    1
     4    79    78    2
     5    84    85    1
     6    82    81    1
     7    78    77    1
     8    81    80    1
     9    77    80    1
    10    77    76    1
    11     7     5    1
    12     5     6    1
    13     5     2    1
    14     6     8    1
    15    74    73    2
    16    60    59    2
    17     1     2    1
    18     2     3    1
    19    73    72    1
    20    69    70   ar
    21    69    67   ar
    22     4     3    2
    23    59    58    1
    24    59    71   am
    25    70    68   ar
    26    67    64   ar
    27     3     9   am
    28    72    71    1
    29    72    75    1
    30    54    53    2
    31    58    61    1
    32    58    57    1
    33    68    66   ar
    34    64    66   ar
    35    64    62   ar
    36    66    65   ar
    37    61    62    1
    38    62    63   ar
    39     9    10    1
    40    53    57   am
    41    53    52    1
    42    65    63   ar
    43   112   111   ar
    44   112   110   ar
    45   111   109   ar
    46    12    11    2
    47    11    10    1
    48    10    13    1
    49   110   108   ar
    50    52    55    1
    51    52    51    1
    52    45    44    2
    53   109   108   ar
    54    55    56    1
    55   108   107    1
    56    15    14    2
    57    44    51   am
    58    44    43    1
    59    13    14    1
    60    41    40    2
    61    14    16   am
    62   107   104    1
    63    43    42    1
    64    43    46    1
    65    40    42   am
    66    40    39    1
    67    39    38    1
    68   104   103    1
    69   104   105    1
    70    46    47    1
    71   106   105    2
    72   102   100   am
    73    47    48    1
    74    38    34   am
    75   100   101    2
    76   100    99    1
    77   117   118    1
    78   117   114    1
    79    48    49    1
    80    35    34    2
    81   118   119    1
    82    34    33    1
    83    97    96    1
    84    97    98    2
    85   119   113    1
    86    96    99    1
    87    96    95    1
    88   114   113    1
    89   114   115    1
    90    49    50    1
    91    37    36    1
    92   126   125    1
    93    33    32    1
    94    33    36    1
    95    31    30    2
    96    32    30   am
    97    30    29    1
    98   115   116    2
    99    29    28    1
   100    94    92   am
   101   125   127    1
   102   125   124    1
   103    28    19   am
   104    87    88    1
   105   124   121    1
   106    92    93    2
   107    92    91    1
   108   120   121    1
   109    19    18    1
   110    19    20    2
   111    26    25    1
   112    88    91    1
   113    88    89    1
   114    27    25    1
   115   121   122    1
   116    18    17    1
   117    18    21    1
   118    25    24    2
   119    22    21    1
   120    22    23    1
   121    89    90    2
   122    24    23    1
   123   122   123    2
