@<TRIPOS>MOLECULE
tmp/4iehA00.pdb
 218 213 0 0 0
SMALL
GASTEIGER

@<TRIPOS>ATOM
      1  N         14.9780   26.7330   23.0090 N.3    33  GLN33      -0.1231
      2  CA        15.3850   27.9440   22.3120 C.3    33  GLN33       0.1698
      3  C         15.1450   27.8100   20.8130 C.2    33  GLN33       0.2592
      4  O         14.7080   28.7650   20.1760 O.2    33  GLN33      -0.2718
      5  CB        16.8430   28.3130   22.6110 C.3    33  GLN33       0.0381
      6  CG        17.0140   29.7730   23.0400 C.3    33  GLN33       0.0905
      7  CD        16.8670   30.7540   21.8940 C.2    33  GLN33       0.2608
      8  OE1       17.7840   30.9180   21.0920 O.2    33  GLN33      -0.2717
      9  NE2       15.7190   31.4230   21.8160 N.am   33  GLN33      -0.0878
     10  N         15.3990   26.6290   20.2590 N.am   34  ALA34      -0.1980
     11  CA        15.1830   26.4220   18.8330 C.3    34  ALA34       0.1597
     12  C         13.6960   26.5510   18.5060 C.2    34  ALA34       0.2287
     13  O         13.3330   27.0560   17.4520 O.2    34  ALA34      -0.2864
     14  CB        15.7230   25.0590   18.3860 C.3    34  ALA34       0.0319
     15  N         12.7930   30.1370   18.5750 N.3    37  ASP37      -0.1225
     16  CA        13.3740   30.7370   17.3730 C.3    37  ASP37       0.1805
     17  C         12.5600   30.3990   16.1280 C.2    37  ASP37       0.2597
     18  O         12.3350   31.2580   15.2690 O.2    37  ASP37      -0.2718
     19  CB        14.8320   30.2960   17.1950 C.3    37  ASP37       0.1424
     20  CG        15.7830   31.0100   18.1580 C.2    37  ASP37       0.3668
     21  OD1       15.4290   32.0930   18.6650 O.co2  37  ASP37      -0.2456
     22  OD2       16.8830   30.4880   18.4120 O.co2  37  ASP37      -0.2456
     23  N         12.1230   29.1460   16.0330 N.am   38  PHE38      -0.1976
     24  CA        11.2450   28.7190   14.9410 C.3    38  PHE38       0.1639
     25  C          9.9600   29.5420   14.8610 C.2    38  PHE38       0.2290
     26  O          9.5470   29.9560   13.7770 O.2    38  PHE38      -0.2864
     27  CB        10.8720   27.2360   15.0820 C.3    38  PHE38       0.0560
     28  CG         9.7390   26.8120   14.1800 C.ar   38  PHE38      -0.0200
     29  CD1        9.9790   26.4520   12.8560 C.ar   38  PHE38      -0.0042
     30  CD2        8.4370   26.7800   14.6530 C.ar   38  PHE38      -0.0042
     31  CE1        8.9340   26.0700   12.0170 C.ar   38  PHE38      -0.0003
     32  CE2        7.3850   26.3950   13.8260 C.ar   38  PHE38      -0.0003
     33  CZ         7.6330   26.0340   12.5070 C.ar   38  PHE38      -0.0000
     34  N         10.6550   33.1280   13.7470 N.3    41  ARG41      -0.1231
     35  CA        10.9790   33.2160   12.3250 C.3    41  ARG41       0.1694
     36  C          9.7460   32.9850   11.4610 C.2    41  ARG41       0.2592
     37  O          9.3990   33.8210   10.6280 O.2    41  ARG41      -0.2718
     38  CB        12.0750   32.2170   11.9480 C.3    41  ARG41       0.0321
     39  CG        12.3290   32.1460   10.4470 C.3    41  ARG41       0.0489
     40  CD        13.4270   31.1490   10.1100 C.3    41  ARG41       0.2205
     41  NE        14.7430   31.6810   10.4330 N.pl3  41  ARG41      -0.0865
     42  CZ        15.8780   31.0170   10.2540 C.cat  41  ARG41       0.5346
     43  NH1       15.8550   29.7820    9.7690 N.pl3  41  ARG41       0.1354
     44  NH2       17.0330   31.5860   10.5680 N.pl3  41  ARG41       0.1354
     45  N          9.0850   31.8490   11.6590 N.am   42  TYR42      -0.1976
     46  CA         7.8790   31.5270   10.9040 C.3    42  TYR42       0.1639
     47  C          6.6540   32.0950   11.6300 C.2    42  TYR42       0.2290
     48  O          5.7430   31.3660   12.0430 O.2    42  TYR42      -0.2864
     49  CB         7.7800   30.0110   10.6370 C.3    42  TYR42       0.0560
     50  CG         8.7890   29.5690    9.5960 C.ar   42  TYR42      -0.0198
     51  CD1       10.0810   29.1970    9.9640 C.ar   42  TYR42      -0.0009
     52  CD2        8.4710   29.5820    8.2400 C.ar   42  TYR42      -0.0009
     53  CE1       11.0110   28.8220    9.0230 C.ar   42  TYR42       0.0417
     54  CE2        9.4000   29.2040    7.2900 C.ar   42  TYR42       0.0417
     55  CZ        10.6740   28.8310    7.6870 C.ar   42  TYR42       0.1957
     56  OH        11.6150   28.4520    6.7470 O.3    42  TYR42      -0.2866
     57  N          3.0810   31.5020    9.9460 N.3    45  ASP45      -0.1225
     58  CA         2.7240   30.0900   10.0290 C.3    45  ASP45       0.1805
     59  C          2.3540   29.7200   11.4680 C.2    45  ASP45       0.2597
     60  O          1.3700   29.0220   11.6990 O.2    45  ASP45      -0.2718
     61  CB         3.8520   29.1950    9.5000 C.3    45  ASP45       0.1424
     62  CG         4.0080   29.2830    7.9910 C.2    45  ASP45       0.3668
     63  OD1        5.1310   29.5310    7.5110 O.co2  45  ASP45      -0.2456
     64  OD2        3.0030   29.1200    7.2800 O.co2  45  ASP45      -0.2456
     65  N          3.1420   30.1960   12.4280 N.am   46  PHE46      -0.1976
     66  CA         2.8610   29.9620   13.8420 C.3    46  PHE46       0.1639
     67  C          1.5140   30.5660   14.2480 C.2    46  PHE46       0.2290
     68  O          0.6660   29.8810   14.8230 O.2    46  PHE46      -0.2864
     69  CB         3.9770   30.5290   14.7240 C.3    46  PHE46       0.0560
     70  CG         3.7910   30.2530   16.1950 C.ar   46  PHE46      -0.0200
     71  CD1        4.0000   28.9830   16.7090 C.ar   46  PHE46      -0.0042
     72  CD2        3.4030   31.2620   17.0600 C.ar   46  PHE46      -0.0042
     73  CE1        3.8330   28.7270   18.0570 C.ar   46  PHE46      -0.0003
     74  CE2        3.2320   31.0110   18.4150 C.ar   46  PHE46      -0.0003
     75  CZ         3.4450   29.7400   18.9100 C.ar   46  PHE46      -0.0000
     76  N         -1.5560   28.6840   12.8480 N.3    49  MET49      -0.1245
     77  CA        -1.7210   27.2600   13.1170 C.3    49  MET49       0.1570
     78  C         -2.9020   27.0040   14.0510 C.2    49  MET49       0.2261
     79  O         -3.7140   26.1170   13.7920 O.2    49  MET49      -0.2867
     80  CB        -0.4240   26.6490   13.6780 C.3    49  MET49       0.0387
     81  CG        -0.4830   25.1420   13.9580 C.3    49  MET49       0.0595
     82  SD        -1.1480   24.1270   12.6100 S.3    49  MET49      -0.1393
     83  CE         0.2670   24.0450   11.5280 C.3    49  MET49       0.0692
     84  N         -1.5460   16.6970   10.5910 N.3    67  VAL67      -0.1245
     85  CA        -0.5630   17.7650   10.4640 C.3    67  VAL67       0.1561
     86  C          0.8450   17.1790   10.4840 C.2    67  VAL67       0.2260
     87  O          1.7110   17.5900    9.7000 O.2    67  VAL67      -0.2867
     88  CB        -0.7220   18.8290   11.5680 C.3    67  VAL67       0.0252
     89  CG1        0.3700   19.8960   11.4390 C.3    67  VAL67       0.0019
     90  CG2       -2.1110   19.4680   11.4880 C.3    67  VAL67       0.0019
     91  N          1.8910   15.5990    7.2180 N.3    70  GLU70      -0.1231
     92  CA         2.2690   16.6280    6.2650 C.3    70  GLU70       0.1699
     93  C          3.6550   17.1760    6.5820 C.2    70  GLU70       0.2592
     94  O          4.4640   17.3890    5.6900 O.2    70  GLU70      -0.2718
     95  CB         1.2460   17.7620    6.2330 C.3    70  GLU70       0.0402
     96  CG         1.5870   18.8370    5.2020 C.3    70  GLU70       0.1161
     97  CD         0.7050   20.0630    5.3230 C.2    70  GLU70       0.3649
     98  OE1        0.9400   21.0550    4.5940 O.co2  70  GLU70      -0.2457
     99  OE2       -0.2210   20.0360    6.1580 O.co2  70  GLU70      -0.2457
    100  N          3.9260   17.3910    7.8620 N.am   71  LEU71      -0.1980
    101  CA         5.1860   17.9870    8.2840 C.3    71  LEU71       0.1596
    102  C          6.3770   17.1550    7.8330 C.2    71  LEU71       0.2287
    103  O          7.3810   17.7000    7.3790 O.2    71  LEU71      -0.2864
    104  CB         5.2060   18.1350    9.8060 C.3    71  LEU71       0.0297
    105  CG         6.4770   18.6490   10.4640 C.3    71  LEU71       0.0022
    106  CD1        6.9030   20.0010    9.8730 C.3    71  LEU71       0.0001
    107  CD2        6.2670   18.7510   11.9770 C.3    71  LEU71       0.0001
    108  N         14.2560   15.9030    9.3640 N.3    77  ASN77      -0.1225
    109  CA        15.4720   16.6450    9.6580 C.3    77  ASN77       0.1785
    110  C         15.2850   17.3990   10.9670 C.2    77  ASN77       0.2597
    111  O         14.1730   17.4370   11.5000 O.2    77  ASN77      -0.2718
    112  CB        15.8620   17.5790    8.5030 C.3    77  ASN77       0.1169
    113  CG        14.7870   18.5900    8.1750 C.2    77  ASN77       0.2627
    114  OD1       14.2360   19.2410    9.0650 O.2    77  ASN77      -0.2716
    115  ND2       14.4900   18.7430    6.8820 N.am   77  ASN77      -0.0877
    116  N         16.3570   17.9780   11.5030 N.am   78  TRP78      -0.1962
    117  CA        16.2690   18.6080   12.8200 C.3    78  TRP78       0.1771
    118  C         15.2220   19.7340   12.8440 C.2    78  TRP78       0.2620
    119  O         14.4740   19.8670   13.8050 O.2    78  TRP78      -0.2715
    120  CB        17.6330   19.1290   13.2920 C.3    78  TRP78       0.0590
    121  CG        18.6030   18.0540   13.7170 C.ar   78  TRP78       0.0006
    122  CD1       19.8360   17.8000   13.1740 C.ar   78  TRP78       0.0946
    123  CD2       18.4250   17.0920   14.7710 C.ar   78  TRP78       0.0152
    124  NE1       20.4310   16.7450   13.8280 N.ar   78  TRP78      -0.2442
    125  CE2       19.5870   16.2910   14.8090 C.ar   78  TRP78       0.0810
    126  CE3       17.3960   16.8300   15.6860 C.ar   78  TRP78       0.0012
    127  CZ2       19.7490   15.2450   15.7260 C.ar   78  TRP78       0.0191
    128  CZ3       17.5600   15.7880   16.5940 C.ar   78  TRP78       0.0001
    129  CH2       18.7300   15.0150   16.6100 C.ar   78  TRP78       0.0015
    130  N         15.1720   20.5370   11.7840 N.am   79  GLY79      -0.1940
    131  CA        14.2160   21.6360   11.7090 C.3    79  GLY79       0.2014
    132  C         12.7610   21.1900   11.8010 C.2    79  GLY79       0.2638
    133  O         11.9520   21.7990   12.4970 O.2    79  GLY79      -0.2714
    134  N         12.4250   20.1200   11.0910 N.am   80  ARG80      -0.1977
    135  CA        11.0780   19.5710   11.1470 C.3    80  ARG80       0.1597
    136  C         10.7590   18.9380   12.5020 C.2    80  ARG80       0.2287
    137  O          9.6220   18.9700   12.9520 O.2    80  ARG80      -0.2864
    138  CB        10.8630   18.5770   10.0100 C.3    80  ARG80       0.0334
    139  CG        10.9000   19.2400    8.6440 C.3    80  ARG80       0.0492
    140  CD        10.8220   18.2340    7.5120 C.3    80  ARG80       0.2205
    141  NE        10.8270   18.9160    6.2250 N.pl3  80  ARG80      -0.0865
    142  CZ        11.2640   18.3750    5.0880 C.cat  80  ARG80       0.5346
    143  NH1       11.7280   17.1270    5.0690 N.pl3  80  ARG80       0.1354
    144  NH2       11.2420   19.0850    3.9660 N.pl3  80  ARG80       0.1354
    145  N         11.9560   20.1170   15.3730 N.3    82  VAL82      -0.1231
    146  CA        11.6450   21.2730   16.2160 C.3    82  VAL82       0.1692
    147  C         10.2160   21.7640   15.9350 C.2    82  VAL82       0.2591
    148  O          9.4580   22.0510   16.8610 O.2    82  VAL82      -0.2718
    149  CB        12.6760   22.4330   16.0670 C.3    82  VAL82       0.0266
    150  CG1       12.2080   23.6770   16.8130 C.3    82  VAL82       0.0020
    151  CG2       14.0570   22.0180   16.5890 C.3    82  VAL82       0.0020
    152  N          9.8470   21.8380   14.6600 N.am   83  ALA83      -0.1980
    153  CA         8.5030   22.2650   14.2720 C.3    83  ALA83       0.1597
    154  C          7.4340   21.3150   14.8260 C.2    83  ALA83       0.2287
    155  O          6.3260   21.7340   15.1610 O.2    83  ALA83      -0.2864
    156  CB         8.3970   22.3530   12.7620 C.3    83  ALA83       0.0319
    157  N          6.9480   22.2700   18.3620 N.3    86  GLU86      -0.1231
    158  CA         6.1860   23.5160   18.3570 C.3    86  GLU86       0.1699
    159  C          4.7250   23.2620   18.0320 C.2    86  GLU86       0.2592
    160  O          3.8380   23.8490   18.6510 O.2    86  GLU86      -0.2718
    161  CB         6.7990   24.5320   17.3850 C.3    86  GLU86       0.0402
    162  CG         7.9760   25.2690   17.9850 C.3    86  GLU86       0.1161
    163  CD         7.5410   26.1420   19.1350 C.2    86  GLU86       0.3649
    164  OE1        8.0610   25.9790   20.2580 O.co2  86  GLU86      -0.2457
    165  OE2        6.6570   26.9820   18.9190 O.co2  86  GLU86      -0.2457
    166  N          4.4660   22.3700   17.0800 N.am   87  PHE87      -0.1976
    167  CA         3.0880   21.9920   16.7780 C.3    87  PHE87       0.1639
    168  C          2.3780   21.3650   17.9880 C.2    87  PHE87       0.2290
    169  O          1.2490   21.7240   18.3060 O.2    87  PHE87      -0.2864
    170  CB         3.0050   21.0490   15.5770 C.3    87  PHE87       0.0560
    171  CG         1.6230   20.5140   15.3420 C.ar   87  PHE87      -0.0200
    172  CD1        0.6060   21.3590   14.9330 C.ar   87  PHE87      -0.0042
    173  CD2        1.3350   19.1730   15.5470 C.ar   87  PHE87      -0.0042
    174  CE1       -0.6850   20.8760   14.7280 C.ar   87  PHE87      -0.0003
    175  CE2        0.0510   18.6860   15.3420 C.ar   87  PHE87      -0.0003
    176  CZ        -0.9620   19.5490   14.9360 C.ar   87  PHE87      -0.0000
    177  N          1.4300   24.1480   20.3250 N.3    90  VAL90      -0.1245
    178  CA         0.2350   24.8580   19.8840 C.3    90  VAL90       0.1561
    179  C         -1.0320   24.0520   20.1990 C.2    90  VAL90       0.2260
    180  O         -2.0270   24.6030   20.6520 O.2    90  VAL90      -0.2867
    181  CB         0.2980   25.1730   18.3720 C.3    90  VAL90       0.0252
    182  CG1       -1.0580   25.5980   17.8470 C.3    90  VAL90       0.0019
    183  CG2        1.3520   26.2620   18.0950 C.3    90  VAL90       0.0019
    184  N         22.3180   17.3420   17.5930 N.3   132  PHE132     -0.1241
    185  CA        21.4130   18.5000   17.5610 C.3   132  PHE132      0.1605
    186  C         22.0030   19.6240   18.4010 C.2   132  PHE132      0.2264
    187  O         22.1070   20.7700   17.9640 O.2   132  PHE132     -0.2867
    188  CB        20.0300   18.1200   18.1050 C.3   132  PHE132      0.0534
    189  CG        19.0790   19.2950   18.2640 C.ar  132  PHE132     -0.0203
    190  CD1       18.4750   19.8760   17.1580 C.ar  132  PHE132     -0.0042
    191  CD2       18.7770   19.7950   19.5200 C.ar  132  PHE132     -0.0042
    192  CE1       17.5850   20.9470   17.3050 C.ar  132  PHE132     -0.0003
    193  CE2       17.8900   20.8650   19.6760 C.ar  132  PHE132     -0.0003
    194  CZ        17.2980   21.4370   18.5570 C.ar  132  PHE132     -0.0000
    195  N         24.9580   21.3120   16.8070 N.3   135  LEU135     -0.1231
    196  CA        24.5700   22.2190   15.7260 C.3   135  LEU135      0.1693
    197  C         23.9600   23.5160   16.2370 C.2   135  LEU135      0.2592
    198  O         24.3370   24.5940   15.7930 O.2   135  LEU135     -0.2718
    199  CB        23.5630   21.5500   14.7830 C.3   135  LEU135      0.0284
    200  CG        24.1070   20.4700   13.8590 C.3   135  LEU135      0.0019
    201  CD1       22.9710   19.7880   13.1170 C.3   135  LEU135      0.0001
    202  CD2       25.1240   21.0650   12.8900 C.3   135  LEU135      0.0001
    203  N         23.0080   23.4060   17.1650 N.am  136  TYR136     -0.1962
    204  CA        22.1560   24.5430   17.5120 C.3   136  TYR136      0.1771
    205  C         22.2500   25.0160   18.9540 C.2   136  TYR136      0.2620
    206  O         21.6320   26.0120   19.3220 O.2   136  TYR136     -0.2715
    207  CB        20.7020   24.2510   17.1250 C.3   136  TYR136      0.0574
    208  CG        20.6040   23.9160   15.6640 C.ar  136  TYR136     -0.0198
    209  CD1       20.2010   22.6580   15.2370 C.ar  136  TYR136     -0.0009
    210  CD2       20.9850   24.8470   14.7070 C.ar  136  TYR136     -0.0009
    211  CE1       20.1530   22.3480   13.8970 C.ar  136  TYR136      0.0417
    212  CE2       20.9390   24.5520   13.3690 C.ar  136  TYR136      0.0417
    213  CZ        20.5260   23.3040   12.9670 C.ar  136  TYR136      0.1957
    214  OH        20.4870   23.0190   11.6280 O.3   136  TYR136     -0.2866
    215  N         23.0220   24.3100   19.7650 N.am  137  GLY137     -0.1954
    216  CA        23.2560   24.7410   21.1290 C.3   137  GLY137      0.1869
    217  C         24.2920   25.8460   21.1470 C.2   137  GLY137      0.2309
    218  O         24.8060   26.2380   20.0980 O.2   137  GLY137     -0.2863
@<TRIPOS>BOND
     1   144   142    1
     2    98    97   ar
     3   143   142    1
     4   142   141    2
     5    96    97    1
     6    96    95    1
     7    97    99   ar
     8    94    93    2
     9   141   140    1
    10    95    92    1
    11    92    93    1
    12    92    91    1
    13    93   100   am
    14    56    55    1
    15   115   113   am
    16    64    62   ar
    17    54    55   ar
    18    54    52   ar
    19   103   102    2
    20    63    62   ar
    21   140   139    1
    22    55    53   ar
    23   102   101    1
    24   100   101    1
    25    62    61    1
    26   113   112    1
    27   113   114    2
    28    52    50   ar
    29   101   104    1
    30   112   109    1
    31   139   138    1
    32    53    51   ar
    33   108   109    1
    34    61    58    1
    35    50    51   ar
    36    50    49    1
    37   109   110    1
    38    87    86    2
    39    43    42    1
    40   104   105    1
    41   106   105    1
    42    57    58    1
    43   138   135    1
    44    58    59    1
    45    40    41    1
    46    40    39    1
    47    42    41    2
    48    42    44    1
    49    39    38    1
    50   105   107    1
    51    85    86    1
    52    85    84    1
    53    85    88    1
    54    37    36    2
    55    49    46    1
    56    46    47    1
    57    46    45    1
    58   110   111    2
    59   110   116   am
    60   134   135    1
    61   134   132   am
    62   135   136    1
    63    89    88    1
    64    36    45   am
    65    36    35    1
    66    59    60    2
    67    59    65   am
    68    90    88    1
    69   116   117    1
    70    83    82    1
    71   214   213    1
    72    47    48    2
    73   131   130    1
    74   131   132    1
    75   130   118   am
    76   132   133    2
    77    38    35    1
    78    31    33   ar
    79    31    29   ar
    80    35    34    1
    81    65    66    1
    82   136   137    2
    83    33    32   ar
    84    82    81    1
    85   156   153    1
    86   117   118    1
    87   117   120    1
    88   118   119    2
    89    76    77    1
    90    29    28   ar
    91   202   200    1
    92   213   212   ar
    93   213   211   ar
    94    77    80    1
    95    77    78    1
    96   201   200    1
    97   122   121   ar
    98   122   124   ar
    99   120   121    1
   100   212   210   ar
   101    80    81    1
   102   121   123   ar
   103    26    25    2
   104    79    78    2
   105    32    30   ar
   106   124   125   ar
   107    66    67    1
   108    66    69    1
   109   200   199    1
   110   211   209   ar
   111    28    30   ar
   112    28    27    1
   113    67    68    2
   114   153   152    1
   115   153   154    1
   116   152   147   am
   117   210   208   ar
   118    69    70    1
   119   174   172   ar
   120   174   176   ar
   121   123   125   ar
   122   123   126   ar
   123   199   196    1
   124   125   127   ar
   125   154   155    2
   126    25    24    1
   127   172   171   ar
   128   176   175   ar
   129    24    27    1
   130    24    23    1
   131   209   208   ar
   132    18    17    2
   133   171   173   ar
   134   171   170    1
   135   175   173   ar
   136   145   146    1
   137   170   167    1
   138   208   207    1
   139   126   128   ar
   140   127   129   ar
   141   196   197    1
   142   196   195    1
   143   198   197    2
   144   147   146    1
   145   147   148    2
   146    23    17   am
   147   149   146    1
   148   149   151    1
   149   149   150    1
   150    17    16    1
   151    70    71   ar
   152    70    72   ar
   153   197   203   am
   154   128   129   ar
   155    71    73   ar
   156   167   166    1
   157   167   168    1
   158    72    74   ar
   159   166   159   am
   160   207   204    1
   161   190   192   ar
   162   190   189   ar
   163   203   204    1
   164    19    16    1
   165    19    20    1
   166   192   194   ar
   167    16    15    1
   168   161   162    1
   169   161   158    1
   170    13    12    2
   171   204   205    1
   172   185   184    1
   173   185   188    1
   174   185   186    1
   175   182   181    1
   176   187   186    2
   177   162   163    1
   178   168   169    2
   179   159   158    1
   180   159   160    2
   181    73    75   ar
   182   183   181    1
   183   188   189    1
   184    20    22   ar
   185    20    21   ar
   186   189   191   ar
   187   158   157    1
   188   181   178    1
   189    14    11    1
   190    74    75   ar
   191    12    11    1
   192   194   193   ar
   193    11    10    1
   194   165   163   ar
   195   205   206    2
   196   205   215   am
   197   163   164   ar
   198   191   193   ar
   199   215   216    1
   200   178   179    1
   201   178   177    1
   202   218   217    2
   203     4     3    2
   204   179   180    2
   205    10     3   am
   206     3     2    1
   207     8     7    2
   208   216   217    1
   209     9     7   am
   210     7     6    1
   211     2     5    1
   212     2     1    1
   213     5     6    1
