@<TRIPOS>MOLECULE
tmp/4ieiA00.pdb
 119 115 0 0 0
SMALL
GASTEIGER

@<TRIPOS>ATOM
      1  N         12.0610   43.2920   27.2060 N.3     1  ASN1       -0.1240
      2  CA        12.1920   43.4810   28.6490 C.3     1  ASN1        0.1653
      3  C         12.3690   44.9640   29.0640 C.2     1  ASN1        0.2266
      4  O         13.4930   45.4520   29.1930 O.2     1  ASN1       -0.2867
      5  CB        13.3450   42.6280   29.1700 C.3     1  ASN1        0.1155
      6  CG        13.2230   42.3240   30.6460 C.2     1  ASN1        0.2627
      7  OD1       12.5060   43.0140   31.3760 O.2     1  ASN1       -0.2716
      8  ND2       13.9260   41.2900   31.0990 N.am    1  ASN1       -0.0877
      9  N         22.1260   37.3250   40.3220 N.3    20  ARG20      -0.1231
     10  CA        21.9170   36.1650   39.4880 C.3    20  ARG20       0.1694
     11  C         20.4640   36.0710   39.0450 C.2    20  ARG20       0.2593
     12  O         19.5620   36.3160   39.8430 O.2    20  ARG20      -0.2718
     13  CB        22.3000   34.9330   40.2950 C.3    20  ARG20       0.0321
     14  CG        22.1840   33.6080   39.5980 C.3    20  ARG20       0.0489
     15  CD        22.7230   32.5650   40.5740 C.3    20  ARG20       0.2205
     16  NE        22.4770   31.1920   40.1570 N.pl3  20  ARG20      -0.0865
     17  CZ        23.2880   30.5090   39.3640 C.cat  20  ARG20       0.5346
     18  NH1       24.3850   31.0900   38.8970 N.pl3  20  ARG20       0.1354
     19  NH2       22.9990   29.2570   39.0360 N.pl3  20  ARG20       0.1354
     20  N         20.2520   35.7350   37.7690 N.am   21  GLY21      -0.1942
     21  CA        18.9200   35.5120   37.2320 C.3    21  GLY21       0.2014
     22  C         18.1040   36.7590   36.9500 C.2    21  GLY21       0.2640
     23  O         16.8720   36.6990   36.8320 O.2    21  GLY21      -0.2714
     24  N         18.7890   37.8890   36.8210 N.am   22  SER22      -0.1935
     25  CA        18.1240   39.1730   36.6110 C.3    22  SER22       0.2055
     26  C         17.6060   39.3440   35.1810 C.2    22  SER22       0.2644
     27  O         16.7300   40.1680   34.9210 O.2    22  SER22      -0.2714
     28  CB        19.0870   40.3080   36.9370 C.3    22  SER22       0.2130
     29  OG        20.1070   40.3910   35.9600 O.3    22  SER22      -0.2179
     30  N         18.1470   38.5600   34.2590 N.am   23  GLY23      -0.1939
     31  CA        17.7790   38.6830   32.8610 C.3    23  GLY23       0.2014
     32  C         18.6830   39.6400   32.0920 C.2    23  GLY23       0.2639
     33  O         18.4610   39.8820   30.9090 O.2    23  GLY23      -0.2714
     34  N         19.7140   40.1740   32.7450 N.am   24  LYS24      -0.1963
     35  CA        20.5630   41.1630   32.0900 C.3    24  LYS24       0.1728
     36  C         21.3500   40.6060   30.8910 C.2    24  LYS24       0.2617
     37  O         21.6240   41.3350   29.9330 O.2    24  LYS24      -0.2715
     38  CB        21.5010   41.8470   33.0970 C.3    24  LYS24       0.0311
     39  CG        22.5600   40.9460   33.7140 C.3    24  LYS24       0.0038
     40  CD        23.3410   41.7220   34.7690 C.3    24  LYS24       0.0206
     41  CE        24.1990   40.8290   35.6320 C.3    24  LYS24       0.1093
     42  NZ        23.4170   39.9520   36.5760 N.3    24  LYS24      -0.1314
     43  N         21.7200   39.3290   30.9530 N.am   25  SER25      -0.1936
     44  CA        22.5310   38.7250   29.9020 C.3    25  SER25       0.2055
     45  C         21.6810   38.4700   28.6720 C.2    25  SER25       0.2643
     46  O         22.0720   38.8150   27.5590 O.2    25  SER25      -0.2714
     47  CB        23.1900   37.4220   30.3810 C.3    25  SER25       0.2130
     48  OG        24.0400   37.6780   31.4900 O.3    25  SER25      -0.2179
     49  N         20.5120   37.8800   28.8890 N.am   26  TRP26      -0.1959
     50  CA        19.5610   37.6160   27.8150 C.3    26  TRP26       0.1771
     51  C         19.1080   38.9080   27.1320 C.2    26  TRP26       0.2619
     52  O         18.9770   38.9480   25.9090 O.2    26  TRP26      -0.2715
     53  CB        18.3550   36.8440   28.3430 C.3    26  TRP26       0.0590
     54  CG        18.5830   35.3550   28.4450 C.ar   26  TRP26       0.0006
     55  CD1       19.6620   34.7100   29.0070 C.ar   26  TRP26       0.0946
     56  CD2       17.7010   34.3230   27.9830 C.ar   26  TRP26       0.0152
     57  NE1       19.5000   33.3440   28.9090 N.ar   26  TRP26      -0.2442
     58  CE2       18.3080   33.0830   28.2850 C.ar   26  TRP26       0.0810
     59  CE3       16.4580   34.3280   27.3380 C.ar   26  TRP26       0.0012
     60  CZ2       17.7080   31.8630   27.9690 C.ar   26  TRP26       0.0191
     61  CZ3       15.8690   33.1140   27.0250 C.ar   26  TRP26       0.0001
     62  CH2       16.4940   31.9000   27.3440 C.ar   26  TRP26       0.0015
     63  N         18.8880   39.9590   27.9220 N.am   27  ALA27      -0.1977
     64  CA        18.5120   41.2650   27.3870 C.3    27  ALA27       0.1597
     65  C         19.6030   41.8400   26.4750 C.2    27  ALA27       0.2287
     66  O         19.3340   42.2110   25.3230 O.2    27  ALA27      -0.2864
     67  CB        18.1910   42.2480   28.5310 C.3    27  ALA27       0.0319
     68  N         20.0970   39.8680   23.3110 N.3    30  ARG30      -0.1245
     69  CA        18.9910   40.1660   22.4130 C.3    30  ARG30       0.1563
     70  C         19.1650   41.5120   21.7080 C.2    30  ARG30       0.2260
     71  O         19.0220   41.5980   20.4970 O.2    30  ARG30      -0.2867
     72  CB        17.6670   40.1390   23.1620 C.3    30  ARG30       0.0307
     73  CG        16.4860   40.5440   22.2920 C.3    30  ARG30       0.0489
     74  CD        16.1000   39.4480   21.3190 C.3    30  ARG30       0.2205
     75  NE        15.0870   39.9390   20.3960 N.pl3  30  ARG30      -0.0865
     76  CZ        13.7840   39.8900   20.6360 C.cat  30  ARG30       0.5346
     77  NH1       13.3540   39.3510   21.7620 N.pl3  30  ARG30       0.1354
     78  NH2       12.9180   40.3730   19.7540 N.pl3  30  ARG30       0.1354
     79  N         27.8180   41.2940   38.1260 N.3   143  ASN143     -0.1240
     80  CA        27.2450   41.0190   39.4300 C.3   143  ASN143      0.1653
     81  C         28.2660   41.5210   40.4540 C.2   143  ASN143      0.2266
     82  O         29.3510   40.9690   40.5540 O.2   143  ASN143     -0.2867
     83  CB        27.0610   39.5110   39.6110 C.3   143  ASN143      0.1155
     84  CG        26.1380   38.8920   38.5720 C.2   143  ASN143      0.2627
     85  OD1       26.1340   39.2910   37.4010 O.2   143  ASN143     -0.2716
     86  ND2       25.3460   37.9060   38.9980 N.am  143  ASN143     -0.0877
     87  N         12.9160   40.3020   36.3490 N.3   173  ASN173     -0.1240
     88  CA        12.9320   39.2920   35.3020 C.3   173  ASN173      0.1653
     89  C         11.5690   38.6370   35.2360 C.2   173  ASN173      0.2266
     90  O         11.2090   37.8630   36.1170 O.2   173  ASN173     -0.2867
     91  CB        14.0290   38.2460   35.5680 C.3   173  ASN173      0.1155
     92  CG        14.1660   37.2390   34.4360 C.2   173  ASN173      0.2627
     93  OD1       13.4380   37.3100   33.4510 O.2   173  ASN173     -0.2716
     94  ND2       15.1190   36.3090   34.5650 N.am  173  ASN173     -0.0877
     95  N         10.5200   36.4570   33.1860 N.3   175  HIS175     -0.1241
     96  CA        10.6000   35.0430   32.8560 C.3   175  HIS175      0.1621
     97  C         11.5770   34.3320   33.7820 C.2   175  HIS175      0.2264
     98  O         12.2950   33.4260   33.3640 O.2   175  HIS175     -0.2867
     99  CB        11.0120   34.8620   31.3960 C.3   175  HIS175      0.0745
    100  CG        10.2680   35.7500   30.4430 C.ar  175  HIS175      0.0817
    101  ND1        9.1740   35.3200   29.7210 N.ar  175  HIS175     -0.2268
    102  CD2       10.4630   37.0440   30.0930 C.ar  175  HIS175      0.1154
    103  CE1        8.7280   36.3110   28.9670 C.ar  175  HIS175      0.1986
    104  NE2        9.4930   37.3670   29.1750 N.ar  175  HIS175     -0.2212
    105  N         12.9690   31.7600   35.7890 N.3   177  PRO177     -0.2116
    106  CA        12.6410   30.3380   35.6620 C.3   177  PRO177      0.1372
    107  C         12.6900   29.5830   36.9900 C.2   177  PRO177      0.2244
    108  O         13.4210   29.9600   37.9110 O.2   177  PRO177     -0.2868
    109  CB        13.7240   29.8240   34.7140 C.3   177  PRO177      0.0268
    110  CG        14.9080   30.7030   35.0020 C.3   177  PRO177      0.0207
    111  CD        14.3610   32.0480   35.4020 C.3   177  PRO177      0.0892
    112  N         15.9810   28.4810   38.7230 N.3   180  LEU180     -0.1245
    113  CA        16.6600   29.5600   39.4530 C.3   180  LEU180      0.1561
    114  C         15.8870   29.9880   40.7010 C.2   180  LEU180      0.2260
    115  O         16.4870   30.3470   41.7050 O.2   180  LEU180     -0.2867
    116  CB        16.8980   30.7830   38.5520 C.3   180  LEU180      0.0270
    117  CG        17.9660   30.6420   37.4610 C.3   180  LEU180      0.0019
    118  CD1       18.2550   31.9970   36.8380 C.3   180  LEU180      0.0001
    119  CD2       19.2360   30.0170   38.0110 C.3   180  LEU180      0.0001
@<TRIPOS>BOND
     1    78    76    1
     2    75    76    2
     3    75    74    1
     4    71    70    2
     5    76    77    1
     6    74    73    1
     7    70    69    1
     8    73    72    1
     9    69    72    1
    10    69    68    1
    11    66    65    2
    12    52    51    2
    13    65    64    1
    14    61    59   ar
    15    61    62   ar
    16    51    50    1
    17    51    63   am
    18     1     2    1
    19    59    56   ar
    20    62    60   ar
    21    64    63    1
    22    64    67    1
    23    46    45    2
    24    50    53    1
    25    50    49    1
    26    60    58   ar
    27    56    58   ar
    28    56    54   ar
    29    58    57   ar
    30    53    54    1
    31    54    55   ar
    32     2     3    1
    33     2     5    1
    34    45    49   am
    35    45    44    1
    36    57    55   ar
    37   103   104   ar
    38   103   101   ar
    39     3     4    2
    40     5     6    1
    41   104   102   ar
    42   101   100   ar
    43    44    47    1
    44    44    43    1
    45    37    36    2
    46   102   100   ar
    47    47    48    1
    48   100    99    1
    49     6     8   am
    50     6     7    2
    51    36    43   am
    52    36    35    1
    53    33    32    2
    54    99    96    1
    55    35    34    1
    56    35    38    1
    57    32    34   am
    58    32    31    1
    59    96    95    1
    60    96    97    1
    61    31    30    1
    62    38    39    1
    63    98    97    2
    64    93    92    2
    65    39    40    1
    66    30    26   am
    67    92    94   am
    68    92    91    1
    69   109   110    1
    70   109   106    1
    71    40    41    1
    72    27    26    2
    73   110   111    1
    74    26    25    1
    75    89    88    1
    76    89    90    2
    77    88    91    1
    78    88    87    1
    79   111   105    1
    80    41    42    1
    81   106   105    1
    82   106   107    1
    83    29    28    1
    84    25    24    1
    85    25    28    1
    86    24    22   am
    87    23    22    2
    88   118   117    1
    89    22    21    1
    90   107   108    2
    91    21    20    1
    92    85    84    2
    93   117   119    1
    94   117   116    1
    95    20    11   am
    96    79    80    1
    97   116   113    1
    98    84    86   am
    99    84    83    1
   100   112   113    1
   101    18    17    1
   102    19    17    1
   103    11    10    1
   104    11    12    2
   105    17    16    2
   106    80    83    1
   107    80    81    1
   108   113   114    1
   109    10    13    1
   110    10     9    1
   111    14    13    1
   112    14    15    1
   113    16    15    1
   114    81    82    2
   115   114   115    2
