@<TRIPOS>MOLECULE
tmp/4iemE01.pdb
 188 175 0 0 0
SMALL
GASTEIGER

@<TRIPOS>ATOM
      1  N         32.5580   17.6620   33.3370 N.3    53  GLU53      -0.1245
      2  CA        33.1200   18.9350   32.8970 C.3    53  GLU53       0.1567
      3  C         33.1670   18.9970   31.3760 C.2    53  GLU53       0.2260
      4  O         34.2320   19.1660   30.7840 O.2    53  GLU53      -0.2867
      5  CB        34.5250   19.1480   33.4690 C.3    53  GLU53       0.0388
      6  CG        34.5420   19.5440   34.9350 C.3    53  GLU53       0.1160
      7  CD        35.7340   20.4170   35.2950 C.2    53  GLU53       0.3649
      8  OE1       36.6050   19.9610   36.0700 O.co2  53  GLU53      -0.2457
      9  OE2       35.7920   21.5660   34.8070 O.co2  53  GLU53      -0.2457
     10  N         28.9220   15.0880   38.2600 N.3   128  TYR128     -0.1241
     11  CA        30.0670   15.9520   38.5140 C.3   128  TYR128      0.1605
     12  C         29.7630   16.8170   39.7280 C.2   128  TYR128      0.2264
     13  O         28.9880   17.7700   39.6460 O.2   128  TYR128     -0.2867
     14  CB        30.3690   16.8310   37.3030 C.3   128  TYR128      0.0534
     15  CG        31.4460   17.8560   37.5700 C.ar  128  TYR128     -0.0201
     16  CD1       31.2390   19.2000   37.2930 C.ar  128  TYR128     -0.0009
     17  CD2       32.6630   17.4800   38.1180 C.ar  128  TYR128     -0.0009
     18  CE1       32.2210   20.1380   37.5420 C.ar  128  TYR128      0.0417
     19  CE2       33.6520   18.4090   38.3710 C.ar  128  TYR128      0.0417
     20  CZ        33.4260   19.7380   38.0810 C.ar  128  TYR128      0.1957
     21  OH        34.4060   20.6710   38.3340 O.3   128  TYR128     -0.2866
     22  N         32.5570   21.7050   43.4020 N.3   131  ASN131     -0.1240
     23  CA        33.8150   21.9240   44.1090 C.3   131  ASN131      0.1653
     24  C         33.6500   22.9750   45.2040 C.2   131  ASN131      0.2266
     25  O         32.9950   23.9980   45.0000 O.2   131  ASN131     -0.2867
     26  CB        34.8940   22.3640   43.1170 C.3   131  ASN131      0.1155
     27  CG        36.2930   22.3140   43.7050 C.2   131  ASN131      0.2627
     28  OD1       36.7400   23.2590   44.3530 O.2   131  ASN131     -0.2716
     29  ND2       36.9970   21.2130   43.4650 N.am  131  ASN131     -0.0877
     30  N         38.6380   27.0750   45.9400 N.3   134  ARG134     -0.1245
     31  CA        39.7860   27.6340   46.6420 C.3   134  ARG134      0.1563
     32  C         39.2690   28.5810   47.7170 C.2   134  ARG134      0.2260
     33  O         38.4010   29.4120   47.4530 O.2   134  ARG134     -0.2867
     34  CB        40.6910   28.3910   45.6680 C.3   134  ARG134      0.0307
     35  CG        41.3790   27.5090   44.6390 C.3   134  ARG134      0.0489
     36  CD        42.6510   26.8890   45.2010 C.3   134  ARG134      0.2205
     37  NE        43.2370   25.9040   44.2940 N.pl3 134  ARG134     -0.0865
     38  CZ        43.9790   26.2020   43.2310 C.cat 134  ARG134      0.5346
     39  NH1       44.4680   25.2310   42.4720 N.pl3 134  ARG134      0.1354
     40  NH2       44.2310   27.4660   42.9180 N.pl3 134  ARG134      0.1354
     41  N         33.1950   12.2500   38.7830 N.3   167  ASP167     -0.1239
     42  CA        34.0490   12.9970   39.6920 C.3   167  ASP167      0.1674
     43  C         33.2310   13.4000   40.9070 C.2   167  ASP167      0.2266
     44  O         32.4050   14.3120   40.8330 O.2   167  ASP167     -0.2867
     45  CB        34.5980   14.2450   39.0030 C.3   167  ASP167      0.1410
     46  CG        35.6500   14.9540   39.8300 C.2   167  ASP167      0.3668
     47  OD1       35.8300   14.5890   41.0120 O.co2 167  ASP167     -0.2456
     48  OD2       36.2930   15.8850   39.2990 O.co2 167  ASP167     -0.2456
     49  N         34.6630   14.4030   43.5740 N.3   169  ASN169     -0.1240
     50  CA        35.4150   15.5440   44.0840 C.3   169  ASN169      0.1653
     51  C         35.8170   15.4240   45.5560 C.2   169  ASN169      0.2266
     52  O         35.8940   16.4250   46.2680 O.2   169  ASN169     -0.2867
     53  CB        34.6270   16.8370   43.8440 C.3   169  ASN169      0.1155
     54  CG        35.4300   17.8730   43.0820 C.2   169  ASN169      0.2627
     55  OD1       36.6320   18.0330   43.3030 O.2   169  ASN169     -0.2716
     56  ND2       34.7710   18.5740   42.1670 N.am  169  ASN169     -0.0877
     57  N         49.4230   13.9290   49.4200 N.3   179  ASN179     -0.1240
     58  CA        49.7480   14.7820   50.5570 C.3   179  ASN179      0.1653
     59  C         48.5300   15.1540   51.4120 C.2   179  ASN179      0.2266
     60  O         48.0980   16.3060   51.4180 O.2   179  ASN179     -0.2867
     61  CB        50.4660   16.0380   50.0630 C.3   179  ASN179      0.1155
     62  CG        51.8760   15.7500   49.5910 C.2   179  ASN179      0.2627
     63  OD1       52.4460   14.7010   49.8960 O.2   179  ASN179     -0.2716
     64  ND2       52.4510   16.6850   48.8480 N.am  179  ASN179     -0.0877
     65  N         48.8140   18.2390   54.1000 N.3   182  GLY182     -0.1210
     66  CA        48.8470   19.5670   53.5160 C.3   182  GLY182      0.1956
     67  C         47.4900   20.0790   53.0610 C.2   182  GLY182      0.2611
     68  O         47.2990   21.2860   52.9120 O.2   182  GLY182     -0.2717
     69  N         46.5440   19.1680   52.8430 N.am  183  ASN183     -0.1974
     70  CA        45.2390   19.5370   52.2960 C.3   183  ASN183      0.1688
     71  C         44.0480   19.1570   53.1760 C.2   183  ASN183      0.2292
     72  O         42.9660   18.8710   52.6650 O.2   183  ASN183     -0.2864
     73  CB        45.0560   18.9060   50.9130 C.3   183  ASN183      0.1181
     74  CG        46.1720   19.2630   49.9510 C.2   183  ASN183      0.2629
     75  OD1       46.6590   18.4110   49.2070 O.2   183  ASN183     -0.2716
     76  ND2       46.5840   20.5270   49.9600 N.am  183  ASN183     -0.0877
     77  N         42.0840   22.0220   52.3440 N.3   186  ASN186     -0.1225
     78  CA        41.8650   22.2770   50.9280 C.3   186  ASN186      0.1785
     79  C         40.6350   21.5420   50.4060 C.2   186  ASN186      0.2597
     80  O         40.3150   20.4470   50.8690 O.2   186  ASN186     -0.2718
     81  CB        43.0960   21.8550   50.1250 C.3   186  ASN186      0.1169
     82  CG        43.1860   22.5550   48.7880 C.2   186  ASN186      0.2627
     83  OD1       43.8680   23.5710   48.6500 O.2   186  ASN186     -0.2716
     84  ND2       42.4950   22.0140   47.7910 N.am  186  ASN186     -0.0877
     85  N         39.9480   22.1550   49.4460 N.am  187  ALA187     -0.1966
     86  CA        38.7960   21.5320   48.8030 C.3   187  ALA187      0.1728
     87  C         39.1310   20.1050   48.3830 C.2   187  ALA187      0.2616
     88  O         40.2410   19.8260   47.9300 O.2   187  ALA187     -0.2715
     89  CB        38.3590   22.3470   47.5940 C.3   187  ALA187      0.0334
     90  N         38.1640   19.2070   48.5380 N.am  188  GLY188     -0.1955
     91  CA        38.3500   17.8120   48.1840 C.3   188  GLY188      0.1869
     92  C         38.7600   16.9300   49.3500 C.2   188  GLY188      0.2309
     93  O         38.5150   15.7240   49.3320 O.2   188  GLY188     -0.2863
     94  N         43.4990   12.1620   39.4450 N.3   223  PHE223     -0.1241
     95  CA        43.6570   13.5800   39.1390 C.3   223  PHE223      0.1605
     96  C         45.0140   14.1290   39.5650 C.2   223  PHE223      0.2264
     97  O         45.5450   13.7710   40.6160 O.2   223  PHE223     -0.2867
     98  CB        42.5600   14.4120   39.8050 C.3   223  PHE223      0.0534
     99  CG        42.9280   15.8600   39.9610 C.ar  223  PHE223     -0.0203
    100  CD1       42.8340   16.7350   38.8900 C.ar  223  PHE223     -0.0042
    101  CD2       43.3920   16.3400   41.1730 C.ar  223  PHE223     -0.0042
    102  CE1       43.1840   18.0670   39.0320 C.ar  223  PHE223     -0.0003
    103  CE2       43.7440   17.6680   41.3200 C.ar  223  PHE223     -0.0003
    104  CZ        43.6400   18.5320   40.2480 C.ar  223  PHE223     -0.0000
    105  N         46.9450   18.1120   39.2460 N.3   225  THR225     -0.1218
    106  CA        46.9180   19.4860   38.7620 C.3   225  THR225      0.1862
    107  C         47.7550   19.6290   37.4970 C.2   225  THR225      0.2287
    108  O         48.6920   18.8640   37.2740 O.2   225  THR225     -0.2866
    109  CB        47.4630   20.4510   39.8230 C.3   225  THR225      0.1770
    110  OG1       46.9220   20.1020   41.0990 O.3   225  THR225     -0.2211
    111  CG2       47.0790   21.8870   39.5070 C.3   225  THR225      0.0375
    112  N         49.5920   21.9850   37.1940 N.3   227  MET227     -0.1230
    113  CA        50.6120   22.8980   37.6850 C.3   227  MET227      0.1702
    114  C         51.8020   22.1380   38.2540 C.2   227  MET227      0.2592
    115  O         51.6660   21.0080   38.7270 O.2   227  MET227     -0.2718
    116  CB        50.0340   23.8210   38.7640 C.3   227  MET227      0.0401
    117  CG        49.0700   24.8860   38.2490 C.3   227  MET227      0.0596
    118  SD        48.7130   26.1640   39.4780 S.3   227  MET227     -0.1393
    119  CE        48.1440   25.1690   40.8550 C.3   227  MET227      0.0692
    120  N         52.9700   22.7720   38.1970 N.am  228  MET228     -0.1979
    121  CA        54.1810   22.2320   38.8040 C.3   228  MET228      0.1605
    122  C         54.3430   20.7380   38.5310 C.2   228  MET228      0.2287
    123  O         54.7520   19.9760   39.4080 O.2   228  MET228     -0.2864
    124  CB        54.1780   22.5250   40.3090 C.3   228  MET228      0.0413
    125  CG        54.1930   24.0210   40.6270 C.3   228  MET228      0.0598
    126  SD        54.0160   24.4010   42.3790 S.3   228  MET228     -0.1393
    127  CE        52.3400   23.8500   42.6590 C.3   228  MET228      0.0692
    128  N         52.8610   18.1230   38.5970 N.3   230  ALA230     -0.1245
    129  CA        52.4220   17.1360   39.5770 C.3   230  ALA230      0.1562
    130  C         52.2280   15.7740   38.9170 C.2   230  ALA230      0.2260
    131  O         52.6820   14.7530   39.4330 O.2   230  ALA230     -0.2867
    132  CB        51.1390   17.5840   40.2550 C.3   230  ALA230      0.0290
    133  N         55.0840   13.5810   38.5330 N.3   233  LYS233     -0.1245
    134  CA        55.5720   13.1460   39.8370 C.3   233  LYS233      0.1561
    135  C         54.4720   12.4270   40.6300 C.2   233  LYS233      0.2260
    136  O         54.5170   12.3720   41.8580 O.2   233  LYS233     -0.2867
    137  CB        56.1000   14.3520   40.6280 C.3   233  LYS233      0.0271
    138  CG        57.1960   15.1600   39.9140 C.3   233  LYS233      0.0035
    139  CD        58.5150   14.3930   39.8170 C.3   233  LYS233      0.0206
    140  CE        59.5970   15.1950   39.0920 C.3   233  LYS233      0.1093
    141  NZ        60.0860   16.3690   39.8740 N.3   233  LYS233     -0.1314
    142  N         51.7450   13.2160   41.7840 N.3   235  VAL235     -0.1245
    143  CA        51.2860   13.9890   42.9290 C.3   235  VAL235      0.1561
    144  C         49.8210   14.3550   42.6910 C.2   235  VAL235      0.2260
    145  O         49.5180   15.3820   42.0850 O.2   235  VAL235     -0.2867
    146  CB        52.1730   15.2410   43.1050 C.3   235  VAL235      0.0252
    147  CG1       51.4720   16.3030   43.9090 C.3   235  VAL235      0.0019
    148  CG2       53.4910   14.8680   43.7720 C.3   235  VAL235      0.0019
    149  N         45.2390   12.9870   43.2700 N.3   237  TRP237     -0.1241
    150  CA        44.0730   12.7100   44.1090 C.3   237  TRP237      0.1605
    151  C         43.1810   11.6550   43.4530 C.2   237  TRP237      0.2264
    152  O         42.9940   11.6720   42.2390 O.2   237  TRP237     -0.2867
    153  CB        43.2340   13.9800   44.2950 C.3   237  TRP237      0.0550
    154  CG        43.9950   15.2070   44.7410 C.ar  237  TRP237      0.0003
    155  CD1       45.0930   15.7630   44.1440 C.ar  237  TRP237      0.0946
    156  CD2       43.6860   16.0440   45.8650 C.ar  237  TRP237      0.0152
    157  NE1       45.4930   16.8830   44.8350 N.ar  237  TRP237     -0.2442
    158  CE2       44.6470   17.0760   45.8940 C.ar  237  TRP237      0.0810
    159  CE3       42.6960   16.0170   46.8520 C.ar  237  TRP237      0.0012
    160  CZ2       44.6460   18.0700   46.8710 C.ar  237  TRP237      0.0191
    161  CZ3       42.6990   17.0040   47.8220 C.ar  237  TRP237      0.0001
    162  CH2       43.6670   18.0160   47.8230 C.ar  237  TRP237      0.0015
    163  N         39.8180   11.1520   42.8050 N.3   239  LEU239     -0.1245
    164  CA        38.5980   11.9490   42.8500 C.3   239  LEU239      0.1561
    165  C         37.4540   11.3500   42.0440 C.2   239  LEU239      0.2260
    166  O         36.3500   11.8960   42.0220 O.2   239  LEU239     -0.2867
    167  CB        38.8920   13.3520   42.3230 C.3   239  LEU239      0.0270
    168  CG        39.8610   14.1520   43.1900 C.3   239  LEU239      0.0019
    169  CD1       40.2770   15.4370   42.4900 C.3   239  LEU239      0.0001
    170  CD2       39.2310   14.4430   44.5480 C.3   239  LEU239      0.0001
    171  N         43.2300   16.8690   32.8780 N.3   265  ASP265     -0.1225
    172  CA        44.0180   16.8210   34.1080 C.3   265  ASP265      0.1805
    173  C         43.5000   15.6960   34.9990 C.2   265  ASP265      0.2597
    174  O         44.0220   15.4550   36.0880 O.2   265  ASP265     -0.2718
    175  CB        44.0230   18.1680   34.8500 C.3   265  ASP265      0.1424
    176  CG        42.6320   18.7560   35.0330 C.2   265  ASP265      0.3668
    177  OD1       42.5370   19.9300   35.4610 O.co2 265  ASP265     -0.2456
    178  OD2       41.6390   18.0570   34.7480 O.co2 265  ASP265     -0.2456
    179  N         42.4690   15.0070   34.5190 N.am  266  HIS266     -0.1975
    180  CA        42.0470   13.7470   35.1140 C.3   266  HIS266      0.1656
    181  C         42.4400   12.6330   34.1500 C.2   266  HIS266      0.2291
    182  O         42.8730   12.9010   33.0280 O.2   266  HIS266     -0.2864
    183  CB        40.5320   13.7210   35.3570 C.3   266  HIS266      0.0771
    184  CG        40.0710   14.6090   36.4730 C.ar  266  HIS266      0.0820
    185  ND1       39.3570   14.1370   37.5540 N.ar  266  HIS266     -0.2267
    186  CD2       40.2070   15.9430   36.6680 C.ar  266  HIS266      0.1154
    187  CE1       39.0810   15.1400   38.3700 C.ar  266  HIS266      0.1986
    188  NE2       39.5850   16.2450   37.8560 N.ar  266  HIS266     -0.2212
@<TRIPOS>BOND
     1     4     3    2
     2     3     2    1
     3   171   172    1
     4     2     1    1
     5     2     5    1
     6   182   181    2
     7     5     6    1
     8   172   175    1
     9   172   173    1
    10   181   180    1
    11   179   173   am
    12   179   180    1
    13   178   176   ar
    14     9     7   ar
    15   175   176    1
    16     6     7    1
    17   173   174    2
    18   176   177   ar
    19   180   183    1
    20     7     8   ar
    21   183   184    1
    22   184   186   ar
    23   184   185   ar
    24   186   188   ar
    25   112   113    1
    26   108   107    2
    27    16    18   ar
    28    16    15   ar
    29    14    15    1
    30    14    11    1
    31   107   106    1
    32    18    20   ar
    33   185   187   ar
    34    15    17   ar
    35   113   114    1
    36   113   116    1
    37   188   187   ar
    38    20    21    1
    39    20    19   ar
    40    17    19   ar
    41   120   114   am
    42   120   121    1
    43   117   116    1
    44   117   118    1
    45   114   115    2
    46    10    11    1
    47    11    12    1
    48   122   121    1
    49   122   123    2
    50   133   134    1
    51   128   129    1
    52   106   105    1
    53   106   109    1
    54    41    42    1
    55   121   124    1
    56   100   102   ar
    57   100    99   ar
    58   130   131    2
    59   130   129    1
    60    45    42    1
    61    45    46    1
    62   102   104   ar
    63   140   139    1
    64   140   141    1
    65    95    94    1
    66    95    96    1
    67    95    98    1
    68    48    46   ar
    69   118   119    1
    70   111   109    1
    71    96    97    2
    72   129   132    1
    73    13    12    2
    74    42    43    1
    75    98    99    1
    76   139   138    1
    77   109   110    1
    78    46    47   ar
    79   134   137    1
    80   134   135    1
    81   138   137    1
    82    99   101   ar
    83   104   103   ar
    84   124   125    1
    85   125   126    1
    86   135   136    2
    87    44    43    2
    88   101   103   ar
    89   142   143    1
    90   166   165    2
    91   165   164    1
    92   145   144    2
    93    56    54   am
    94   152   151    2
    95   167   164    1
    96   167   168    1
    97   126   127    1
    98    39    38    1
    99   169   168    1
   100   144   143    1
   101   163   164    1
   102    40    38    1
   103   143   146    1
   104    54    55    2
   105    54    53    1
   106   146   148    1
   107   146   147    1
   108    26    27    1
   109    26    23    1
   110   168   170    1
   111    38    37    2
   112   149   150    1
   113    22    23    1
   114   151   150    1
   115    29    27   am
   116    49    50    1
   117    27    28    2
   118    53    50    1
   119    50    51    1
   120    23    24    1
   121   150   153    1
   122   155   154   ar
   123   155   157   ar
   124    37    36    1
   125   153   154    1
   126    35    36    1
   127    35    34    1
   128   154   156   ar
   129   157   158   ar
   130    25    24    2
   131    51    52    2
   132    34    31    1
   133   156   158   ar
   134   156   159   ar
   135   158   160   ar
   136    30    31    1
   137    31    32    1
   138   159   161   ar
   139   160   162   ar
   140    33    32    2
   141    89    86    1
   142    84    82   am
   143   161   162   ar
   144    88    87    2
   145    91    90    1
   146    91    92    1
   147    87    90   am
   148    87    86    1
   149    83    82    2
   150    82    81    1
   151    86    85    1
   152    64    62   am
   153    75    74    2
   154    93    92    2
   155    57    58    1
   156    85    79   am
   157    62    63    2
   158    62    61    1
   159    74    76   am
   160    74    73    1
   161    61    58    1
   162    81    78    1
   163    79    80    2
   164    79    78    1
   165    58    59    1
   166    73    70    1
   167    78    77    1
   168    59    60    2
   169    70    69    1
   170    70    71    1
   171    72    71    2
   172    69    67   am
   173    68    67    2
   174    67    66    1
   175    66    65    1
