@<TRIPOS>MOLECULE
tmp/4iemI00.pdb
 131 123 0 0 0
SMALL
GASTEIGER

@<TRIPOS>ATOM
      1  N         49.8720   43.1290   17.0840 N.3    30  ASP30      -0.1239
      2  CA        48.7670   42.3200   17.5930 C.3    30  ASP30       0.1674
      3  C         49.1910   41.5250   18.8230 C.2    30  ASP30       0.2266
      4  O         49.0010   40.3100   18.8850 O.2    30  ASP30      -0.2867
      5  CB        48.2540   41.3620   16.5130 C.3    30  ASP30       0.1410
      6  CG        46.9840   40.6390   16.9320 C.2    30  ASP30       0.3668
      7  OD1       46.1200   41.2810   17.5650 O.co2  30  ASP30      -0.2456
      8  OD2       46.8550   39.4300   16.6370 O.co2  30  ASP30      -0.2456
      9  N         50.0540   48.1910   19.3270 N.3    56  GLU56      -0.1245
     10  CA        49.2760   47.0860   19.8710 C.3    56  GLU56       0.1567
     11  C         50.2070   46.0770   20.5190 C.2    56  GLU56       0.2260
     12  O         50.1700   44.8900   20.2010 O.2    56  GLU56      -0.2867
     13  CB        48.4310   46.4020   18.7900 C.3    56  GLU56       0.0388
     14  CG        47.1960   47.1800   18.3760 C.3    56  GLU56       0.1160
     15  CD        46.0130   46.2770   18.0540 C.2    56  GLU56       0.3649
     16  OE1       45.6790   46.1080   16.8570 O.co2  56  GLU56      -0.2457
     17  OE2       45.4060   45.7430   19.0070 O.co2  56  GLU56      -0.2457
     18  N         45.7520   46.0270   26.4230 N.3    88  TYR88      -0.1241
     19  CA        45.0290   46.7960   25.4160 C.3    88  TYR88       0.1605
     20  C         45.9180   47.8970   24.8520 C.2    88  TYR88       0.2264
     21  O         46.6520   48.5520   25.5910 O.2    88  TYR88      -0.2867
     22  CB        43.7640   47.3970   26.0330 C.3    88  TYR88       0.0534
     23  CG        42.9650   48.3000   25.1150 C.ar   88  TYR88      -0.0201
     24  CD1       42.1410   47.7700   24.1320 C.ar   88  TYR88      -0.0009
     25  CD2       43.0170   49.6830   25.2480 C.ar   88  TYR88      -0.0009
     26  CE1       41.4050   48.5900   23.3020 C.ar   88  TYR88       0.0417
     27  CE2       42.2800   50.5080   24.4200 C.ar   88  TYR88       0.0417
     28  CZ        41.4770   49.9540   23.4540 C.ar   88  TYR88       0.1957
     29  OH        40.7400   50.7690   22.6310 O.3    88  TYR88      -0.2866
     30  N         49.0230   55.3030   23.2970 N.3   116  ARG116     -0.1245
     31  CA        48.8700   55.2490   21.8490 C.3   116  ARG116      0.1563
     32  C         49.9580   55.9880   21.0720 C.2   116  ARG116      0.2260
     33  O         50.1650   55.7190   19.8900 O.2   116  ARG116     -0.2867
     34  CB        47.5080   55.8210   21.4580 C.3   116  ARG116      0.0307
     35  CG        46.3310   54.9690   21.8810 C.3   116  ARG116      0.0489
     36  CD        45.0330   55.6140   21.4300 C.3   116  ARG116      0.2205
     37  NE        43.8620   54.7740   21.6610 N.pl3 116  ARG116     -0.0865
     38  CZ        43.5710   53.6820   20.9600 C.cat 116  ARG116      0.5346
     39  NH1       44.3720   53.2620   19.9910 N.pl3 116  ARG116      0.1354
     40  NH2       42.4790   52.9910   21.2310 N.pl3 116  ARG116      0.1354
     41  N         49.1560   54.5510   17.4340 N.3   131  TYR131     -0.1241
     42  CA        48.1180   53.5500   17.2330 C.3   131  TYR131      0.1605
     43  C         46.7760   54.2370   17.4160 C.2   131  TYR131      0.2264
     44  O         46.3300   54.4620   18.5400 O.2   131  TYR131     -0.2867
     45  CB        48.2670   52.4060   18.2330 C.3   131  TYR131      0.0534
     46  CG        47.1130   51.4310   18.2060 C.ar  131  TYR131     -0.0201
     47  CD1       46.3580   51.1890   19.3440 C.ar  131  TYR131     -0.0009
     48  CD2       46.7680   50.7670   17.0380 C.ar  131  TYR131     -0.0009
     49  CE1       45.2960   50.3040   19.3230 C.ar  131  TYR131      0.0417
     50  CE2       45.7060   49.8790   17.0060 C.ar  131  TYR131      0.0417
     51  CZ        44.9740   49.6530   18.1540 C.ar  131  TYR131      0.1957
     52  OH        43.9100   48.7790   18.1420 O.3   131  TYR131     -0.2866
     53  N         40.3950   52.7140   17.2730 N.3   134  ASN134     -0.1240
     54  CA        39.4320   52.0740   16.3930 C.3   134  ASN134      0.1653
     55  C         38.0470   52.6480   16.6420 C.2   134  ASN134      0.2266
     56  O         37.6880   52.9380   17.7840 O.2   134  ASN134     -0.2867
     57  CB        39.4100   50.5680   16.6400 C.3   134  ASN134      0.1155
     58  CG        38.9830   49.7870   15.4180 C.2   134  ASN134      0.2627
     59  OD1       37.7980   49.7160   15.0880 O.2   134  ASN134     -0.2716
     60  ND2       39.9540   49.1900   14.7370 N.am  134  ASN134     -0.0877
     61  N         35.3800   50.9850   15.9740 N.3   136  GLY136     -0.1210
     62  CA        34.6520   49.8470   16.5130 C.3   136  GLY136      0.1956
     63  C         33.5890   49.2630   15.6010 C.2   136  GLY136      0.2611
     64  O         33.0790   49.9370   14.7080 O.2   136  GLY136     -0.2717
     65  N         33.2610   47.9930   15.8240 N.am  137  ARG137     -0.1979
     66  CA        32.1090   47.3800   15.1760 C.3   137  ARG137      0.1597
     67  C         30.8680   48.1300   15.6380 C.2   137  ARG137      0.2287
     68  O         30.7370   48.4560   16.8180 O.2   137  ARG137     -0.2864
     69  CB        31.9940   45.9050   15.5610 C.3   137  ARG137      0.0334
     70  CG        33.1230   45.0280   15.0520 C.3   137  ARG137      0.0492
     71  CD        32.9310   44.6410   13.6000 C.3   137  ARG137      0.2205
     72  NE        34.0930   43.9270   13.0800 N.pl3 137  ARG137     -0.0865
     73  CZ        34.3650   42.6480   13.3240 C.cat 137  ARG137      0.5346
     74  NH1       35.4520   42.0990   12.8030 N.pl3 137  ARG137      0.1354
     75  NH2       33.5630   41.9140   14.0870 N.pl3 137  ARG137      0.1354
     76  N         32.2770   53.7820   18.6700 N.3   141  ARG141     -0.1245
     77  CA        33.2660   54.7370   19.1550 C.3   141  ARG141      0.1563
     78  C         33.6470   55.7600   18.0890 C.2   141  ARG141      0.2260
     79  O         34.6810   56.4180   18.1960 O.2   141  ARG141     -0.2867
     80  CB        34.5190   54.0100   19.6500 C.3   141  ARG141      0.0307
     81  CG        35.1940   54.7440   20.7890 C.3   141  ARG141      0.0489
     82  CD        36.3610   53.9900   21.3900 C.3   141  ARG141      0.2205
     83  NE        36.8280   54.6820   22.5890 N.pl3 141  ARG141     -0.0865
     84  CZ        38.0810   54.6940   23.0330 C.cat 141  ARG141      0.5346
     85  NH1       39.0430   54.0480   22.3870 N.pl3 141  ARG141      0.1354
     86  NH2       38.3740   55.3680   24.1350 N.pl3 141  ARG141      0.1354
     87  N         44.7200   53.5370   11.2080 N.3   172  ASN172     -0.1240
     88  CA        43.3760   52.9710   11.1740 C.3   172  ASN172      0.1653
     89  C         42.4070   53.7050   10.2400 C.2   172  ASN172      0.2266
     90  O         41.2800   54.0340   10.6220 O.2   172  ASN172     -0.2867
     91  CB        42.7990   52.8950   12.5870 C.3   172  ASN172      0.1155
     92  CG        41.7800   51.7900   12.7260 C.2   172  ASN172      0.2627
     93  OD1       40.5830   52.0420   12.8550 O.2   172  ASN172     -0.2716
     94  ND2       42.2480   50.5500   12.6540 N.am  172  ASN172     -0.0877
     95  N         47.0340   45.2330    5.9970 N.3   226  PHE226     -0.1241
     96  CA        46.2010   44.5230    6.9630 C.3   226  PHE226      0.1605
     97  C         45.1940   43.5860    6.3050 C.2   226  PHE226      0.2264
     98  O         44.5550   43.9440    5.3190 O.2   226  PHE226     -0.2867
     99  CB        45.4430   45.5050    7.8550 C.3   226  PHE226      0.0534
    100  CG        44.2820   44.8790    8.5740 C.ar  226  PHE226     -0.0203
    101  CD1       44.4670   44.2370    9.7850 C.ar  226  PHE226     -0.0042
    102  CD2       43.0110   44.9120    8.0260 C.ar  226  PHE226     -0.0042
    103  CE1       43.4060   43.6510   10.4440 C.ar  226  PHE226     -0.0003
    104  CE2       41.9460   44.3280    8.6810 C.ar  226  PHE226     -0.0003
    105  CZ        42.1430   43.6970    9.8910 C.ar  226  PHE226     -0.0000
    106  N         40.1050   36.3840    9.8400 N.3   230  MET230     -0.1245
    107  CA        38.9060   35.6480    9.4550 C.3   230  MET230      0.1570
    108  C         38.8460   35.3610    7.9620 C.2   230  MET230      0.2261
    109  O         39.2990   36.1610    7.1420 O.2   230  MET230     -0.2867
    110  CB        37.6600   36.4330    9.8560 C.3   230  MET230      0.0387
    111  CG        37.4670   36.5660   11.3570 C.3   230  MET230      0.0595
    112  SD        35.9290   37.4010   11.7950 S.3   230  MET230     -0.1393
    113  CE        36.1830   39.0150   11.0630 C.3   230  MET230      0.0692
    114  N         48.1560   40.2240   12.0590 N.3   268  ASP268     -0.1225
    115  CA        47.2010   40.4770   10.9820 C.3   268  ASP268      0.1805
    116  C         47.5730   41.7410   10.2090 C.2   268  ASP268      0.2597
    117  O         46.9440   42.0700    9.2050 O.2   268  ASP268     -0.2718
    118  CB        45.7540   40.5420   11.4930 C.3   268  ASP268      0.1424
    119  CG        45.6090   41.3460   12.7700 C.2   268  ASP268      0.3668
    120  OD1       44.4940   41.3480   13.3370 O.co2 268  ASP268     -0.2456
    121  OD2       46.6000   41.9620   13.2150 O.co2 268  ASP268     -0.2456
    122  N         48.6000   42.4430   10.6790 N.am  269  HIS269     -0.1975
    123  CA        49.2450   43.4760    9.8800 C.3   269  HIS269      0.1656
    124  C         50.6140   42.9850    9.4580 C.2   269  HIS269      0.2291
    125  O         51.2290   42.1720   10.1480 O.2   269  HIS269     -0.2864
    126  CB        49.4520   44.7580   10.6790 C.3   269  HIS269      0.0771
    127  CG        48.1870   45.3980   11.1540 C.ar  269  HIS269      0.0820
    128  ND1       47.7350   46.5990   10.6570 N.ar  269  HIS269     -0.2267
    129  CD2       47.2950   45.0180   12.0980 C.ar  269  HIS269      0.1154
    130  CE1       46.6110   46.9290   11.2670 C.ar  269  HIS269      0.1986
    131  NE2       46.3210   45.9870   12.1460 N.ar  269  HIS269     -0.2212
@<TRIPOS>BOND
     1    98    97    2
     2    95    96    1
     3    97    96    1
     4    96    99    1
     5   109   108    2
     6    99   100    1
     7   108   107    1
     8   102   100   ar
     9   102   104   ar
    10   100   101   ar
    11   104   105   ar
    12   117   116    2
    13   107   106    1
    14   107   110    1
    15   124   123    1
    16   124   125    2
    17   101   103   ar
    18   110   111    1
    19   123   126    1
    20   123   122    1
    21   105   103   ar
    22   116   122   am
    23   116   115    1
    24    89    90    2
    25    89    88    1
    26   128   127   ar
    27   128   130   ar
    28   126   127    1
    29   115   118    1
    30   115   114    1
    31   113   112    1
    32   127   129   ar
    33    88    87    1
    34    88    91    1
    35   130   131   ar
    36   111   112    1
    37   118   119    1
    38   129   131   ar
    39    91    92    1
    40    94    92   am
    41    92    93    2
    42   119   121   ar
    43   119   120   ar
    44    74    73    1
    45    72    73    2
    46    72    71    1
    47    73    75    1
    48    71    70    1
    49    64    63    2
    50    60    58   am
    51    70    69    1
    52    59    58    2
    53    66    69    1
    54    66    67    1
    55    66    65    1
    56    58    57    1
    57    63    65   am
    58    63    62    1
    59    67    68    2
    60    61    62    1
    61    54    57    1
    62    54    55    1
    63    54    53    1
    64     5     6    1
    65     5     2    1
    66     8     6   ar
    67    55    56    2
    68    16    15   ar
    69     6     7   ar
    70    50    48   ar
    71    50    51   ar
    72    48    46   ar
    73     1     2    1
    74    42    43    1
    75    42    41    1
    76    42    45    1
    77    43    44    2
    78     2     3    1
    79    15    14    1
    80    15    17   ar
    81    78    79    2
    82    78    77    1
    83    52    51    1
    84    51    49   ar
    85    46    45    1
    86    46    47   ar
    87    14    13    1
    88    76    77    1
    89    13    10    1
    90     3     4    2
    91    77    80    1
    92    49    47   ar
    93     9    10    1
    94    80    81    1
    95    10    11    1
    96    33    32    2
    97    39    38    1
    98    12    11    2
    99    81    82    1
   100    38    40    1
   101    38    37    2
   102    32    31    1
   103    82    83    1
   104    36    37    1
   105    36    35    1
   106    34    31    1
   107    34    35    1
   108    31    30    1
   109    85    84    1
   110    83    84    2
   111    29    28    1
   112    84    86    1
   113    26    28   ar
   114    26    24   ar
   115    28    27   ar
   116    24    23   ar
   117    27    25   ar
   118    20    19    1
   119    20    21    2
   120    23    25   ar
   121    23    22    1
   122    19    22    1
   123    19    18    1
