@<TRIPOS>MOLECULE
tmp/4ieuA00.pdb
 126 122 0 0 0
SMALL
GASTEIGER

@<TRIPOS>ATOM
      1  N        -10.1590   -1.3220  -59.1150 N.3    54  TYR54      -0.1241
      2  CA       -10.3150   -0.1490  -58.2780 C.3    54  TYR54       0.1605
      3  C         -9.3260   -0.1970  -57.1290 C.2    54  TYR54       0.2264
      4  O         -8.9380   -1.2700  -56.6890 O.2    54  TYR54      -0.2867
      5  CB       -11.7540    0.0050  -57.7940 C.3    54  TYR54       0.0534
      6  CG       -12.2140   -0.8370  -56.6420 C.ar   54  TYR54      -0.0201
      7  CD1      -12.1450   -0.3600  -55.3270 C.ar   54  TYR54      -0.0009
      8  CD2      -12.8210   -2.0570  -56.8550 C.ar   54  TYR54      -0.0009
      9  CE1      -12.6160   -1.1040  -54.2620 C.ar   54  TYR54       0.0417
     10  CE2      -13.3120   -2.8140  -55.7840 C.ar   54  TYR54       0.0417
     11  CZ       -13.2020   -2.3330  -54.4920 C.ar   54  TYR54       0.1957
     12  OH       -13.6840   -3.0790  -53.4220 O.3    54  TYR54      -0.2866
     13  N         -7.9800    1.4110  -53.1760 N.3    56  ARG56      -0.1245
     14  CA        -8.4040    1.9120  -51.8820 C.3    56  ARG56       0.1563
     15  C         -7.2710    2.7000  -51.2550 C.2    56  ARG56       0.2260
     16  O         -6.1960    2.1670  -51.0100 O.2    56  ARG56      -0.2867
     17  CB        -8.7800    0.7610  -50.9640 C.3    56  ARG56       0.0307
     18  CG        -9.8530   -0.1090  -51.5620 C.3    56  ARG56       0.0489
     19  CD       -10.1910   -1.3370  -50.7760 C.3    56  ARG56       0.2205
     20  NE       -11.1590   -1.0930  -49.7200 N.pl3  56  ARG56      -0.0865
     21  CZ       -10.8750   -1.0490  -48.4270 C.cat  56  ARG56       0.5346
     22  NH1       -9.6310   -1.2080  -47.9990 N.pl3  56  ARG56       0.1354
     23  NH2      -11.8540   -0.8550  -47.5510 N.pl3  56  ARG56       0.1354
     24  N        -11.6360    5.7440  -52.8990 N.3    71  LEU71      -0.1245
     25  CA       -11.6100    4.6640  -53.8570 C.3    71  LEU71       0.1561
     26  C        -11.6450    5.2290  -55.2870 C.2    71  LEU71       0.2260
     27  O        -12.3870    6.1440  -55.6070 O.2    71  LEU71      -0.2867
     28  CB       -12.7650    3.7040  -53.6180 C.3    71  LEU71       0.0270
     29  CG       -12.5010    2.6200  -52.5680 C.3    71  LEU71       0.0019
     30  CD1      -12.1160    3.1580  -51.2010 C.3    71  LEU71       0.0001
     31  CD2      -13.6860    1.7020  -52.4360 C.3    71  LEU71       0.0001
     32  N        -11.9810    4.2930  -59.2580 N.3    73  TRP73      -0.1241
     33  CA       -12.5800    3.3000  -60.1550 C.3    73  TRP73       0.1605
     34  C        -12.3410    3.6590  -61.6130 C.2    73  TRP73       0.2264
     35  O        -12.9120    4.6220  -62.1160 O.2    73  TRP73      -0.2867
     36  CB       -14.1030    3.2770  -59.9410 C.3    73  TRP73       0.0550
     37  CG       -14.5570    3.2430  -58.4940 C.ar   73  TRP73       0.0003
     38  CD1      -14.6070    4.2990  -57.6380 C.ar   73  TRP73       0.0946
     39  CD2      -15.0650    2.1220  -57.7650 C.ar   73  TRP73       0.0152
     40  NE1      -15.1110    3.9190  -56.4280 N.ar   73  TRP73      -0.2442
     41  CE2      -15.3890    2.5810  -56.4710 C.ar   73  TRP73       0.0810
     42  CE3      -15.2770    0.7800  -58.0720 C.ar   73  TRP73       0.0012
     43  CZ2      -15.8900    1.7420  -55.4800 C.ar   73  TRP73       0.0191
     44  CZ3      -15.7930   -0.0400  -57.0900 C.ar   73  TRP73       0.0001
     45  CH2      -16.0940    0.4410  -55.8110 C.ar   73  TRP73       0.0015
     46  N        -20.6160   -7.8440  -51.7730 N.3    82  HIS82      -0.1241
     47  CA       -19.9430   -7.9690  -50.4930 C.3    82  HIS82       0.1621
     48  C        -20.7190   -7.3550  -49.3400 C.2    82  HIS82       0.2264
     49  O        -21.6840   -6.6040  -49.5330 O.2    82  HIS82      -0.2867
     50  CB       -18.5700   -7.3080  -50.5790 C.3    82  HIS82       0.0745
     51  CG       -18.6340   -5.8470  -50.9050 C.ar   82  HIS82       0.0817
     52  ND1      -18.6500   -5.3650  -52.1980 N.ar   82  HIS82      -0.2268
     53  CD2      -18.7170   -4.7610  -50.1050 C.ar   82  HIS82       0.1154
     54  CE1      -18.7400   -4.0470  -52.1790 C.ar   82  HIS82       0.1986
     55  NE2      -18.7760   -3.6530  -50.9190 N.ar   82  HIS82      -0.2212
     56  N        -20.0640   -5.7010  -45.0990 N.3    84  HIS84      -0.1241
     57  CA       -19.2780   -4.6350  -44.4660 C.3    84  HIS84       0.1621
     58  C        -18.9850   -4.9240  -42.9950 C.2    84  HIS84       0.2264
     59  O        -18.7720   -4.0050  -42.2000 O.2    84  HIS84      -0.2867
     60  CB       -19.9520   -3.2710  -44.6740 C.3    84  HIS84       0.0745
     61  CG       -20.1090   -2.9290  -46.1230 C.ar   84  HIS84       0.0817
     62  ND1      -21.1720   -3.3760  -46.8790 N.ar   84  HIS84      -0.2268
     63  CD2      -19.3050   -2.2460  -46.9720 C.ar   84  HIS84       0.1154
     64  CE1      -21.0180   -2.9740  -48.1260 C.ar   84  HIS84       0.1986
     65  NE2      -19.8890   -2.2900  -48.2100 N.ar   84  HIS84      -0.2212
     66  N        -21.0340    1.9710  -43.1830 N.3    89  CYS89      -0.1235
     67  CA       -20.2560    2.2740  -44.3770 C.3    89  CYS89       0.1672
     68  C        -20.9590    3.3510  -45.1930 C.2    89  CYS89       0.2270
     69  O        -22.0450    3.1540  -45.7070 O.2    89  CYS89      -0.2867
     70  CB       -20.0150    0.9870  -45.1920 C.3    89  CYS89       0.0892
     71  SG       -18.9600    1.2040  -46.6380 S.3    89  CYS89      -0.1085
     72  N        -20.6160    6.1000  -48.4040 N.3    91  LEU91      -0.1245
     73  CA       -19.9560    6.2860  -49.6810 C.3    91  LEU91       0.1561
     74  C        -20.4130    7.6020  -50.3000 C.2    91  LEU91       0.2260
     75  O        -21.5670    7.7630  -50.5910 O.2    91  LEU91      -0.2867
     76  CB       -20.2610    5.0700  -50.5840 C.3    91  LEU91       0.0270
     77  CG       -19.7570    4.9750  -52.0270 C.3    91  LEU91       0.0019
     78  CD1      -20.2740    3.6800  -52.6240 C.3    91  LEU91       0.0001
     79  CD2      -20.1900    6.1320  -52.8970 C.3    91  LEU91       0.0001
     80  N        -24.0970   -5.3980  -51.1690 N.3   136  HIS136     -0.1241
     81  CA       -24.1370   -4.6410  -52.4100 C.3   136  HIS136      0.1621
     82  C        -22.9640   -4.9060  -53.3170 C.2   136  HIS136      0.2264
     83  O        -21.9720   -5.5090  -52.9200 O.2   136  HIS136     -0.2867
     84  CB       -24.3290   -3.1290  -52.1590 C.3   136  HIS136      0.0745
     85  CG       -23.1060   -2.3940  -51.6870 C.ar  136  HIS136      0.0817
     86  ND1      -23.1230   -1.0380  -51.4490 N.ar  136  HIS136     -0.2268
     87  CD2      -21.8580   -2.8120  -51.3730 C.ar  136  HIS136      0.1154
     88  CE1      -21.9290   -0.6480  -51.0230 C.ar  136  HIS136      0.1986
     89  NE2      -21.1370   -1.7050  -50.9800 N.ar  136  HIS136     -0.2212
     90  N        -20.8140   -2.4170  -56.1520 N.3   138  VAL138     -0.1245
     91  CA       -20.6400   -1.0560  -56.6270 C.3   138  VAL138      0.1561
     92  C        -19.7680   -1.0980  -57.8760 C.2   138  VAL138      0.2260
     93  O        -18.7680   -1.7790  -57.8930 O.2   138  VAL138     -0.2867
     94  CB       -20.0300   -0.1780  -55.5370 C.3   138  VAL138      0.0252
     95  CG1      -19.7050    1.1810  -56.0690 C.3   138  VAL138      0.0019
     96  CG2      -20.9900   -0.0740  -54.3470 C.3   138  VAL138      0.0019
     97  N        -15.1120    7.0160  -48.7940 N.3   151  HIS151     -0.1241
     98  CA       -15.7610    6.0070  -47.9710 C.3   151  HIS151      0.1621
     99  C        -15.3360    6.1650  -46.5260 C.2   151  HIS151      0.2264
    100  O        -14.1590    6.3980  -46.2420 O.2   151  HIS151     -0.2867
    101  CB       -15.3740    4.6050  -48.4630 C.3   151  HIS151      0.0745
    102  CG       -15.8330    4.3100  -49.8530 C.ar  151  HIS151      0.0817
    103  ND1      -16.6930    3.2720  -50.1540 N.ar  151  HIS151     -0.2268
    104  CD2      -15.5570    4.9160  -51.0270 C.ar  151  HIS151      0.1154
    105  CE1      -16.9160    3.2530  -51.4550 C.ar  151  HIS151      0.1986
    106  NE2      -16.2590    4.2550  -52.0040 N.ar  151  HIS151     -0.2212
    107  N        -15.8080    4.1070  -42.8320 N.3   153  TYR153     -0.1241
    108  CA       -16.2330    2.8930  -42.1640 C.3   153  TYR153      0.1605
    109  C        -16.0010    2.9980  -40.6700 C.2   153  TYR153      0.2264
    110  O        -14.9550    3.4400  -40.2340 O.2   153  TYR153     -0.2867
    111  CB       -15.4690    1.6900  -42.7200 C.3   153  TYR153      0.0534
    112  CG       -15.7330    1.5130  -44.1850 C.ar  153  TYR153     -0.0196
    113  CD1      -14.6970    1.5460  -45.1130 C.ar  153  TYR153     -0.0009
    114  CD2      -17.0440    1.3640  -44.6500 C.ar  153  TYR153      0.0052
    115  CE1      -14.9500    1.4160  -46.4570 C.ar  153  TYR153      0.0422
    116  CE2      -17.2920    1.2470  -45.9760 C.ar  153  TYR153      0.0639
    117  CZ       -16.2370    1.2590  -46.8740 C.ar  153  TYR153      0.2013
    118  OH       -16.5540    1.1330  -48.1830 O.3   153  TYR153     -0.2860
    119  N         -8.8070   -7.0330  -47.2970 N.3   175  MET175     -0.1245
    120  CA        -8.7350   -5.7910  -48.0330 C.3   175  MET175      0.1570
    121  C         -7.3790   -5.1630  -47.7970 C.2   175  MET175      0.2261
    122  O         -6.8020   -5.2870  -46.7090 O.2   175  MET175     -0.2867
    123  CB        -9.8440   -4.8590  -47.5550 C.3   175  MET175      0.0387
    124  CG       -11.2440   -5.4570  -47.7410 C.3   175  MET175      0.0595
    125  SD       -12.5250   -4.7410  -46.6900 S.3   175  MET175     -0.1393
    126  CE       -13.5630   -4.0030  -47.9550 C.3   175  MET175      0.0692
@<TRIPOS>BOND
     1    35    34    2
     2    34    33    1
     3    33    36    1
     4    33    32    1
     5    36    37    1
     6     1     2    1
     7    37    39   ar
     8    37    38   ar
     9     2     5    1
    10     2     3    1
    11    42    39   ar
    12    42    44   ar
    13    93    92    2
    14    92    91    1
    15     5     6    1
    16    39    41   ar
    17    38    40   ar
    18     3     4    2
    19    44    45   ar
    20     8     6   ar
    21     8    10   ar
    22     6     7   ar
    23    91    90    1
    24    91    94    1
    25    41    40   ar
    26    41    43   ar
    27    95    94    1
    28    45    43   ar
    29    10    11   ar
    30    27    26    2
    31    94    96    1
    32     7     9   ar
    33    26    25    1
    34    11     9   ar
    35    11    12    1
    36    25    28    1
    37    25    24    1
    38    28    29    1
    39    82    83    2
    40    82    81    1
    41    13    14    1
    42    79    77    1
    43    78    77    1
    44    29    31    1
    45    29    30    1
    46    81    84    1
    47    81    80    1
    48    52    54   ar
    49    52    51   ar
    50    54    55   ar
    51    84    85    1
    52    77    76    1
    53   106   105   ar
    54   106   104   ar
    55    14    15    1
    56    14    17    1
    57    46    47    1
    58    85    86   ar
    59    85    87   ar
    60    18    17    1
    61    18    19    1
    62   105   103   ar
    63    86    88   ar
    64    87    89   ar
    65    15    16    2
    66   104   102   ar
    67    88    89   ar
    68    55    53   ar
    69    51    50    1
    70    51    53   ar
    71    19    20    1
    72    75    74    2
    73    76    73    1
    74    50    47    1
    75    47    48    1
    76    74    73    1
    77   103   102   ar
    78   102   101    1
    79    20    21    2
    80    73    72    1
    81    49    48    2
    82    97    98    1
    83   101    98    1
    84    21    22    1
    85    21    23    1
    86    65    64   ar
    87    65    63   ar
    88   118   117    1
    89    64    62   ar
    90   120   121    1
    91   120   123    1
    92   120   119    1
    93    98    99    1
    94   126   125    1
    95   121   122    2
    96   124   123    1
    97   124   125    1
    98    63    61   ar
    99    62    61   ar
   100   117   115   ar
   101   117   116   ar
   102    71   116    1
   103    71    70    1
   104    99   100    2
   105   115   113   ar
   106    61    60    1
   107   116   114   ar
   108    69    68    2
   109    68    67    1
   110    70    67    1
   111   113   112   ar
   112    56    57    1
   113    60    57    1
   114   114   112   ar
   115    57    58    1
   116    67    66    1
   117   112   111    1
   118    58    59    2
   119   107   108    1
   120   111   108    1
   121   108   109    1
   122   109   110    2
