@<TRIPOS>MOLECULE
tmp/4if6A00.pdb
 224 217 0 0 0
SMALL
GASTEIGER

@<TRIPOS>ATOM
      1  N         34.6470  -17.6650    4.0490 N.3    29  GLY29      -0.1210
      2  CA        33.3890  -17.6110    4.7640 C.3    29  GLY29       0.1956
      3  C         32.8990  -16.1790    4.8670 C.2    29  GLY29       0.2612
      4  O         33.4280  -15.2860    4.2080 O.2    29  GLY29      -0.2717
      5  N         31.8980  -15.9630    5.7130 N.am   30  ALA30      -0.1965
      6  CA        31.2280  -14.6700    5.8160 C.3    30  ALA30       0.1728
      7  C         32.1810  -13.5390    6.1930 C.2    30  ALA30       0.2616
      8  O         31.8880  -12.3660    5.9660 O.2    30  ALA30      -0.2715
      9  CB        30.0940  -14.7610    6.8180 C.3    30  ALA30       0.0334
     10  N         33.3290  -13.8940    6.7530 N.am   31  GLY31      -0.1955
     11  CA        34.3050  -12.9080    7.1750 C.3    31  GLY31       0.1869
     12  C         34.8090  -12.0020    6.0680 C.2    31  GLY31       0.2309
     13  O         35.1110  -10.8370    6.3120 O.2    31  GLY31      -0.2863
     14  N         32.3940   -8.8220    5.5270 N.3    34  VAL34      -0.1231
     15  CA        31.9770   -7.9130    6.5890 C.3    34  VAL34       0.1692
     16  C         32.4620   -6.4940    6.2970 C.2    34  VAL34       0.2592
     17  O         31.7580   -5.5260    6.5760 O.2    34  VAL34      -0.2718
     18  CB        32.4500   -8.3720    7.9890 C.3    34  VAL34       0.0266
     19  CG1       31.8940   -9.7510    8.3160 C.3    34  VAL34       0.0020
     20  CG2       33.9550   -8.3680    8.0790 C.3    34  VAL34       0.0020
     21  N         33.6510   -6.3730    5.7140 N.am   35  SER35      -0.1952
     22  CA        34.1810   -5.0670    5.3470 C.3    35  SER35       0.1924
     23  C         33.3590   -4.4350    4.2260 C.2    35  SER35       0.2314
     24  O         33.4220   -3.2260    4.0120 O.2    35  SER35      -0.2863
     25  CB        35.6270   -5.1960    4.8780 C.3    35  SER35       0.2116
     26  OG        35.6700   -5.7780    3.5840 O.3    35  SER35      -0.2180
     27  N         28.5470  -11.1470    9.4740 N.3    40  ASP40      -0.1225
     28  CA        28.7390  -12.5940    9.4430 C.3    40  ASP40       0.1805
     29  C         27.5990  -13.2770   10.1900 C.2    40  ASP40       0.2598
     30  O         26.5900  -12.6440   10.4930 O.2    40  ASP40      -0.2718
     31  CB        30.1130  -12.9900   10.0070 C.3    40  ASP40       0.1424
     32  CG        30.2550  -12.7020   11.4930 C.2    40  ASP40       0.3668
     33  OD1       29.2340  -12.7150   12.2120 O.co2  40  ASP40      -0.2456
     34  OD2       31.3990  -12.4770   11.9440 O.co2  40  ASP40      -0.2456
     35  N         27.7460  -14.5670   10.4700 N.am   41  PHE41      -0.1962
     36  CA        26.6700  -15.3240   11.1000 C.3    41  PHE41       0.1771
     37  C         26.7890  -15.4110   12.6240 C.2    41  PHE41       0.2619
     38  O         25.7840  -15.3290   13.3270 O.2    41  PHE41      -0.2715
     39  CB        26.6070  -16.7400   10.5180 C.3    41  PHE41       0.0574
     40  CG        25.9820  -16.8110    9.1530 C.ar   41  PHE41      -0.0200
     41  CD1       26.7550  -16.6590    8.0130 C.ar   41  PHE41      -0.0042
     42  CD2       24.6220  -17.0410    9.0090 C.ar   41  PHE41      -0.0042
     43  CE1       26.1830  -16.7290    6.7570 C.ar   41  PHE41      -0.0003
     44  CE2       24.0450  -17.1090    7.7590 C.ar   41  PHE41      -0.0003
     45  CZ        24.8270  -16.9530    6.6290 C.ar   41  PHE41      -0.0000
     46  N         28.0050  -15.5780   13.1360 N.am   42  ARG42      -0.1963
     47  CA        28.1690  -15.9940   14.5280 C.3    42  ARG42       0.1729
     48  C         28.8300  -14.9800   15.4710 C.2    42  ARG42       0.2616
     49  O         29.0850  -15.2960   16.6320 O.2    42  ARG42      -0.2715
     50  CB        28.9300  -17.3230   14.5830 C.3    42  ARG42       0.0348
     51  CG        28.1370  -18.4890   14.0160 C.3    42  ARG42       0.0492
     52  CD        28.8960  -19.8090   14.0900 C.3    42  ARG42       0.2205
     53  NE        28.0620  -20.9050   13.6090 N.pl3  42  ARG42      -0.0865
     54  CZ        27.8350  -21.1720   12.3250 C.cat  42  ARG42       0.5346
     55  NH1       28.3930  -20.4360   11.3710 N.pl3  42  ARG42       0.1354
     56  NH2       27.0470  -22.1830   11.9910 N.pl3  42  ARG42       0.1354
     57  N         29.1130  -13.7800   14.9780 N.am   43  SER43      -0.1950
     58  CA        29.7050  -12.7430   15.8180 C.3    43  SER43       0.1924
     59  C         28.6200  -11.9870   16.5770 C.2    43  SER43       0.2314
     60  O         27.4310  -12.1470   16.3000 O.2    43  SER43      -0.2863
     61  CB        30.5370  -11.7690   14.9820 C.3    43  SER43       0.2116
     62  OG        31.7370  -12.3750   14.5370 O.3    43  SER43      -0.2180
     63  N         22.9070  -14.5160   13.3590 N.3    48  TYR48      -0.1241
     64  CA        22.2420  -15.3480   14.3540 C.3    48  TYR48       0.1605
     65  C         21.8490  -14.5500   15.5970 C.2    48  TYR48       0.2264
     66  O         20.7940  -14.7930   16.1880 O.2    48  TYR48      -0.2867
     67  CB        23.1120  -16.5510   14.7330 C.3    48  TYR48       0.0534
     68  CG        23.1180  -17.6480   13.6910 C.ar   48  TYR48      -0.0201
     69  CD1       21.9640  -17.9710   12.9900 C.ar   48  TYR48      -0.0009
     70  CD2       24.2780  -18.3540   13.4000 C.ar   48  TYR48      -0.0009
     71  CE1       21.9630  -18.9640   12.0360 C.ar   48  TYR48       0.0417
     72  CE2       24.2850  -19.3540   12.4380 C.ar   48  TYR48       0.0417
     73  CZ        23.1230  -19.6520   11.7610 C.ar   48  TYR48       0.1957
     74  OH        23.1050  -20.6400   10.8050 O.3    48  TYR48      -0.2866
     75  N         17.4070  -21.5090    9.0230 N.3    65  PHE65      -0.1241
     76  CA        18.0610  -22.1390    7.8810 C.3    65  PHE65       0.1605
     77  C         18.1210  -23.6440    8.0640 C.2    65  PHE65       0.2264
     78  O         19.0970  -24.2840    7.6760 O.2    65  PHE65      -0.2867
     79  CB        19.4820  -21.6090    7.7170 C.3    65  PHE65       0.0534
     80  CG        19.5640  -20.1200    7.6280 C.ar   65  PHE65      -0.0203
     81  CD1       19.1010  -19.4540    6.5070 C.ar   65  PHE65      -0.0042
     82  CD2       20.1100  -19.3840    8.6640 C.ar   65  PHE65      -0.0042
     83  CE1       19.1780  -18.0760    6.4250 C.ar   65  PHE65      -0.0003
     84  CE2       20.1910  -18.0080    8.5880 C.ar   65  PHE65      -0.0003
     85  CZ        19.7250  -17.3530    7.4680 C.ar   65  PHE65      -0.0000
     86  N         31.4520  -20.1590    1.1050 N.3   113  GLN113     -0.1231
     87  CA        30.2450  -20.5620    1.8020 C.3   113  GLN113      0.1698
     88  C         29.2090  -19.4510    1.7370 C.2   113  GLN113      0.2592
     89  O         28.0890  -19.6060    2.2190 O.2   113  GLN113     -0.2718
     90  CB        30.5660  -20.8920    3.2510 C.3   113  GLN113      0.0381
     91  CG        31.6020  -21.9820    3.4080 C.3   113  GLN113      0.0905
     92  CD        32.1030  -22.0990    4.8360 C.2   113  GLN113      0.2608
     93  OE1       31.4320  -22.6650    5.6960 O.2   113  GLN113     -0.2717
     94  NE2       33.2850  -21.5510    5.0960 N.am  113  GLN113     -0.0878
     95  N         29.5910  -18.3320    1.1300 N.am  114  ASN114     -0.1974
     96  CA        28.7350  -17.1560    1.0730 C.3   114  ASN114      0.1688
     97  C         27.7320  -17.2210   -0.0680 C.2   114  ASN114      0.2292
     98  O         27.9430  -17.9260   -1.0530 O.2   114  ASN114     -0.2864
     99  CB        29.5930  -15.9010    0.9300 C.3   114  ASN114      0.1181
    100  CG        30.6290  -15.7840    2.0310 C.2   114  ASN114      0.2629
    101  OD1       30.4530  -16.3280    3.1200 O.2   114  ASN114     -0.2716
    102  ND2       31.7130  -15.0760    1.7520 N.am  114  ASN114     -0.0877
    103  N         27.4110  -23.4230   -0.5610 N.3   131  HIS131     -0.1241
    104  CA        26.1330  -23.3590    0.1330 C.3   131  HIS131      0.1621
    105  C         25.0380  -22.7680   -0.7430 C.2   131  HIS131      0.2264
    106  O         24.0850  -22.1660   -0.2460 O.2   131  HIS131     -0.2867
    107  CB        26.2850  -22.5570    1.4270 C.3   131  HIS131      0.0745
    108  CG        27.1420  -23.2320    2.4560 C.ar  131  HIS131      0.0817
    109  ND1       27.4880  -22.6290    3.6460 N.ar  131  HIS131     -0.2268
    110  CD2       27.7110  -24.4600    2.4780 C.ar  131  HIS131      0.1154
    111  CE1       28.2410  -23.4540    4.3530 C.ar  131  HIS131      0.1986
    112  NE2       28.3900  -24.5730    3.6680 N.ar  131  HIS131     -0.2212
    113  N         21.6530  -23.7800    0.6330 N.3   180  VAL180     -0.1245
    114  CA        21.7350  -25.0220    1.3880 C.3   180  VAL180      0.1561
    115  C         21.3560  -24.8000    2.8530 C.2   180  VAL180      0.2260
    116  O         21.9730  -23.9980    3.5490 O.2   180  VAL180     -0.2867
    117  CB        23.1370  -25.6430    1.2990 C.3   180  VAL180      0.0252
    118  CG1       23.1660  -26.9760    2.0290 C.3   180  VAL180      0.0019
    119  CG2       23.5420  -25.8220   -0.1670 C.3   180  VAL180      0.0019
    120  N         20.5870  -26.5110    6.7820 N.3   182  PHE182     -0.1241
    121  CA        21.0110  -27.6240    7.6160 C.3   182  PHE182      0.1605
    122  C         20.1240  -28.8210    7.3040 C.2   182  PHE182      0.2264
    123  O         18.9060  -28.6850    7.1950 O.2   182  PHE182     -0.2867
    124  CB        20.8910  -27.2630    9.0940 C.3   182  PHE182      0.0534
    125  CG        21.8360  -26.1890    9.5330 C.ar  182  PHE182     -0.0203
    126  CD1       23.1860  -26.4590    9.6890 C.ar  182  PHE182     -0.0042
    127  CD2       21.3750  -24.9120    9.8090 C.ar  182  PHE182     -0.0042
    128  CE1       24.0630  -25.4730   10.1010 C.ar  182  PHE182     -0.0003
    129  CE2       22.2470  -23.9220   10.2250 C.ar  182  PHE182     -0.0003
    130  CZ        23.5940  -24.2050   10.3700 C.ar  182  PHE182     -0.0000
    131  N         38.3180  -15.8940    6.8180 N.3   208  GLY208     -0.1210
    132  CA        37.0390  -15.3900    7.2860 C.3   208  GLY208      0.1956
    133  C         35.9670  -16.4440    7.4830 C.2   208  GLY208      0.2613
    134  O         34.8010  -16.2120    7.1660 O.2   208  GLY208     -0.2717
    135  N         36.3570  -17.6010    8.0070 N.am  209  SER209     -0.1938
    136  CA        35.3950  -18.6380    8.3640 C.3   209  SER209      0.2055
    137  C         35.7210  -19.2520    9.7270 C.2   209  SER209      0.2644
    138  O         36.8870  -19.3930   10.0940 O.2   209  SER209     -0.2714
    139  CB        35.3590  -19.7380    7.3050 C.3   209  SER209      0.2130
    140  OG        34.4030  -20.7340    7.6460 O.3   209  SER209     -0.2179
    141  N         34.6790  -19.6150   10.4700 N.am  210  SER210     -0.1935
    142  CA        34.8450  -20.3040   11.7480 C.3   210  SER210      0.2055
    143  C         35.0010  -21.8070   11.5480 C.2   210  SER210      0.2643
    144  O         35.3640  -22.5290   12.4780 O.2   210  SER210     -0.2714
    145  CB        33.6420  -20.0350   12.6480 C.3   210  SER210      0.2130
    146  OG        32.4390  -20.4130   11.9970 O.3   210  SER210     -0.2179
    147  N         34.7370  -22.2720   10.3290 N.am  211  LEU211     -0.1963
    148  CA        34.7800  -23.6970   10.0200 C.3   211  LEU211      0.1728
    149  C         34.0500  -24.5310   11.0850 C.2   211  LEU211      0.2616
    150  O         34.5720  -25.5210   11.5950 O.2   211  LEU211     -0.2715
    151  CB        36.2320  -24.1530    9.8640 C.3   211  LEU211      0.0311
    152  CG        36.8200  -24.2640    8.4480 C.3   211  LEU211      0.0022
    153  CD1       36.1130  -23.3980    7.4090 C.3   211  LEU211      0.0001
    154  CD2       38.3010  -23.9290    8.4890 C.3   211  LEU211      0.0001
    155  N         32.8310  -24.1170   11.4080 N.am  212  LYS212     -0.1963
    156  CA        31.9990  -24.8410   12.3630 C.3   212  LYS212      0.1728
    157  C         30.9490  -25.7140   11.6720 C.2   212  LYS212      0.2616
    158  O         30.2200  -26.4540   12.3300 O.2   212  LYS212     -0.2715
    159  CB        31.3070  -23.8540   13.3040 C.3   212  LYS212      0.0311
    160  CG        32.2510  -23.1980   14.2970 C.3   212  LYS212      0.0038
    161  CD        31.4980  -22.3540   15.3110 C.3   212  LYS212      0.0206
    162  CE        32.4430  -21.6870   16.3020 C.3   212  LYS212      0.1093
    163  NZ        33.2650  -22.6770   17.0500 N.3   212  LYS212     -0.1314
    164  N         30.8950  -25.6400   10.3460 N.am  213  VAL213     -0.1977
    165  CA        29.8780  -26.3490    9.5790 C.3   213  VAL213      0.1596
    166  C         30.5080  -27.3210    8.5850 C.2   213  VAL213      0.2287
    167  O         31.3570  -26.9360    7.7800 O.2   213  VAL213     -0.2864
    168  CB        28.9950  -25.3580    8.8000 C.3   213  VAL213      0.0276
    169  CG1       27.9080  -26.0930    8.0370 C.3   213  VAL213      0.0022
    170  CG2       28.3860  -24.3340    9.7440 C.3   213  VAL213      0.0022
    171  N         42.1400  -14.8380    9.6730 N.3   233  ASN233     -0.1225
    172  CA        40.8660  -14.7920   10.3670 C.3   233  ASN233      0.1785
    173  C         40.9620  -13.9880   11.6630 C.2   233  ASN233      0.2597
    174  O         42.0290  -13.8950   12.2550 O.2   233  ASN233     -0.2718
    175  CB        40.4320  -16.2210   10.6760 C.3   233  ASN233      0.1169
    176  CG        38.9350  -16.3670   10.7840 C.2   233  ASN233      0.2627
    177  OD1       38.1890  -15.8960    9.9280 O.2   233  ASN233     -0.2716
    178  ND2       38.4830  -17.0080   11.8500 N.am  233  ASN233     -0.0877
    179  N         39.8490  -13.4110   12.1050 N.am  234  ARG234     -0.1966
    180  CA        39.8490  -12.6020   13.3200 C.3   234  ARG234      0.1729
    181  C         40.0930  -13.4650   14.5560 C.2   234  ARG234      0.2616
    182  O         40.6450  -12.9970   15.5460 O.2   234  ARG234     -0.2715
    183  CB        38.5250  -11.8540   13.4730 C.3   234  ARG234      0.0348
    184  CG        38.4670  -10.5480   12.7120 C.3   234  ARG234      0.0492
    185  CD        37.1330   -9.8570   12.9270 C.3   234  ARG234      0.2205
    186  NE        37.0740   -8.5670   12.2430 N.pl3 234  ARG234     -0.0865
    187  CZ        35.9790   -7.8210   12.1400 C.cat 234  ARG234      0.5346
    188  NH1       34.8320   -8.2310   12.6720 N.pl3 234  ARG234      0.1354
    189  NH2       36.0280   -6.6620   11.4990 N.pl3 234  ARG234      0.1354
    190  N         39.6880  -14.7270   14.4880 N.am  235  GLU235     -0.1977
    191  CA        39.8260  -15.6290   15.6230 C.3   235  GLU235      0.1602
    192  C         40.5280  -16.9190   15.2190 C.2   235  GLU235      0.2287
    193  O         40.3940  -17.3830   14.0850 O.2   235  GLU235     -0.2864
    194  CB        38.4520  -15.9360   16.2260 C.3   235  GLU235      0.0415
    195  CG        37.4870  -16.5980   15.2600 C.3   235  GLU235      0.1163
    196  CD        36.0320  -16.4970   15.6970 C.2   235  GLU235      0.3649
    197  OE1       35.6800  -15.5200   16.3890 O.co2 235  GLU235     -0.2457
    198  OE2       35.2380  -17.3960   15.3410 O.co2 235  GLU235     -0.2457
    199  N         43.3160  -11.2660   12.5370 N.3   248  GLY248     -0.1210
    200  CA        42.9030   -9.8800   12.4210 C.3   248  GLY248      0.1956
    201  C         41.9910   -9.7000   11.2230 C.2   248  GLY248      0.2612
    202  O         41.5400  -10.6800   10.6340 O.2   248  GLY248     -0.2717
    203  N         41.7050   -8.4530   10.8640 N.am  249  ASP249     -0.1959
    204  CA        40.9010   -8.1770    9.6760 C.3   249  ASP249      0.1840
    205  C         41.6130   -8.6940    8.4420 C.2   249  ASP249      0.2622
    206  O         42.7980   -8.4320    8.2430 O.2   249  ASP249     -0.2715
    207  CB        40.6420   -6.6790    9.5180 C.3   249  ASP249      0.1450
    208  CG        39.7510   -6.1200   10.6120 C.2   249  ASP249      0.3671
    209  OD1       38.9970   -6.9020   11.2320 O.co2 249  ASP249     -0.2456
    210  OD2       39.8010   -4.8930   10.8520 O.co2 249  ASP249     -0.2456
    211  N         40.8880   -9.4180    7.6000 N.am  250  CYS250     -0.1954
    212  CA        41.5150  -10.0450    6.4460 C.3   250  CYS250      0.1843
    213  C         41.9850   -9.0000    5.4390 C.2   250  CYS250      0.2625
    214  O         43.0100   -9.1900    4.7860 O.2   250  CYS250     -0.2714
    215  CB        40.5820  -11.0670    5.7930 C.3   250  CYS250      0.0997
    216  SG        38.9620  -10.4460    5.3160 S.3   250  CYS250     -0.0797
    217  N         41.2700   -7.8850    5.3270 N.am  251  ASP251     -0.1971
    218  CA        41.6850   -6.8430    4.3870 C.3   251  ASP251      0.1709
    219  C         42.9930   -6.2010    4.8370 C.2   251  ASP251      0.2293
    220  O         43.8450   -5.8730    4.0130 O.2   251  ASP251     -0.2864
    221  CB        40.5990   -5.7780    4.2200 C.3   251  ASP251      0.1436
    222  CG        39.4350   -6.2530    3.3620 C.2   251  ASP251      0.3671
    223  OD1       39.6080   -7.2130    2.5740 O.co2 251  ASP251     -0.2456
    224  OD2       38.3440   -5.6580    3.4730 O.co2 251  ASP251     -0.2456
@<TRIPOS>BOND
     1    98    97    2
     2   105   106    2
     3   105   104    1
     4   103   104    1
     5   119   117    1
     6    97    96    1
     7   104   107    1
     8   113   114    1
     9    99    96    1
    10    99   100    1
    11    96    95    1
    12    86    87    1
    13    95    88   am
    14   117   114    1
    15   117   118    1
    16   114   115    1
    17   107   108    1
    18    88    87    1
    19    88    89    2
    20   102   100   am
    21    87    90    1
    22   100   101    2
    23   108   110   ar
    24   108   109   ar
    25   110   112   ar
    26   223   222   ar
    27   115   116    2
    28    90    91    1
    29   222   224   ar
    30   222   221    1
    31    91    92    1
    32    26    25    1
    33   109   111   ar
    34   112   111   ar
    35    24    23    2
    36   220   219    2
    37     1     2    1
    38     4     3    2
    39   221   218    1
    40    23    22    1
    41   218   219    1
    42   218   217    1
    43     2     3    1
    44   214   213    2
    45    92    94   am
    46    92    93    2
    47     3     5   am
    48    25    22    1
    49   216   215    1
    50   217   213   am
    51    22    21    1
    52   213   212    1
    53    14    15    1
    54     5     6    1
    55    21    16   am
    56   215   212    1
    57     6     7    1
    58     6     9    1
    59     8     7    2
    60    12    13    2
    61    12    11    1
    62     7    10   am
    63    16    17    2
    64    16    15    1
    65    83    81   ar
    66    83    85   ar
    67   212   211    1
    68    81    80   ar
    69    15    18    1
    70    45    43   ar
    71    45    44   ar
    72    10    11    1
    73    43    41   ar
    74   120   121    1
    75   131   132    1
    76   134   133    2
    77   123   122    2
    78   132   133    1
    79   122   121    1
    80   139   140    1
    81   139   136    1
    82   153   152    1
    83    85    84   ar
    84   133   135   am
    85   211   205   am
    86   121   124    1
    87    80    79    1
    88    80    82   ar
    89    78    77    2
    90    79    76    1
    91    44    42   ar
    92   167   166    2
    93    76    77    1
    94    76    75    1
    95    18    20    1
    96    18    19    1
    97   135   136    1
    98    41    40   ar
    99   169   168    1
   100   206   205    2
   101   136   137    1
   102   205   204    1
   103   152   154    1
   104   152   151    1
   105   166   165    1
   106    84    82   ar
   107   168   165    1
   108   168   170    1
   109    42    40   ar
   110   124   125    1
   111    40    39    1
   112    28    27    1
   113    28    31    1
   114    28    29    1
   115   207   204    1
   116   207   208    1
   117   125   126   ar
   118   125   127   ar
   119   165   164    1
   120   171   172    1
   121   204   203    1
   122   126   128   ar
   123   137   138    2
   124   137   141   am
   125   127   129   ar
   126   151   148    1
   127   177   176    2
   128    31    32    1
   129   148   147    1
   130   148   149    1
   131   128   130   ar
   132    29    35   am
   133    29    30    2
   134   129   130   ar
   135   147   143   am
   136   164   157   am
   137   172   175    1
   138   172   173    1
   139    35    36    1
   140   141   142    1
   141    39    36    1
   142   208   210   ar
   143   208   209   ar
   144   202   201    2
   145   175   176    1
   146   176   178   am
   147    74    73    1
   148   203   201   am
   149   149   155   am
   150   149   150    2
   151    36    37    1
   152   201   200    1
   153    55    54    1
   154   155   156    1
   155    32    34   ar
   156    32    33   ar
   157   189   187    1
   158   143   142    1
   159   143   144    2
   160   173   179   am
   161   173   174    2
   162   157   158    2
   163   157   156    1
   164   142   145    1
   165    73    71   ar
   166    73    72   ar
   167    56    54    1
   168   146   145    1
   169    71    69   ar
   170   179   180    1
   171   187   186    2
   172   187   188    1
   173   186   185    1
   174    54    53    2
   175   156   159    1
   176   200   199    1
   177    72    70   ar
   178    37    46   am
   179    37    38    2
   180   184   185    1
   181   184   183    1
   182    69    68   ar
   183    46    47    1
   184   159   160    1
   185   180   183    1
   186   180   181    1
   187    63    64    1
   188    70    68   ar
   189    53    52    1
   190    68    67    1
   191    51    52    1
   192    51    50    1
   193   193   192    2
   194   160   161    1
   195    64    67    1
   196    64    65    1
   197   190   181   am
   198   190   191    1
   199    47    50    1
   200    47    48    1
   201    62    61    1
   202   181   182    2
   203    57    48   am
   204    57    58    1
   205    61    58    1
   206   192   191    1
   207   195   196    1
   208   195   194    1
   209   161   162    1
   210   198   196   ar
   211    48    49    2
   212    65    66    2
   213   191   194    1
   214   196   197   ar
   215    58    59    1
   216    60    59    2
   217   162   163    1
