@<TRIPOS>MOLECULE
tmp/4if7A00.pdb
 139 135 0 0 0
SMALL
GASTEIGER

@<TRIPOS>ATOM
      1  N         38.3820   -8.7790    3.4500 N.3    91  THR91      -0.1218
      2  CA        37.6990  -10.0880    3.2780 C.3    91  THR91       0.1862
      3  C         36.8550  -10.1620    2.0110 C.2    91  THR91       0.2287
      4  O         36.6560  -11.2590    1.4660 O.2    91  THR91      -0.2866
      5  CB        36.7630  -10.5040    4.4440 C.3    91  THR91       0.1770
      6  OG1       35.7230   -9.5450    4.6140 O.3    91  THR91      -0.2211
      7  CG2       37.5210  -10.6460    5.7420 C.3    91  THR91       0.0375
      8  N         38.1110  -11.6840   -1.2970 N.3    94  TYR94      -0.1241
      9  CA        39.2820  -12.5000   -1.0300 C.3    94  TYR94       0.1605
     10  C         39.0040  -13.9990   -1.2860 C.2    94  TYR94       0.2264
     11  O         38.3320  -14.6290   -0.5090 O.2    94  TYR94      -0.2867
     12  CB        39.6790  -12.3130    0.4450 C.3    94  TYR94       0.0534
     13  CG        40.9680  -13.0210    0.8300 C.ar   94  TYR94      -0.0201
     14  CD1       42.1730  -12.6720    0.2320 C.ar   94  TYR94      -0.0009
     15  CD2       40.9810  -14.0380    1.7900 C.ar   94  TYR94      -0.0009
     16  CE1       43.3620  -13.3050    0.5680 C.ar   94  TYR94       0.0417
     17  CE2       42.1700  -14.6750    2.1400 C.ar   94  TYR94       0.0417
     18  CZ        43.3500  -14.2980    1.5380 C.ar   94  TYR94       0.1957
     19  OH        44.5270  -14.8980    1.8670 O.3    94  TYR94      -0.2866
     20  N         35.4180  -14.9340   -0.9790 N.3    97  PHE97      -0.1241
     21  CA        34.5880  -14.5790    0.1800 C.3    97  PHE97       0.1605
     22  C         33.6560  -13.3750   -0.1150 C.2    97  PHE97       0.2264
     23  O         34.1080  -12.3490   -0.6710 O.2    97  PHE97      -0.2867
     24  CB        35.4680  -14.2870    1.3840 C.3    97  PHE97       0.0534
     25  CG        34.7170  -14.1710    2.6410 C.ar   97  PHE97      -0.0203
     26  CD1       34.3600  -15.3020    3.3470 C.ar   97  PHE97      -0.0042
     27  CD2       34.3570  -12.9340    3.1330 C.ar   97  PHE97      -0.0042
     28  CE1       33.6530  -15.1950    4.5250 C.ar   97  PHE97      -0.0003
     29  CE2       33.6460  -12.8240    4.3100 C.ar   97  PHE97      -0.0003
     30  CZ        33.3170  -13.9630    5.0210 C.ar   97  PHE97      -0.0000
     31  N         33.9770  -11.6690    8.9980 N.3   102  CYS102     -0.1235
     32  CA        33.4480  -13.0320    9.2900 C.3   102  CYS102      0.1677
     33  C         32.7030  -12.9560   10.6010 C.2   102  CYS102      0.2270
     34  O         33.1940  -12.3170   11.5510 O.2   102  CYS102     -0.2867
     35  CB        34.5260  -14.0830    9.4090 C.3   102  CYS102      0.0956
     36  SG        35.6760  -14.1530    8.0350 S.3   102  CYS102     -0.0801
     37  N         35.2530  -18.2450   10.1410 N.3   111  HIS111     -0.1241
     38  CA        35.0300  -17.9900    8.7010 C.3   111  HIS111      0.1621
     39  C         33.5430  -18.0080    8.3170 C.2   111  HIS111      0.2264
     40  O         33.1670  -18.1520    7.1300 O.2   111  HIS111     -0.2867
     41  CB        35.9280  -18.8970    7.7980 C.3   111  HIS111      0.0745
     42  CG        37.4050  -18.7590    8.0590 C.ar  111  HIS111      0.0817
     43  ND1       38.3310  -19.7020    7.6560 N.ar  111  HIS111     -0.2268
     44  CD2       38.1100  -17.8100    8.7330 C.ar  111  HIS111      0.1154
     45  CE1       39.5380  -19.3400    8.0700 C.ar  111  HIS111      0.1986
     46  NE2       39.4290  -18.2010    8.7350 N.ar  111  HIS111     -0.2212
     47  N         35.1160  -10.8610   12.8780 N.3   128  ASP128     -0.1225
     48  CA        36.4780  -10.7370   12.3910 C.3   128  ASP128      0.1805
     49  C         36.4820   -9.7930   11.1970 C.2   128  ASP128      0.2598
     50  O         35.7750   -9.9910   10.2180 O.2   128  ASP128     -0.2718
     51  CB        37.0620  -12.1110   12.0570 C.3   128  ASP128      0.1424
     52  CG        38.5290  -12.0770   11.7210 C.2   128  ASP128      0.3668
     53  OD1       39.1120  -10.9650   11.5240 O.co2 128  ASP128     -0.2456
     54  OD2       39.1380  -13.1760   11.6090 O.co2 128  ASP128     -0.2456
     55  N         37.2840   -8.7480   11.3240 N.am  129  VAL129     -0.1966
     56  CA        37.2970   -7.6160   10.4050 C.3   129  VAL129      0.1727
     57  C         38.7260   -7.3140   10.0140 C.2   129  VAL129      0.2616
     58  O         39.6040   -7.2790   10.8490 O.2   129  VAL129     -0.2715
     59  CB        36.7870   -6.3250   11.0990 C.3   129  VAL129      0.0290
     60  CG1       36.8610   -5.1420   10.1510 C.3   129  VAL129      0.0023
     61  CG2       35.3780   -6.5120   11.5730 C.3   129  VAL129      0.0023
     62  N         38.9350   -7.0390    8.7400 N.am  130  THR130     -0.1951
     63  CA        40.2370   -6.6390    8.2590 C.3   130  THR130      0.1897
     64  C         40.0660   -5.3990    7.3630 C.2   130  THR130      0.2313
     65  O         39.1900   -5.3750    6.4680 O.2   130  THR130     -0.2863
     66  CB        40.9220   -7.8400    7.5380 C.3   130  THR130      0.1794
     67  OG1       41.0760   -8.9100    8.4760 O.3   130  THR130     -0.2208
     68  CG2       42.3270   -7.4820    7.0070 C.3   130  THR130      0.0378
     69  N         44.2880   -6.4180   10.9940 N.3   139  ASP139     -0.1239
     70  CA        43.3870   -7.5790   11.2080 C.3   139  ASP139      0.1674
     71  C         43.1230   -7.8340   12.7180 C.2   139  ASP139      0.2266
     72  O         44.0530   -8.0350   13.4970 O.2   139  ASP139     -0.2867
     73  CB        44.0850   -8.7640   10.5400 C.3   139  ASP139      0.1410
     74  CG        43.2550  -10.0280   10.5080 C.2   139  ASP139      0.3668
     75  OD1       43.8350  -11.0310   10.0400 O.co2 139  ASP139     -0.2456
     76  OD2       42.0410   -9.9990   10.8380 O.co2 139  ASP139     -0.2456
     77  N         49.0440  -15.3130   11.2860 N.3   202  HIS202     -0.1241
     78  CA        49.7860  -15.1220   10.0610 C.3   202  HIS202      0.1621
     79  C         50.5160  -13.8000   10.0320 C.2   202  HIS202      0.2264
     80  O         50.1250  -12.8660   10.7040 O.2   202  HIS202     -0.2867
     81  CB        48.8220  -15.2520    8.8970 C.3   202  HIS202      0.0745
     82  CG        47.6230  -14.3810    9.0620 C.ar  202  HIS202      0.0817
     83  ND1       47.5290  -13.1300    8.4840 N.ar  202  HIS202     -0.2268
     84  CD2       46.5140  -14.5310    9.8250 C.ar  202  HIS202      0.1154
     85  CE1       46.3870  -12.5730    8.8390 C.ar  202  HIS202      0.1986
     86  NE2       45.7400  -13.4080    9.6400 N.ar  202  HIS202     -0.2212
     87  N         47.7690  -10.0580    2.9280 N.3   208  PHE208     -0.1227
     88  CA        46.7840  -10.3890    3.9600 C.3   208  PHE208      0.1736
     89  C         47.3950  -11.4760    4.8800 C.2   208  PHE208      0.2595
     90  O         47.4400  -11.3180    6.1270 O.2   208  PHE208     -0.2718
     91  CB        45.4440  -10.7900    3.2580 C.3   208  PHE208      0.0547
     92  CG        44.2060  -10.8600    4.1740 C.ar  208  PHE208     -0.0202
     93  CD1       44.3000  -10.8330    5.5650 C.ar  208  PHE208     -0.0042
     94  CD2       42.9450  -11.0120    3.6140 C.ar  208  PHE208     -0.0042
     95  CE1       43.1860  -10.9150    6.3510 C.ar  208  PHE208     -0.0003
     96  CE2       41.8210  -11.1100    4.4100 C.ar  208  PHE208     -0.0003
     97  CZ        41.9480  -11.0560    5.7890 C.ar  208  PHE208     -0.0000
     98  N         47.8830  -12.5440    4.2400 N.am  209  HIS209     -0.1975
     99  CA        48.5300  -13.7130    4.8720 C.3   209  HIS209      0.1656
    100  C         49.8080  -13.9280    4.0860 C.2   209  HIS209      0.2291
    101  O         49.8130  -14.5920    3.0410 O.2   209  HIS209     -0.2864
    102  CB        47.6520  -14.9740    4.7650 C.3   209  HIS209      0.0771
    103  CG        46.2600  -14.7830    5.2740 C.ar  209  HIS209      0.0820
    104  ND1       45.2390  -14.3150    4.4750 N.ar  209  HIS209     -0.2267
    105  CD2       45.7230  -14.9670    6.5030 C.ar  209  HIS209      0.1154
    106  CE1       44.1290  -14.2500    5.1790 C.ar  209  HIS209      0.1986
    107  NE2       44.4010  -14.6120    6.4190 N.ar  209  HIS209     -0.2212
    108  N         45.7500  -15.1790   16.9110 N.3   235  GLU235     -0.1245
    109  CA        44.3110  -15.3270   16.7670 C.3   235  GLU235      0.1567
    110  C         43.7620  -16.6840   17.1990 C.2   235  GLU235      0.2260
    111  O         43.1470  -17.3760   16.4080 O.2   235  GLU235     -0.2867
    112  CB        43.9190  -15.0050   15.3270 C.3   235  GLU235      0.0388
    113  CG        44.4940  -15.8910   14.2330 C.3   235  GLU235      0.1160
    114  CD        44.0120  -15.4610   12.8630 C.2   235  GLU235      0.3649
    115  OE1       42.9120  -15.8790   12.5020 O.co2 235  GLU235     -0.2457
    116  OE2       44.6880  -14.6480   12.1850 O.co2 235  GLU235     -0.2457
    117  N         33.3310  -22.1100    3.4070 N.3   252  TRP252     -0.1241
    118  CA        34.0460  -21.2200    4.3030 C.3   252  TRP252      0.1605
    119  C         33.7610  -21.5320    5.7750 C.2   252  TRP252      0.2264
    120  O         34.6740  -21.4390    6.6270 O.2   252  TRP252     -0.2867
    121  CB        33.6930  -19.7650    3.9830 C.3   252  TRP252      0.0550
    122  CG        34.4620  -19.1330    2.8230 C.ar  252  TRP252      0.0003
    123  CD1       33.9610  -18.7830    1.5980 C.ar  252  TRP252      0.0946
    124  CD2       35.8470  -18.7410    2.8130 C.ar  252  TRP252      0.0152
    125  NE1       34.9550  -18.2230    0.8200 N.ar  252  TRP252     -0.2442
    126  CE2       36.1160  -18.1840    1.5460 C.ar  252  TRP252      0.0810
    127  CE3       36.8780  -18.8010    3.7580 C.ar  252  TRP252      0.0012
    128  CZ2       37.3690  -17.7040    1.1960 C.ar  252  TRP252      0.0191
    129  CZ3       38.1200  -18.3330    3.4110 C.ar  252  TRP252      0.0001
    130  CH2       38.3610  -17.7890    2.1400 C.ar  252  TRP252      0.0015
    131  N         41.6510  -11.8690   18.2510 N.3   266  GLU266     -0.1245
    132  CA        42.7450  -11.5620   17.4060 C.3   266  GLU266      0.1567
    133  C         43.2070  -10.1000   17.5300 C.2   266  GLU266      0.2260
    134  O         42.3830   -9.1560   17.6110 O.2   266  GLU266     -0.2867
    135  CB        42.3480  -11.9090   15.9510 C.3   266  GLU266      0.0388
    136  CG        43.3360  -11.4390   14.8890 C.3   266  GLU266      0.1160
    137  CD        42.9670  -11.8690   13.5100 C.2   266  GLU266      0.3649
    138  OE1       43.9210  -12.1650   12.7800 O.co2 266  GLU266     -0.2457
    139  OE2       41.7370  -11.9190   13.1480 O.co2 266  GLU266     -0.2457
@<TRIPOS>BOND
     1     8     9    1
     2    10     9    1
     3    10    11    2
     4     9    12    1
     5    20    21    1
     6    23    22    2
     7    22    21    1
     8    21    24    1
     9    14    16   ar
    10    14    13   ar
    11    12    13    1
    12    16    18   ar
    13   125   126   ar
    14   125   123   ar
    15    13    15   ar
    16   128   126   ar
    17   128   130   ar
    18    24    25    1
    19     4     3    2
    20    18    19    1
    21    18    17   ar
    22   126   124   ar
    23   123   122   ar
    24    15    17   ar
    25     3     2    1
    26   130   129   ar
    27    25    27   ar
    28    25    26   ar
    29   124   122   ar
    30   124   127   ar
    31   122   121    1
    32    87    88    1
    33   101   100    2
    34    27    29   ar
    35    91    88    1
    36    91    92    1
    37     2     1    1
    38     2     5    1
    39    26    28   ar
    40   117   118    1
    41   129   127   ar
    42    94    92   ar
    43    94    96   ar
    44    88    89    1
    45   121   118    1
    46   100    99    1
    47    92    93   ar
    48    98    99    1
    49    98    89   am
    50   118   119    1
    51    29    30   ar
    52    96    97   ar
    53     5     6    1
    54     5     7    1
    55   104   106   ar
    56   104   103   ar
    57    28    30   ar
    58   102    99    1
    59   102   103    1
    60    89    90    2
    61   106   107   ar
    62   103   105   ar
    63    93    95   ar
    64   119   120    2
    65    97    95   ar
    66   107   105   ar
    67    65    64    2
    68    68    66    1
    69    40    39    2
    70    64    63    1
    71    66    63    1
    72    66    67    1
    73    43    42   ar
    74    43    45   ar
    75    41    42    1
    76    41    38    1
    77    36    35    1
    78    42    44   ar
    79    45    46   ar
    80    63    62    1
    81    39    38    1
    82    83    85   ar
    83    83    82   ar
    84    38    37    1
    85    44    46   ar
    86    62    57   am
    87    85    86   ar
    88    81    82    1
    89    81    78    1
    90    31    32    1
    91    82    84   ar
    92    32    35    1
    93    32    33    1
    94    86    84   ar
    95    57    56    1
    96    57    58    2
    97    79    78    1
    98    79    80    2
    99    75    74   ar
   100    78    77    1
   101    60    59    1
   102    50    49    2
   103    56    59    1
   104    56    55    1
   105    74    73    1
   106    74    76   ar
   107    73    70    1
   108    33    34    2
   109    69    70    1
   110    59    61    1
   111    49    55   am
   112    49    48    1
   113    70    71    1
   114    53    52   ar
   115    54    52   ar
   116    52    51    1
   117    51    48    1
   118   116   114   ar
   119    48    47    1
   120   115   114   ar
   121    71    72    2
   122   138   137   ar
   123   114   113    1
   124   139   137   ar
   125   137   136    1
   126   113   112    1
   127   136   135    1
   128   112   109    1
   129   135   132    1
   130   111   110    2
   131   109   108    1
   132   109   110    1
   133   132   133    1
   134   132   131    1
   135   133   134    2
