@<TRIPOS>MOLECULE
tmp/4ifbA00.pdb
 242 239 0 0 0
SMALL
GASTEIGER

@<TRIPOS>ATOM
      1  N         -1.3770  -14.6600   51.9230 N.3    42  PRO42      -0.2102
      2  CA        -2.5990  -13.8330   52.1130 C.3    42  PRO42       0.1504
      3  C         -3.8540  -14.4010   51.4770 C.2    42  PRO42       0.2576
      4  O         -3.7790  -14.9510   50.3960 O.2    42  PRO42      -0.2718
      5  CB        -2.2500  -12.4840   51.4670 C.3    42  PRO42       0.0282
      6  CG        -0.7700  -12.4720   51.3220 C.3    42  PRO42       0.0208
      7  CD        -0.2670  -13.9030   51.3170 C.3    42  PRO42       0.0893
      8  N         -4.9960  -14.2600   52.1650 N.am   43  LYS43      -0.1966
      9  CA        -6.3200  -14.6820   51.6890 C.3    43  LYS43       0.1728
     10  C         -6.5310  -16.1970   51.7960 C.2    43  LYS43       0.2617
     11  O         -7.3970  -16.7680   51.1090 O.2    43  LYS43      -0.2715
     12  CB        -6.6040  -14.2120   50.2600 C.3    43  LYS43       0.0311
     13  CG        -6.2070  -12.7550   49.9390 C.3    43  LYS43       0.0038
     14  CD        -6.6170  -11.7070   50.9960 C.3    43  LYS43       0.0206
     15  CE        -8.1130  -11.6090   51.2080 C.3    43  LYS43       0.1093
     16  NZ        -8.3910  -10.5910   52.2880 N.3    43  LYS43      -0.1314
     17  N         -5.7720  -16.8500   52.6720 N.am   44  SER44      -0.1936
     18  CA        -5.9350  -18.3010   52.8580 C.3    44  SER44       0.2055
     19  C         -6.7790  -18.6540   54.0760 C.2    44  SER44       0.2644
     20  O         -7.0080  -19.8340   54.3380 O.2    44  SER44      -0.2714
     21  CB        -4.5760  -18.9990   52.9570 C.3    44  SER44       0.2130
     22  OG        -3.7470  -18.6620   51.8520 O.3    44  SER44      -0.2179
     23  N         -7.2140  -17.6530   54.8420 N.am   45  GLY45      -0.1939
     24  CA        -8.0330  -17.9170   56.0360 C.3    45  GLY45       0.2014
     25  C         -7.4310  -17.4670   57.3530 C.2    45  GLY45       0.2640
     26  O         -7.7760  -17.9930   58.4340 O.2    45  GLY45      -0.2714
     27  N         -6.5410  -16.4830   57.2800 N.am   46  THR46      -0.1936
     28  CA        -5.7670  -16.0800   58.4510 C.3    46  THR46       0.2028
     29  C         -6.7330  -15.6970   59.5720 C.2    46  THR46       0.2642
     30  O         -6.6670  -16.2360   60.6880 O.2    46  THR46      -0.2714
     31  CB        -4.9110  -14.8400   58.1450 C.3    46  THR46       0.1808
     32  OG1       -4.3420  -14.9320   56.8180 O.3    46  THR46      -0.2208
     33  CG2       -3.8330  -14.6430   59.2200 C.3    46  THR46       0.0379
     34  N         -7.6590  -14.8010   59.2620 N.am   47  ASN47      -0.1957
     35  CA        -8.5660  -14.2620   60.2690 C.3    47  ASN47       0.1819
     36  C         -9.5170  -15.2690   60.8680 C.2    47  ASN47       0.2621
     37  O         -9.8860  -15.1750   62.0470 O.2    47  ASN47      -0.2715
     38  CB        -9.3100  -13.0410   59.7400 C.3    47  ASN47       0.1195
     39  CG        -8.3690  -11.8670   59.5590 C.2    47  ASN47       0.2630
     40  OD1       -8.0380  -11.1960   60.5300 O.2    47  ASN47      -0.2716
     41  ND2       -7.8380  -11.6880   58.3320 N.am   47  ASN47      -0.0877
     42  N         -9.7980  -16.3050   60.1140 N.am   48  TRP48      -0.1974
     43  CA       -10.6860  -17.3250   60.5920 C.3    48  TRP48       0.1640
     44  C         -9.9250  -18.0730   61.6760 C.2    48  TRP48       0.2290
     45  O        -10.4410  -18.3490   62.7420 O.2    48  TRP48      -0.2864
     46  CB       -11.0540  -18.2640   59.4290 C.3    48  TRP48       0.0576
     47  CG       -12.0880  -19.3400   59.7350 C.ar   48  TRP48       0.0006
     48  CD1      -12.9190  -19.4100   60.8200 C.ar   48  TRP48       0.0946
     49  CD2      -12.4910  -20.4130   58.8530 C.ar   48  TRP48       0.0152
     50  NE1      -13.7470  -20.5170   60.7010 N.ar   48  TRP48      -0.2442
     51  CE2      -13.4980  -21.1440   59.5110 C.ar   48  TRP48       0.0810
     52  CE3      -12.0570  -20.8510   57.5880 C.ar   48  TRP48       0.0012
     53  CZ2      -14.1260  -22.2450   58.9270 C.ar   48  TRP48       0.0191
     54  CZ3      -12.6730  -21.9680   57.0240 C.ar   48  TRP48       0.0001
     55  CH2      -13.7100  -22.6350   57.6910 C.ar   48  TRP48       0.0015
     56  N         -0.1470   -8.5070   63.2470 N.3    76  TRP76      -0.1241
     57  CA         0.4730   -8.9290   62.0300 C.3    76  TRP76       0.1605
     58  C          1.9400   -8.4400   62.1670 C.2    76  TRP76       0.2264
     59  O          2.2440   -7.2330   62.1400 O.2    76  TRP76      -0.2867
     60  CB        -0.3590   -8.3130   60.9050 C.3    76  TRP76       0.0550
     61  CG         0.0710   -8.5200   59.5450 C.ar   76  TRP76       0.0003
     62  CD1        1.1110   -9.2940   59.1030 C.ar   76  TRP76       0.0946
     63  CD2       -0.5060   -7.9090   58.3860 C.ar   76  TRP76       0.0152
     64  NE1        1.2030   -9.2150   57.7270 N.ar   76  TRP76      -0.2442
     65  CE2        0.2310   -8.3580   57.2650 C.ar   76  TRP76       0.0810
     66  CE3       -1.5970   -7.0470   58.1830 C.ar   76  TRP76       0.0012
     67  CZ2       -0.0830   -7.9680   55.9580 C.ar   76  TRP76       0.0191
     68  CZ3       -1.9210   -6.6620   56.8680 C.ar   76  TRP76       0.0001
     69  CH2       -1.1720   -7.1350   55.7770 C.ar   76  TRP76       0.0015
     70  N          2.4040  -13.3160   57.0740 N.3    98  HIS98      -0.1241
     71  CA         2.3260  -13.8580   55.7250 C.3    98  HIS98       0.1621
     72  C          3.7270  -14.0690   55.0820 C.2    98  HIS98       0.2264
     73  O          3.8350  -14.4190   53.8960 O.2    98  HIS98      -0.2867
     74  CB         1.4910  -12.9340   54.8240 C.3    98  HIS98       0.0745
     75  CG         0.1010  -12.6710   55.3220 C.ar   98  HIS98       0.0817
     76  ND1       -0.7850  -13.6830   55.6360 N.ar   98  HIS98      -0.2268
     77  CD2       -0.5890  -11.5060   55.4630 C.ar   98  HIS98       0.1154
     78  CE1       -1.9550  -13.1540   55.9750 C.ar   98  HIS98       0.1986
     79  NE2       -1.8680  -11.8380   55.8590 N.ar   98  HIS98      -0.2212
     80  N         -4.5270  -22.8590   51.3820 N.3   120  ARG120     -0.1245
     81  CA        -5.7950  -22.8270   50.6880 C.3   120  ARG120      0.1563
     82  C         -5.5000  -22.9910   49.1950 C.2   120  ARG120      0.2260
     83  O         -4.4960  -22.4490   48.6910 O.2   120  ARG120     -0.2867
     84  CB        -6.4720  -21.4680   50.8930 C.3   120  ARG120      0.0307
     85  CG        -7.9650  -21.4700   50.6340 C.3   120  ARG120      0.0489
     86  CD        -8.5610  -20.0710   50.6850 C.3   120  ARG120      0.2205
     87  NE       -10.0180  -20.1000   50.4680 N.pl3 120  ARG120     -0.0865
     88  CZ       -10.7980  -19.0200   50.4740 C.cat 120  ARG120      0.5346
     89  NH1      -10.2830  -17.8100   50.6570 N.pl3 120  ARG120      0.1354
     90  NH2      -12.1030  -19.1590   50.3620 N.pl3 120  ARG120      0.1354
     91  N         -8.8030  -20.3400   44.7800 N.3   124  ASP124     -0.1239
     92  CA        -9.6980  -19.6340   45.7040 C.3   124  ASP124      0.1674
     93  C         -9.0060  -18.4110   46.3380 C.2   124  ASP124      0.2266
     94  O         -9.6220  -17.3470   46.5170 O.2   124  ASP124     -0.2867
     95  CB       -10.2350  -20.6060   46.7660 C.3   124  ASP124      0.1410
     96  CG       -11.2650  -21.5940   46.1980 C.2   124  ASP124      0.3668
     97  OD1      -11.8810  -21.2660   45.1660 O.co2 124  ASP124     -0.2456
     98  OD2      -11.4660  -22.7050   46.7690 O.co2 124  ASP124     -0.2456
     99  N        -10.3080  -14.4810   46.1200 N.3   128  SER128     -0.1217
    100  CA       -10.4220  -13.7650   47.3780 C.3   128  SER128      0.1889
    101  C         -9.6400  -12.4720   47.3610 C.2   128  SER128      0.2288
    102  O        -10.1660  -11.4160   47.6970 O.2   128  SER128     -0.2866
    103  CB        -9.9440  -14.6730   48.5200 C.3   128  SER128      0.2089
    104  OG       -10.2840  -14.0780   49.7650 O.3   128  SER128     -0.2183
    105  N        -10.9210   -8.4350   47.3980 N.3   132  PHE132     -0.1227
    106  CA       -10.5590   -7.6500   48.5730 C.3   132  PHE132      0.1736
    107  C         -9.7310   -6.4320   48.2360 C.2   132  PHE132      0.2595
    108  O         -9.9880   -5.3450   48.7500 O.2   132  PHE132     -0.2718
    109  CB        -9.7700   -8.4960   49.5520 C.3   132  PHE132      0.0547
    110  CG        -9.5670   -7.8430   50.8720 C.ar  132  PHE132     -0.0202
    111  CD1      -10.6180   -7.7170   51.7600 C.ar  132  PHE132     -0.0042
    112  CD2       -8.3190   -7.3740   51.2390 C.ar  132  PHE132     -0.0042
    113  CE1      -10.4330   -7.1360   52.9900 C.ar  132  PHE132     -0.0003
    114  CE2       -8.1210   -6.8060   52.4720 C.ar  132  PHE132     -0.0003
    115  CZ        -9.1750   -6.6900   53.3490 C.ar  132  PHE132     -0.0000
    116  N         -8.7310   -6.6380   47.3860 N.am  133  TRP133     -0.1976
    117  CA        -7.7170   -5.6340   47.0740 C.3   133  TRP133      0.1640
    118  C         -8.0430   -4.7470   45.8770 C.2   133  TRP133      0.2290
    119  O         -7.3050   -3.8100   45.5820 O.2   133  TRP133     -0.2864
    120  CB        -6.3700   -6.3340   46.8070 C.3   133  TRP133      0.0576
    121  CG        -5.7610   -6.8670   48.0430 C.ar  133  TRP133      0.0006
    122  CD1       -5.7640   -6.2710   49.2640 C.ar  133  TRP133      0.0946
    123  CD2       -5.0610   -8.1080   48.2040 C.ar  133  TRP133      0.0152
    124  NE1       -5.1040   -7.0590   50.1840 N.ar  133  TRP133     -0.2442
    125  CE2       -4.6650   -8.1930   49.5560 C.ar  133  TRP133      0.0810
    126  CE3       -4.7030   -9.1320   47.3370 C.ar  133  TRP133      0.0012
    127  CZ2       -3.9290   -9.2540   50.0540 C.ar  133  TRP133      0.0191
    128  CZ3       -3.9730  -10.1940   47.8370 C.ar  133  TRP133      0.0001
    129  CH2       -3.5810  -10.2390   49.1760 C.ar  133  TRP133      0.0015
    130  N         -7.4490  -24.8280   54.5070 N.3   183  TYR183     -0.1241
    131  CA        -8.7340  -24.1870   54.5990 C.3   183  TYR183      0.1605
    132  C         -9.8820  -25.1590   54.2220 C.2   183  TYR183      0.2264
    133  O        -10.9630  -25.1540   54.8320 O.2   183  TYR183     -0.2867
    134  CB        -8.7140  -22.9740   53.6770 C.3   183  TYR183      0.0534
    135  CG       -10.0220  -22.2060   53.6010 C.ar  183  TYR183     -0.0201
    136  CD1      -10.1470  -20.9520   54.1910 C.ar  183  TYR183     -0.0009
    137  CD2      -11.0980  -22.6890   52.8490 C.ar  183  TYR183     -0.0009
    138  CE1      -11.3340  -20.2260   54.0720 C.ar  183  TYR183      0.0417
    139  CE2      -12.2860  -21.9890   52.7570 C.ar  183  TYR183      0.0417
    140  CZ       -12.4050  -20.7650   53.3910 C.ar  183  TYR183      0.1957
    141  OH       -13.5900  -20.0510   53.2970 O.3   183  TYR183     -0.2866
    142  N        -12.9820  -25.9570   56.5540 N.3   187  LYS187     -0.1245
    143  CA       -14.3390  -25.6800   56.1200 C.3   187  LYS187      0.1561
    144  C        -15.2160  -26.9320   56.1650 C.2   187  LYS187      0.2260
    145  O        -16.4010  -26.8710   56.4960 O.2   187  LYS187     -0.2867
    146  CB       -14.3120  -25.1040   54.6930 C.3   187  LYS187      0.0271
    147  CG       -15.6800  -24.8570   54.0760 C.3   187  LYS187      0.0035
    148  CD       -16.3750  -23.6560   54.6910 C.3   187  LYS187      0.0206
    149  CE       -17.8300  -23.5920   54.2120 C.3   187  LYS187      0.1093
    150  NZ       -18.4760  -22.3690   54.7770 N.3   187  LYS187     -0.1314
    151  N        -17.0890  -18.8660   65.5620 N.3   217  SER217     -0.1217
    152  CA       -16.0990  -18.7730   64.5150 C.3   217  SER217      0.1889
    153  C        -16.6760  -19.2280   63.1620 C.2   217  SER217      0.2288
    154  O        -15.9570  -19.2600   62.1440 O.2   217  SER217     -0.2866
    155  CB       -14.8740  -19.6120   64.8940 C.3   217  SER217      0.2089
    156  OG       -15.1860  -20.9940   64.8420 O.3   217  SER217     -0.2183
    157  N        -18.7670  -18.8000   59.6570 N.3   219  PHE219     -0.1241
    158  CA       -18.8290  -17.6450   58.7500 C.3   219  PHE219      0.1605
    159  C        -19.9460  -16.6730   59.1080 C.2   219  PHE219      0.2264
    160  O        -19.6950  -15.4720   59.2900 O.2   219  PHE219     -0.2867
    161  CB       -18.9640  -18.1150   57.3000 C.3   219  PHE219      0.0534
    162  CG       -18.9430  -16.9890   56.2920 C.ar  219  PHE219     -0.0203
    163  CD1      -17.7410  -16.4610   55.8460 C.ar  219  PHE219     -0.0042
    164  CD2      -20.1310  -16.4530   55.7950 C.ar  219  PHE219     -0.0042
    165  CE1      -17.7260  -15.4350   54.9170 C.ar  219  PHE219     -0.0003
    166  CE2      -20.1240  -15.4430   54.8520 C.ar  219  PHE219     -0.0003
    167  CZ       -18.9190  -14.9270   54.4090 C.ar  219  PHE219     -0.0000
    168  N        -19.0990  -14.6790   62.4640 N.3   222  MET222     -0.1245
    169  CA       -17.9860  -13.7440   62.2840 C.3   222  MET222      0.1570
    170  C        -18.3550  -12.5550   61.4090 C.2   222  MET222      0.2261
    171  O        -17.9060  -11.4500   61.6580 O.2   222  MET222     -0.2867
    172  CB       -16.7700  -14.4380   61.6920 C.3   222  MET222      0.0387
    173  CG       -15.9890  -15.2930   62.6740 C.3   222  MET222      0.0595
    174  SD       -14.3990  -15.7910   61.9660 S.3   222  MET222     -0.1393
    175  CE       -13.6090  -14.2280   61.5890 C.3   222  MET222      0.0692
    176  N        -13.4940   -6.6220   59.1770 N.3   230  TYR230     -0.1241
    177  CA       -13.2010   -5.2600   58.7150 C.3   230  TYR230      0.1605
    178  C        -13.1840   -5.2180   57.1800 C.2   230  TYR230      0.2264
    179  O        -13.1180   -4.1470   56.5710 O.2   230  TYR230     -0.2867
    180  CB       -11.8680   -4.7700   59.2830 C.3   230  TYR230      0.0534
    181  CG       -10.7080   -5.6520   58.8990 C.ar  230  TYR230     -0.0201
    182  CD1      -10.2310   -5.6740   57.5840 C.ar  230  TYR230     -0.0009
    183  CD2      -10.1140   -6.5030   59.8340 C.ar  230  TYR230     -0.0009
    184  CE1       -9.1820   -6.4990   57.2170 C.ar  230  TYR230      0.0417
    185  CE2       -9.0590   -7.3350   59.4780 C.ar  230  TYR230      0.0417
    186  CZ        -8.5950   -7.3330   58.1660 C.ar  230  TYR230      0.1957
    187  OH        -7.5520   -8.1650   57.7880 O.3   230  TYR230     -0.2866
    188  N        -13.9270   -8.3200   54.3530 N.3   234  LEU234     -0.1231
    189  CA       -13.0260   -9.4340   54.6190 C.3   234  LEU234      0.1693
    190  C        -13.7370  -10.7730   54.5200 C.2   234  LEU234      0.2592
    191  O        -13.2050  -11.7210   53.9440 O.2   234  LEU234     -0.2718
    192  CB       -12.3790   -9.2840   55.9960 C.3   234  LEU234      0.0284
    193  CG       -11.3940  -10.3900   56.3930 C.3   234  LEU234      0.0019
    194  CD1      -10.0170  -10.2000   55.7600 C.3   234  LEU234      0.0001
    195  CD2      -11.3080  -10.4660   57.9090 C.3   234  LEU234      0.0001
    196  N        -14.9440  -10.8570   55.0740 N.am  235  LEU235     -0.1966
    197  CA       -15.7320  -12.0910   54.9610 C.3   235  LEU235      0.1728
    198  C        -16.6570  -12.0150   53.7580 C.2   235  LEU235      0.2616
    199  O        -17.7650  -11.5050   53.8420 O.2   235  LEU235     -0.2715
    200  CB       -16.4970  -12.4150   56.2510 C.3   235  LEU235      0.0311
    201  CG       -15.6940  -13.3290   57.1970 C.3   235  LEU235      0.0022
    202  CD1      -14.4700  -12.6370   57.7760 C.3   235  LEU235      0.0001
    203  CD2      -16.5180  -13.9450   58.3230 C.3   235  LEU235      0.0001
    204  N        -16.1850  -12.5110   52.6250 N.am  236  ARG236     -0.1963
    205  CA       -16.8720  -12.2450   51.3780 C.3   236  ARG236      0.1729
    206  C        -17.9070  -13.3290   51.1030 C.2   236  ARG236      0.2616
    207  O        -19.0410  -13.0280   50.7990 O.2   236  ARG236     -0.2715
    208  CB       -15.8660  -12.1020   50.2310 C.3   236  ARG236      0.0348
    209  CG       -16.4850  -11.8000   48.8720 C.3   236  ARG236      0.0492
    210  CD       -15.4540  -11.9760   47.7670 C.3   236  ARG236      0.2205
    211  NE       -14.8440  -13.3070   47.8050 N.pl3 236  ARG236     -0.0865
    212  CZ       -15.1760  -14.3120   47.0020 C.cat 236  ARG236      0.5346
    213  NH1      -16.1300  -14.1670   46.0840 N.pl3 236  ARG236      0.1354
    214  NH2      -14.5620  -15.4770   47.1320 N.pl3 236  ARG236      0.1354
    215  N        -17.5090  -14.5860   51.2150 N.am  237  LYS237     -0.1963
    216  CA       -18.3880  -15.6950   50.8930 C.3   237  LYS237      0.1728
    217  C        -18.0420  -16.9100   51.7590 C.2   237  LYS237      0.2617
    218  O        -18.9200  -17.6610   52.1720 O.2   237  LYS237     -0.2715
    219  CB       -18.2000  -16.0520   49.4060 C.3   237  LYS237      0.0311
    220  CG       -19.2170  -17.0230   48.8200 C.3   237  LYS237      0.0038
    221  CD       -19.0180  -17.0890   47.3020 C.3   237  LYS237      0.0206
    222  CE       -19.6220  -18.3340   46.6670 C.3   237  LYS237      0.1093
    223  NZ       -21.0790  -18.1370   46.5280 N.3   237  LYS237     -0.1314
    224  N        -16.7490  -17.1350   52.0020 N.am  238  GLY238     -0.1940
    225  CA       -16.3560  -18.1470   52.9550 C.3   238  GLY238      0.2014
    226  C        -16.6170  -19.5800   52.5530 C.2   238  GLY238      0.2638
    227  O        -16.9180  -20.4020   53.4190 O.2   238  GLY238     -0.2714
    228  N        -16.4510  -19.9140   51.2670 N.am  239  VAL239     -0.1977
    229  CA       -16.6000  -21.3280   50.8200 C.3   239  VAL239      0.1596
    230  C        -15.3020  -21.8190   50.1510 C.2   239  VAL239      0.2287
    231  O        -14.3960  -21.0230   49.9040 O.2   239  VAL239     -0.2864
    232  CB       -17.8220  -21.5130   49.8740 C.3   239  VAL239      0.0276
    233  CG1      -19.1380  -21.1270   50.5710 C.3   239  VAL239      0.0022
    234  CG2      -17.6540  -20.6680   48.6070 C.3   239  VAL239      0.0022
    235  N        -15.2910  -21.5260   45.0360 N.3   242  ASP242     -0.1239
    236  CA       -15.7350  -20.3170   44.3490 C.3   242  ASP242      0.1674
    237  C        -14.9020  -19.9640   43.0830 C.2   242  ASP242      0.2266
    238  O        -15.3150  -19.1470   42.2690 O.2   242  ASP242     -0.2867
    239  CB       -15.7350  -19.1180   45.2940 C.3   242  ASP242      0.1410
    240  CG       -16.5540  -17.9770   44.7430 C.2   242  ASP242      0.3668
    241  OD1      -16.1030  -16.7970   44.8000 O.co2 242  ASP242     -0.2456
    242  OD2      -17.6650  -18.2940   44.2230 O.co2 242  ASP242     -0.2456
@<TRIPOS>BOND
     1   238   237    2
     2   237   236    1
     3   242   240   ar
     4   236   235    1
     5   236   239    1
     6   240   241   ar
     7   240   239    1
     8    91    92    1
     9    97    96   ar
    10   119   118    2
    11    92    93    1
    12    92    95    1
    13   118   117    1
    14   213   212    1
    15    99   100    1
    16    96    95    1
    17    96    98   ar
    18    93    94    2
    19   223   222    1
    20   222   221    1
    21   120   117    1
    22   120   121    1
    23   212   214    1
    24   212   211    2
    25   117   116    1
    26   221   220    1
    27   126   128   ar
    28   126   123   ar
    29   101   100    1
    30   101   102    2
    31   100   103    1
    32   116   107   am
    33   105   106    1
    34   210   211    1
    35   210   209    1
    36   128   129   ar
    37   121   123   ar
    38   121   122   ar
    39   123   125   ar
    40   107   106    1
    41   107   108    2
    42   103   104    1
    43   106   109    1
    44   234   232    1
    45    83    82    2
    46   220   219    1
    47   209   208    1
    48   129   127   ar
    49    82    81    1
    50   122   124   ar
    51   219   216    1
    52   109   110    1
    53   125   127   ar
    54   125   124   ar
    55   232   233    1
    56   232   229    1
    57   231   230    2
    58    13    12    1
    59    13    14    1
    60   230   229    1
    61   208   205    1
    62    12     9    1
    63    90    88    1
    64     4     3    2
    65    87    88    2
    66    87    86    1
    67    88    89    1
    68    85    86    1
    69    85    84    1
    70    81    84    1
    71    81    80    1
    72   207   206    2
    73   229   228    1
    74   110   112   ar
    75   110   111   ar
    76   216   215    1
    77   216   217    1
    78    14    15    1
    79   206   215   am
    80   206   205    1
    81    11    10    2
    82    15    16    1
    83   112   114   ar
    84   228   226   am
    85     7     6    1
    86     7     1    1
    87     6     5    1
    88   205   204    1
    89     5     2    1
    90     3     2    1
    91     3     8   am
    92     9    10    1
    93     9     8    1
    94   217   224   am
    95   217   218    2
    96   111   113   ar
    97    10    17   am
    98    22    21    1
    99     1     2    1
   100   224   225    1
   101   114   115   ar
   102   226   225    1
   103   226   227    2
   104   204   198   am
   105    17    18    1
   106   139   137   ar
   107   139   140   ar
   108   137   135   ar
   109    18    21    1
   110    18    19    1
   111   113   115   ar
   112   141   140    1
   113   140   138   ar
   114   135   134    1
   115   135   136   ar
   116   134   131    1
   117   198   199    2
   118   198   197    1
   119    73    72    2
   120   191   190    2
   121   138   136   ar
   122   147   148    1
   123   147   146    1
   124    19    20    2
   125    19    23   am
   126   149   148    1
   127   149   150    1
   128   132   131    1
   129   132   133    2
   130   188   189    1
   131   167   166   ar
   132   167   165   ar
   133   130   131    1
   134   190   189    1
   135   190   196   am
   136   189   192    1
   137   146   143    1
   138    74    75    1
   139    74    71    1
   140    23    24    1
   141   166   164   ar
   142   165   163   ar
   143   197   196    1
   144   197   200    1
   145    72    71    1
   146    75    77   ar
   147    75    76   ar
   148    77    79   ar
   149    76    78   ar
   150    71    70    1
   151   194   193    1
   152    69    67   ar
   153    69    68   ar
   154   164   162   ar
   155   163   162   ar
   156    79    78   ar
   157    67    65   ar
   158   192   193    1
   159    24    25    1
   160   143   144    1
   161   143   142    1
   162   144   145    2
   163   200   201    1
   164   162   161    1
   165   193   195    1
   166   179   178    2
   167    32    31    1
   168    68    66   ar
   169    54    52   ar
   170    54    55   ar
   171   178   177    1
   172   201   202    1
   173   201   203    1
   174   184   182   ar
   175   184   186   ar
   176    65    64   ar
   177    65    63   ar
   178    27    25   am
   179    27    28    1
   180   161   158    1
   181    25    26    2
   182   182   181   ar
   183    52    49   ar
   184    55    53   ar
   185    64    62   ar
   186   187   186    1
   187    31    28    1
   188    31    33    1
   189   186   185   ar
   190    66    63   ar
   191    41    39   am
   192    63    61   ar
   193    28    29    1
   194   177   176    1
   195   177   180    1
   196   158   159    1
   197   158   157    1
   198    49    51   ar
   199    49    47   ar
   200   181   180    1
   201   181   183   ar
   202    53    51   ar
   203    62    61   ar
   204   159   160    2
   205    34    29   am
   206    34    35    1
   207    46    47    1
   208    46    43    1
   209   185   183   ar
   210    51    50   ar
   211    61    60    1
   212    39    38    1
   213    39    40    2
   214    29    30    2
   215    47    48   ar
   216    38    35    1
   217    42    43    1
   218    42    36   am
   219    35    36    1
   220    43    44    1
   221    50    48   ar
   222    36    37    2
   223    60    57    1
   224   170   171    2
   225   170   169    1
   226   175   174    1
   227    44    45    2
   228   172   169    1
   229   172   173    1
   230   174   173    1
   231    57    58    1
   232    57    56    1
   233    59    58    2
   234   154   153    2
   235   169   168    1
   236   153   152    1
   237   152   155    1
   238   152   151    1
   239   156   155    1
