@<TRIPOS>MOLECULE
tmp/4ifcB00.pdb
 166 154 0 0 0
SMALL
GASTEIGER

@<TRIPOS>ATOM
      1  N        -26.0770  -29.6540   14.4860 N.3    24  THR24      -0.1203
      2  CA       -25.7260  -30.0290   15.8570 C.3    24  THR24       0.1994
      3  C        -26.7970  -30.9800   16.4120 C.2    24  THR24       0.2618
      4  O        -26.5120  -31.7750   17.3110 O.2    24  THR24      -0.2717
      5  CB       -25.5340  -28.7880   16.7470 C.3    24  THR24       0.1784
      6  OG1      -25.1810  -27.6560   15.9490 O.3    24  THR24      -0.2211
      7  CG2      -24.4810  -29.0050   17.8220 C.3    24  THR24       0.0376
      8  N        -28.0070  -30.8860   15.8520 N.am   25  GLY25      -0.1956
      9  CA       -29.1640  -31.6920   16.2270 C.3    25  GLY25       0.1869
     10  C        -30.4820  -31.0080   15.9250 C.2    25  GLY25       0.2309
     11  O        -30.6660  -29.8360   16.2650 O.2    25  GLY25      -0.2863
     12  N        -35.2390  -31.1960   20.1780 N.3    27  VAL27      -0.1231
     13  CA       -36.5410  -31.6840   20.6230 C.3    27  VAL27       0.1692
     14  C        -37.6000  -30.5770   20.5740 C.2    27  VAL27       0.2592
     15  O        -38.6360  -30.7510   19.9300 O.2    27  VAL27      -0.2718
     16  CB       -36.4350  -32.2610   22.0290 C.3    27  VAL27       0.0266
     17  CG1      -37.7790  -32.7730   22.5340 C.3    27  VAL27       0.0020
     18  CG2      -35.4540  -33.4360   22.0020 C.3    27  VAL27       0.0020
     19  N        -37.3350  -29.4430   21.2500 N.am   28  PHE28      -0.1962
     20  CA       -38.2230  -28.2790   21.3020 C.3    28  PHE28       0.1771
     21  C        -37.8340  -27.2550   20.2250 C.2    28  PHE28       0.2620
     22  O        -38.5850  -26.3080   19.9680 O.2    28  PHE28      -0.2715
     23  CB       -38.1490  -27.6420   22.6830 C.3    28  PHE28       0.0574
     24  CG       -38.5890  -28.5130   23.8460 C.ar   28  PHE28      -0.0200
     25  CD1      -39.2870  -29.6900   23.6840 C.ar   28  PHE28      -0.0042
     26  CD2      -38.2550  -28.0740   25.1180 C.ar   28  PHE28      -0.0042
     27  CE1      -39.6620  -30.4500   24.8010 C.ar   28  PHE28      -0.0003
     28  CE2      -38.6620  -28.8000   26.2280 C.ar   28  PHE28      -0.0003
     29  CZ       -39.3850  -29.9780   26.0540 C.ar   28  PHE28      -0.0000
     30  N        -36.6550  -27.4570   19.6010 N.am   29  SER29      -0.1950
     31  CA       -36.0740  -26.6020   18.5640 C.3    29  SER29       0.1924
     32  C        -34.9930  -27.3640   17.7780 C.2    29  SER29       0.2314
     33  O        -34.6950  -28.5170   18.0950 O.2    29  SER29      -0.2863
     34  CB       -35.4620  -25.3550   19.2030 C.3    29  SER29       0.2116
     35  OG       -34.3400  -25.6860   20.0040 O.3    29  SER29      -0.2180
     36  N        -30.9400  -26.8980   16.4430 N.3    31  VAL31      -0.1245
     37  CA       -29.6930  -26.1500   16.6290 C.3    31  VAL31       0.1561
     38  C        -28.7330  -26.3860   15.4590 C.2    31  VAL31       0.2260
     39  O        -28.4010  -27.5330   15.1480 O.2    31  VAL31      -0.2867
     40  CB       -29.0290  -26.4170   18.0130 C.3    31  VAL31       0.0252
     41  CG1      -27.8420  -25.4840   18.2510 C.3    31  VAL31       0.0019
     42  CG2      -30.0410  -26.2870   19.1520 C.3    31  VAL31       0.0019
     43  N        -24.9700  -24.9900   13.3320 N.3    33  ARG33      -0.1245
     44  CA       -23.6670  -24.3380   13.4400 C.3    33  ARG33       0.1563
     45  C        -23.5690  -23.3390   12.2940 C.2    33  ARG33       0.2260
     46  O        -23.8700  -23.6880   11.1480 O.2    33  ARG33      -0.2867
     47  CB       -22.5180  -25.3580   13.3710 C.3    33  ARG33       0.0307
     48  CG       -22.3910  -26.2230   14.6160 C.3    33  ARG33       0.0489
     49  CD       -21.0680  -26.9600   14.6650 C.3    33  ARG33       0.2205
     50  NE       -21.0270  -27.9130   15.7760 N.pl3  33  ARG33      -0.0865
     51  CZ       -20.5840  -27.6320   16.9980 C.cat  33  ARG33       0.5346
     52  NH1      -20.1270  -26.4180   17.2840 N.pl3  33  ARG33       0.1354
     53  NH2      -20.5930  -28.5620   17.9430 N.pl3  33  ARG33       0.1354
     54  N        -23.6860  -20.6640   17.3460 N.3    45  ALA45      -0.1245
     55  CA       -24.7100  -21.6980   17.3790 C.3    45  ALA45       0.1562
     56  C        -26.0510  -20.9790   17.3170 C.2    45  ALA45       0.2260
     57  O        -26.2780  -20.0330   18.0790 O.2    45  ALA45      -0.2867
     58  CB       -24.6030  -22.5090   18.6570 C.3    45  ALA45       0.0290
     59  N        -30.0710  -21.4560   17.6250 N.3    47  LYS47      -0.1245
     60  CA       -31.1900  -22.2670   18.0830 C.3    47  LYS47       0.1561
     61  C        -32.4550  -21.7180   17.4230 C.2    47  LYS47       0.2260
     62  O        -32.8510  -20.5820   17.6950 O.2    47  LYS47      -0.2867
     63  CB       -31.2940  -22.2340   19.6180 C.3    47  LYS47       0.0271
     64  CG       -32.4190  -23.1010   20.1760 C.3    47  LYS47       0.0035
     65  CD       -32.6360  -22.9230   21.6740 C.3    47  LYS47       0.0206
     66  CE       -31.8000  -23.8730   22.4940 C.3    47  LYS47       0.1093
     67  NZ       -32.4560  -24.2120   23.7840 N.3    47  LYS47      -0.1314
     68  N        -24.7150  -20.4530   29.8030 N.3    81  LEU81      -0.1245
     69  CA       -24.7480  -20.1860   28.3560 C.3    81  LEU81       0.1561
     70  C        -24.8400  -18.6890   28.0690 C.2    81  LEU81       0.2260
     71  O        -25.6290  -17.9840   28.7020 O.2    81  LEU81      -0.2867
     72  CB       -25.9500  -20.8900   27.6910 C.3    81  LEU81       0.0270
     73  CG       -25.7610  -21.6280   26.3430 C.3    81  LEU81       0.0019
     74  CD1      -27.0960  -21.9500   25.7150 C.3    81  LEU81       0.0001
     75  CD2      -24.8820  -20.8840   25.3480 C.3    81  LEU81       0.0001
     76  N        -26.1690  -18.1200   20.0530 N.3    97  PHE97      -0.1227
     77  CA       -25.3760  -18.5280   21.2120 C.3    97  PHE97       0.1736
     78  C        -23.8990  -18.6750   20.8810 C.2    97  PHE97       0.2598
     79  O        -23.5290  -18.8180   19.7120 O.2    97  PHE97      -0.2717
     80  CB       -25.8980  -19.8610   21.7820 C.3    97  PHE97       0.0547
     81  CG       -27.2880  -19.8410   22.3670 C.ar   97  PHE97      -0.0202
     82  CD1      -27.5710  -19.0930   23.5030 C.ar   97  PHE97      -0.0042
     83  CD2      -28.2990  -20.6200   21.8220 C.ar   97  PHE97      -0.0042
     84  CE1      -28.8510  -19.0970   24.0590 C.ar   97  PHE97      -0.0003
     85  CE2      -29.5780  -20.6280   22.3840 C.ar   97  PHE97      -0.0003
     86  CZ       -29.8460  -19.8660   23.4980 C.ar   97  PHE97      -0.0000
     87  N        -23.0590  -18.6860   21.9330 N.am   98  GLU98      -0.1934
     88  CA       -21.6160  -18.8920   21.8400 C.3    98  GLU98       0.1818
     89  C        -21.3270  -20.3050   21.2890 C.2    98  GLU98       0.2332
     90  O        -22.1230  -21.2150   21.5460 O.2    98  GLU98      -0.2860
     91  CB       -20.9440  -18.6880   23.2170 C.2    98  GLU98       0.0097
     92  CG       -21.4020  -19.6420   24.3130 C.2    98  GLU98       0.0837
     93  CD       -20.6030  -19.6260   25.6010 C.2    98  GLU98       0.3877
     94  OE1      -19.3530  -19.6390   25.5350 O.co2  98  GLU98      -0.2406
     95  OE2      -21.2340  -19.6690   26.6810 O.co2  98  GLU98      -0.2406
     96  N        -20.0330  -23.9820   21.2420 N.3   100  LEU100     -0.1245
     97  CA       -19.6100  -25.0010   22.2010 C.3   100  LEU100      0.1561
     98  C        -19.4250  -26.3330   21.4810 C.2   100  LEU100      0.2260
     99  O        -20.1490  -26.6160   20.5250 O.2   100  LEU100     -0.2867
    100  CB       -20.5850  -25.1020   23.3860 C.3   100  LEU100      0.0270
    101  CG       -20.4700  -23.9680   24.4170 C.3   100  LEU100      0.0019
    102  CD1      -21.8200  -23.6110   25.0010 C.3   100  LEU100      0.0001
    103  CD2      -19.4780  -24.3100   25.5190 C.3   100  LEU100      0.0001
    104  N        -19.4430  -30.0080   22.4920 N.3   102  MET102     -0.1230
    105  CA       -20.4110  -31.0950   22.6900 C.3   102  MET102      0.1702
    106  C        -20.9650  -31.1160   24.1190 C.2   102  MET102      0.2592
    107  O        -20.3660  -30.5200   25.0180 O.2   102  MET102     -0.2718
    108  CB       -19.7740  -32.4640   22.3330 C.3   102  MET102      0.0401
    109  CG       -18.4350  -32.7200   23.0150 C.3   102  MET102      0.0596
    110  SD       -17.6380  -34.2760   22.5440 S.3   102  MET102     -0.1393
    111  CE       -16.7140  -33.7450   21.1440 C.3   102  MET102      0.0692
    112  N        -22.1100  -31.7960   24.3250 N.am  103  ASN103     -0.1974
    113  CA       -22.7100  -31.9260   25.6530 C.3   103  ASN103      0.1688
    114  C        -22.0180  -33.0390   26.4590 C.2   103  ASN103      0.2292
    115  O        -21.2960  -33.8470   25.8700 O.2   103  ASN103     -0.2864
    116  CB       -24.2390  -32.1050   25.5800 C.3   103  ASN103      0.1181
    117  CG       -24.7440  -33.3420   24.8680 C.2   103  ASN103      0.2629
    118  OD1      -24.3740  -34.4770   25.1780 O.2   103  ASN103     -0.2716
    119  ND2      -25.6970  -33.1560   23.9710 N.am  103  ASN103     -0.0877
    120  N        -22.5240  -36.7280   25.3780 N.3   106  GLU106     -0.1245
    121  CA       -21.6790  -37.0380   24.2230 C.3   106  GLU106      0.1567
    122  C        -20.2380  -37.3400   24.6450 C.2   106  GLU106      0.2260
    123  O        -19.6340  -38.2490   24.0750 O.2   106  GLU106     -0.2867
    124  CB       -21.7200  -35.9040   23.1850 C.3   106  GLU106      0.0388
    125  CG       -23.0370  -35.8180   22.4270 C.3   106  GLU106      0.1160
    126  CD       -23.2220  -34.5920   21.5530 C.2   106  GLU106      0.3649
    127  OE1      -23.5320  -34.7660   20.3520 O.co2 106  GLU106     -0.2457
    128  OE2      -23.0830  -33.4580   22.0680 O.co2 106  GLU106     -0.2457
    129  N        -26.9660  -34.0210   29.1800 N.3   149  ASP149     -0.1225
    130  CA       -27.4570  -33.5900   27.8660 C.3   149  ASP149      0.1805
    131  C        -27.5600  -32.0640   27.7680 C.2   149  ASP149      0.2597
    132  O        -27.3730  -31.5130   26.6840 O.2   149  ASP149     -0.2718
    133  CB       -28.8300  -34.2180   27.5670 C.3   149  ASP149      0.1424
    134  CG       -28.8930  -35.7110   27.8080 C.2   149  ASP149      0.3668
    135  OD1      -29.0520  -36.1150   28.9800 O.co2 149  ASP149     -0.2456
    136  OD2      -28.7740  -36.4760   26.8260 O.co2 149  ASP149     -0.2456
    137  N        -27.8520  -31.3900   28.8990 N.am  150  ASN150     -0.1974
    138  CA       -28.0130  -29.9370   28.9770 C.3   150  ASN150      0.1688
    139  C        -26.7810  -29.1640   29.4750 C.2   150  ASN150      0.2292
    140  O        -26.8730  -27.9570   29.7130 O.2   150  ASN150     -0.2864
    141  CB       -29.2820  -29.5780   29.7620 C.3   150  ASN150      0.1181
    142  CG       -30.5540  -30.0060   29.0740 C.2   150  ASN150      0.2629
    143  OD1      -30.6460  -30.0540   27.8430 O.2   150  ASN150     -0.2716
    144  ND2      -31.5700  -30.3180   29.8570 N.am  150  ASN150     -0.0877
    145  N        -23.0570  -28.2160   28.2160 N.3   152  LEU152     -0.1245
    146  CA       -22.1580  -28.1660   27.0610 C.3   152  LEU152      0.1561
    147  C        -20.7310  -27.8530   27.4920 C.2   152  LEU152      0.2260
    148  O        -20.5250  -27.1620   28.4900 O.2   152  LEU152     -0.2867
    149  CB       -22.6480  -27.1300   26.0260 C.3   152  LEU152      0.0270
    150  CG       -23.7200  -27.5260   24.9640 C.3   152  LEU152      0.0019
    151  CD1      -23.1260  -28.3050   23.8060 C.3   152  LEU152      0.0001
    152  CD2      -24.9560  -28.2010   25.5630 C.3   152  LEU152      0.0001
    153  N        -26.7660  -25.1730   29.8080 N.3   163  CYS163     -0.1221
    154  CA       -27.5840  -24.8100   28.6530 C.3   163  CYS163      0.1808
    155  C        -29.0340  -25.2880   28.7650 C.2   163  CYS163      0.2601
    156  O        -29.3820  -25.9820   29.7220 O.2   163  CYS163     -0.2717
    157  CB       -26.9220  -25.3170   27.3730 C.3   163  CYS163      0.0970
    158  SG       -25.1730  -24.8660   27.2140 S.3   163  CYS163     -0.0800
    159  N        -29.8680  -24.9160   27.7650 N.am  164  ASP164     -0.1973
    160  CA       -31.2890  -25.2510   27.6340 C.3   164  ASP164      0.1709
    161  C        -32.1340  -24.7590   28.8080 C.2   164  ASP164      0.2293
    162  O        -32.3690  -25.4930   29.7710 O.2   164  ASP164     -0.2864
    163  CB       -31.5110  -26.7460   27.3060 C.3   164  ASP164      0.1436
    164  CG       -32.9610  -27.1360   27.0690 C.2   164  ASP164      0.3671
    165  OD1      -33.6620  -26.4060   26.3280 O.co2 164  ASP164     -0.2456
    166  OD2      -33.3910  -28.1750   27.6150 O.co2 164  ASP164     -0.2456
@<TRIPOS>BOND
     1    46    45    2
     2    45    44    1
     3    43    44    1
     4    47    44    1
     5    47    48    1
     6     1     2    1
     7    48    49    1
     8    49    50    1
     9    39    38    2
    10    38    37    1
    11    50    51    2
    12     8     9    1
    13     8     3   am
    14     2     3    1
    15     2     5    1
    16    10     9    1
    17    10    11    2
    18     6     5    1
    19     3     4    2
    20    36    37    1
    21    37    40    1
    22     5     7    1
    23    51    52    1
    24    51    53    1
    25    56    55    1
    26    56    57    2
    27    54    55    1
    28    55    58    1
    29    61    62    2
    30    61    60    1
    31    59    60    1
    32    32    33    2
    33    32    31    1
    34    40    41    1
    35    40    42    1
    36    60    63    1
    37    31    34    1
    38    31    30    1
    39    34    35    1
    40    30    21   am
    41    63    64    1
    42    79    78    2
    43    15    14    2
    44    22    21    2
    45    76    77    1
    46    64    65    1
    47    12    13    1
    48    21    20    1
    49   127   126   ar
    50    99    98    2
    51    14    13    1
    52    14    19   am
    53    13    16    1
    54    78    77    1
    55    78    87   am
    56   111   110    1
    57    77    80    1
    58    96    97    1
    59    19    20    1
    60    89    90    2
    61    89    88    1
    62    20    23    1
    63    98    97    1
    64   126   128   ar
    65   126   125    1
    66    65    66    1
    67    80    81    1
    68    83    81   ar
    69    83    85   ar
    70    88    87    1
    71    88    91    1
    72    18    16    1
    73    16    17    1
    74    97   100    1
    75   108   105    1
    76   108   109    1
    77    81    82   ar
    78    85    86   ar
    79   125   124    1
    80   104   105    1
    81    66    67    1
    82   110   109    1
    83    23    24    1
    84   105   106    1
    85   124   121    1
    86    91    92    2
    87   100   101    1
    88    86    84   ar
    89    82    84   ar
    90    25    24   ar
    91    25    27   ar
    92   151   150    1
    93    24    26   ar
    94   119   117   am
    95   123   122    2
    96   106   112   am
    97   106   107    2
    98   121   122    1
    99   121   120    1
   100    92    93    1
   101   112   113    1
   102   101   102    1
   103   101   103    1
   104    27    29   ar
   105   117   118    2
   106   117   116    1
   107   150   152    1
   108   150   149    1
   109    26    28   ar
   110    75    73    1
   111    94    93   ar
   112   116   113    1
   113    93    95   ar
   114   113   114    1
   115    74    73    1
   116   115   114    2
   117   149   146    1
   118    29    28   ar
   119   165   164   ar
   120    73    72    1
   121   132   131    2
   122   136   134   ar
   123   146   147    1
   124   146   145    1
   125   164   163    1
   126   164   166   ar
   127   158   157    1
   128   163   160    1
   129   157   154    1
   130   147   148    2
   131   133   134    1
   132   133   130    1
   133   160   159    1
   134   160   161    1
   135    72    69    1
   136   159   155   am
   137   131   130    1
   138   131   137   am
   139   134   135   ar
   140   143   142    2
   141   130   129    1
   142    70    69    1
   143    70    71    2
   144    69    68    1
   145   154   155    1
   146   154   153    1
   147   155   156    2
   148   161   162    2
   149   137   138    1
   150   138   139    1
   151   138   141    1
   152   142   141    1
   153   142   144   am
   154   139   140    2
