@<TRIPOS>MOLECULE
tmp/4ifgA00.pdb
 188 174 0 0 0
SMALL
GASTEIGER

@<TRIPOS>ATOM
      1  N         -7.0080  -14.0850  100.7630 N.3    14  LEU14      -0.1231
      2  CA        -6.9970  -14.4160   99.3310 C.3    14  LEU14       0.1693
      3  C         -7.1900  -13.1980   98.4340 C.2    14  LEU14       0.2593
      4  O         -6.6870  -13.1630   97.3130 O.2    14  LEU14      -0.2718
      5  CB        -8.0150  -15.5170   99.0040 C.3    14  LEU14       0.0284
      6  CG        -7.7500  -16.8690   99.6830 C.3    14  LEU14       0.0019
      7  CD1       -8.8960  -17.8430   99.4500 C.3    14  LEU14       0.0001
      8  CD2       -6.4260  -17.4760   99.2300 C.3    14  LEU14       0.0001
      9  N         -7.9100  -12.2000   98.9380 N.am   15  GLY15      -0.1942
     10  CA        -8.0910  -10.9510   98.2240 C.3    15  GLY15       0.2014
     11  C         -9.4430  -10.2970   98.4470 C.2    15  GLY15       0.2639
     12  O        -10.2920  -10.8080   99.1840 O.2    15  GLY15      -0.2714
     13  N         -9.6180   -9.1480   97.8030 N.am   16  LYS16      -0.1963
     14  CA       -10.8720   -8.4320   97.7950 C.3    16  LYS16       0.1728
     15  C        -11.7500   -8.9920   96.6800 C.2    16  LYS16       0.2616
     16  O        -11.3180   -9.1180   95.5320 O.2    16  LYS16      -0.2715
     17  CB       -10.6240   -6.9280   97.5940 C.3    16  LYS16       0.0311
     18  CG       -11.8520   -6.0390   97.7890 C.3    16  LYS16       0.0038
     19  CD       -12.6060   -6.3860   99.0710 C.3    16  LYS16       0.0206
     20  CE       -13.8370   -5.5100   99.2740 C.3    16  LYS16       0.1093
     21  NZ       -14.7760   -5.5940   98.1230 N.3    16  LYS16      -0.1314
     22  N        -12.9760   -9.3550   97.0300 N.am   17  GLY17      -0.1955
     23  CA       -13.9640   -9.7160   96.0230 C.3    17  GLY17       0.1869
     24  C        -15.1610   -8.8160   96.2090 C.2    17  GLY17       0.2309
     25  O        -15.1590   -7.9730   97.1040 O.2    17  GLY17      -0.2863
     26  N        -11.9250  -12.0290  101.0830 N.3    22  VAL22      -0.1245
     27  CA       -11.9620  -13.4830  101.1280 C.3    22  VAL22       0.1561
     28  C        -10.7230  -14.0260  101.8440 C.2    22  VAL22       0.2260
     29  O         -9.5930  -13.6660  101.5030 O.2    22  VAL22      -0.2867
     30  CB       -12.0910  -14.0890   99.7130 C.3    22  VAL22       0.0252
     31  CG1      -12.1570  -15.6120   99.7760 C.3    22  VAL22       0.0019
     32  CG2      -13.3200  -13.5220   99.0090 C.3    22  VAL22       0.0019
     33  N        -12.7330  -21.3520  101.7680 N.3    35  ALA35      -0.1245
     34  CA       -12.6390  -19.9370  101.4070 C.3    35  ALA35       0.1562
     35  C        -13.8430  -19.1960  102.0020 C.2    35  ALA35       0.2260
     36  O        -14.9870  -19.6190  101.8350 O.2    35  ALA35      -0.2867
     37  CB       -12.5880  -19.7810   99.9010 C.3    35  ALA35       0.0290
     38  N        -15.9130  -15.6100  102.4640 N.3    37  LYS37      -0.1245
     39  CA       -16.1890  -14.2170  102.1250 C.3    37  LYS37       0.1561
     40  C        -16.7640  -13.5590  103.3610 C.2    37  LYS37       0.2260
     41  O        -17.7450  -14.0440  103.9400 O.2    37  LYS37      -0.2867
     42  CB       -17.1360  -14.0980  100.9180 C.3    37  LYS37       0.0271
     43  CG       -17.3390  -12.6650  100.4020 C.3    37  LYS37       0.0035
     44  CD       -17.7700  -12.6170   98.9320 C.3    37  LYS37       0.0206
     45  CE       -16.6040  -12.3580   97.9880 C.3    37  LYS37       0.1093
     46  NZ       -16.9940  -12.2800   96.5470 N.3    37  LYS37      -0.1314
     47  N        -29.1350  -22.1390   98.7730 N.3    60  LEU60      -0.1245
     48  CA       -27.7670  -22.1800   98.2280 C.3    60  LEU60       0.1561
     49  C        -26.9600  -23.3610   98.7620 C.2    60  LEU60       0.2260
     50  O        -26.2710  -24.0240   97.9960 O.2    60  LEU60      -0.2867
     51  CB       -27.0230  -20.8530   98.4640 C.3    60  LEU60       0.0270
     52  CG       -27.4720  -19.6530   97.6220 C.3    60  LEU60       0.0019
     53  CD1      -26.9140  -18.3540   98.1910 C.3    60  LEU60       0.0001
     54  CD2      -27.0790  -19.8080   96.1570 C.3    60  LEU60       0.0001
     55  N        -19.7290  -22.3850   92.4700 N.3    69  MET69      -0.1245
     56  CA       -19.0760  -22.5180   93.7620 C.3    69  MET69       0.1570
     57  C        -20.0140  -23.1010   94.8060 C.2    69  MET69       0.2261
     58  O        -21.1440  -22.6460   94.9700 O.2    69  MET69      -0.2867
     59  CB       -18.5070  -21.1950   94.2550 C.3    69  MET69       0.0387
     60  CG       -17.9630  -21.3230   95.6630 C.3    69  MET69       0.0595
     61  SD       -17.4030  -19.8000   96.4050 S.3    69  MET69      -0.1393
     62  CE       -17.2200  -20.3370   98.1010 C.3    69  MET69       0.0692
     63  N        -21.3310  -23.7210   98.4610 N.3    71  LEU71      -0.1245
     64  CA       -21.4220  -23.0840   99.7720 C.3    71  LEU71       0.1561
     65  C        -21.6620  -24.1260  100.8650 C.2    71  LEU71       0.2260
     66  O        -22.5760  -24.9460  100.7500 O.2    71  LEU71      -0.2867
     67  CB       -22.5530  -22.0420   99.7920 C.3    71  LEU71       0.0270
     68  CG       -22.8520  -21.3180  101.1190 C.3    71  LEU71       0.0019
     69  CD1      -21.8330  -20.2270  101.4300 C.3    71  LEU71       0.0001
     70  CD2      -24.2560  -20.7230  101.1230 C.3    71  LEU71       0.0001
     71  N        -19.6330  -16.1270  104.6220 N.3    83  LEU83      -0.1245
     72  CA       -20.0550  -17.1470  103.6540 C.3    83  LEU83       0.1561
     73  C        -18.9020  -18.1040  103.3920 C.2    83  LEU83       0.2260
     74  O        -17.8970  -17.7160  102.7830 O.2    83  LEU83      -0.2867
     75  CB       -20.4870  -16.5020  102.3420 C.3    83  LEU83       0.0270
     76  CG       -21.7260  -15.6080  102.4110 C.3    83  LEU83       0.0019
     77  CD1      -21.5400  -14.4090  101.4930 C.3    83  LEU83       0.0001
     78  CD2      -22.9750  -16.4090  102.0470 C.3    83  LEU83       0.0001
     79  N        -16.1690  -23.8530   99.2980 N.3    86  GLU86      -0.1231
     80  CA       -15.0530  -24.6260   98.7920 C.3    86  GLU86       0.1699
     81  C        -13.9620  -23.7070   98.2390 C.2    86  GLU86       0.2592
     82  O        -14.2600  -22.6950   97.5770 O.2    86  GLU86      -0.2718
     83  CB       -15.5720  -25.5930   97.7120 C.3    86  GLU86       0.0402
     84  CG       -14.5690  -26.6060   97.1710 C.3    86  GLU86       0.1161
     85  CD       -15.1930  -27.6070   96.1970 C.2    86  GLU86       0.3649
     86  OE1      -16.3520  -27.4130   95.7500 O.co2  86  GLU86      -0.2457
     87  OE2      -14.5110  -28.5980   95.8640 O.co2  86  GLU86      -0.2457
     88  N        -12.7100  -24.0710   98.5200 N.am   87  VAL87      -0.1966
     89  CA       -11.5860  -23.3030   98.0120 C.3    87  VAL87       0.1727
     90  C        -11.1980  -23.7870   96.6090 C.2    87  VAL87       0.2616
     91  O        -11.1670  -24.9820   96.3180 O.2    87  VAL87      -0.2715
     92  CB       -10.4030  -23.2550   99.0210 C.3    87  VAL87       0.0290
     93  CG1       -9.7490  -24.6200   99.1840 C.3    87  VAL87       0.0023
     94  CG2       -9.3860  -22.1890   98.6290 C.3    87  VAL87       0.0023
     95  N        -10.9620  -22.8250   95.7180 N.am   88  TYR88      -0.1974
     96  CA       -10.4880  -23.1420   94.3750 C.3    88  TYR88       0.1639
     97  C         -9.1120  -22.5130   94.1670 C.2    88  TYR88       0.2290
     98  O         -8.8670  -21.3930   94.5980 O.2    88  TYR88      -0.2864
     99  CB       -11.5090  -22.7350   93.3040 C.3    88  TYR88       0.0560
    100  CG       -12.8860  -23.2960   93.5920 C.ar   88  TYR88      -0.0198
    101  CD1      -13.1240  -24.6710   93.5350 C.ar   88  TYR88      -0.0009
    102  CD2      -13.9420  -22.4600   93.9480 C.ar   88  TYR88      -0.0009
    103  CE1      -14.3720  -25.1950   93.8170 C.ar   88  TYR88       0.0417
    104  CE2      -15.1990  -22.9750   94.2300 C.ar   88  TYR88       0.0417
    105  CZ       -15.4070  -24.3440   94.1660 C.ar   88  TYR88       0.1957
    106  OH       -16.6510  -24.8620   94.4550 O.3    88  TYR88      -0.2866
    107  N         -7.2110  -19.9270   90.2470 N.3    91  GLY91      -0.1210
    108  CA        -7.3200  -18.4940   89.9770 C.3    91  GLY91       0.1956
    109  C         -8.3770  -18.0970   88.9550 C.2    91  GLY91       0.2611
    110  O         -9.2210  -18.9010   88.5570 O.2    91  GLY91      -0.2717
    111  N         -8.3180  -16.8400   88.5330 N.am   92  GLU92      -0.1979
    112  CA        -9.3020  -16.2830   87.6170 C.3    92  GLU92       0.1602
    113  C         -9.0500  -16.7450   86.1910 C.2    92  GLU92       0.2287
    114  O         -7.9010  -16.8150   85.7520 O.2    92  GLU92      -0.2864
    115  CB        -9.3030  -14.7570   87.7080 C.3    92  GLU92       0.0415
    116  CG        -9.9750  -14.2470   88.9740 C.3    92  GLU92       0.1163
    117  CD        -9.6030  -12.8170   89.3360 C.2    92  GLU92       0.3649
    118  OE1       -9.0210  -12.0940   88.4970 O.co2  92  GLU92      -0.2457
    119  OE2       -9.9110  -12.4100   90.4730 O.co2  92  GLU92      -0.2457
    120  N         -6.6790  -14.7170   83.6040 N.3    95  ASP95      -0.1239
    121  CA        -5.2670  -14.8610   83.9730 C.3    95  ASP95       0.1674
    122  C         -4.6510  -16.1420   83.4070 C.2    95  ASP95       0.2266
    123  O         -3.5100  -16.1310   82.9570 O.2    95  ASP95      -0.2867
    124  CB        -5.0980  -14.8290   85.4940 C.3    95  ASP95       0.1410
    125  CG        -5.3610  -13.4550   86.0890 C.2    95  ASP95       0.3668
    126  OD1       -5.2230  -12.4320   85.3750 O.co2  95  ASP95      -0.2456
    127  OD2       -5.6990  -13.3970   87.2890 O.co2  95  ASP95      -0.2456
    128  N        -13.9530  -11.9030   86.3430 N.3   135  GLU135     -0.1245
    129  CA       -13.4170  -12.1960   87.6780 C.3   135  GLU135      0.1567
    130  C        -14.3120  -13.1130   88.5230 C.2   135  GLU135      0.2260
    131  O        -13.8500  -13.6580   89.5250 O.2   135  GLU135     -0.2867
    132  CB       -13.0400  -10.9160   88.4410 C.3   135  GLU135      0.0388
    133  CG       -14.2060  -10.0710   88.8890 C.3   135  GLU135      0.1160
    134  CD       -13.7850   -8.9210   89.7700 C.2   135  GLU135      0.3649
    135  OE1      -12.8460   -8.1900   89.4080 O.co2 135  GLU135     -0.2457
    136  OE2      -14.4080   -8.7450   90.8320 O.co2 135  GLU135     -0.2457
    137  N        -13.7950  -18.5760   88.3290 N.3   138  LEU138     -0.1245
    138  CA       -12.5890  -19.2250   88.8650 C.3   138  LEU138      0.1561
    139  C        -12.3680  -20.6000   88.2440 C.2   138  LEU138      0.2260
    140  O        -13.3220  -21.2950   87.8970 O.2   138  LEU138     -0.2867
    141  CB       -12.6800  -19.3660   90.3870 C.3   138  LEU138      0.0270
    142  CG       -12.8330  -18.1090   91.2430 C.3   138  LEU138      0.0019
    143  CD1      -12.7430  -18.4860   92.7130 C.3   138  LEU138      0.0001
    144  CD2      -11.8110  -17.0260   90.8930 C.3   138  LEU138      0.0001
    145  N        -18.4950  -17.7380   90.9310 N.3   151  ILE151     -0.1231
    146  CA       -18.6520  -17.2800   92.3010 C.3   151  ILE151      0.1692
    147  C        -19.6650  -16.1390   92.4140 C.2   151  ILE151      0.2592
    148  O        -19.9400  -15.4530   91.4390 O.2   151  ILE151     -0.2718
    149  CB       -17.3030  -16.8530   92.9060 C.3   151  ILE151      0.0266
    150  CG1      -16.6240  -15.7760   92.0360 C.3   151  ILE151      0.0019
    151  CG2      -16.4090  -18.0770   93.0820 C.3   151  ILE151      0.0020
    152  CD1      -15.5240  -15.0070   92.7420 C.3   151  ILE151      0.0001
    153  N        -20.2210  -15.9770   93.6080 N.am  152  ASP152     -0.1960
    154  CA       -21.0910  -14.8490   93.9760 C.3   152  ASP152      0.1840
    155  C        -22.5670  -14.8950   93.5280 C.2   152  ASP152      0.2622
    156  O        -23.2910  -13.9140   93.7240 O.2   152  ASP152     -0.2715
    157  CB       -20.4420  -13.5020   93.6150 C.3   152  ASP152      0.1450
    158  CG       -19.2470  -13.1700   94.5050 C.2   152  ASP152      0.3671
    159  OD1      -19.0630  -13.8470   95.5500 O.co2 152  ASP152     -0.2456
    160  OD2      -18.4950  -12.2250   94.1560 O.co2 152  ASP152     -0.2456
    161  N        -23.0230  -16.0160   92.9650 N.am  153  PHE153     -0.1974
    162  CA       -24.4540  -16.1560   92.6420 C.3   153  PHE153      0.1639
    163  C        -25.2990  -15.8680   93.8680 C.2   153  PHE153      0.2290
    164  O        -25.0740  -16.4480   94.9260 O.2   153  PHE153     -0.2864
    165  CB       -24.7940  -17.5590   92.1260 C.3   153  PHE153      0.0560
    166  CG       -25.1280  -17.6110   90.6640 C.ar  153  PHE153     -0.0200
    167  CD1      -26.3840  -17.2050   90.2070 C.ar  153  PHE153     -0.0042
    168  CD2      -24.1970  -18.0850   89.7330 C.ar  153  PHE153     -0.0042
    169  CE1      -26.6970  -17.2550   88.8530 C.ar  153  PHE153     -0.0003
    170  CE2      -24.5080  -18.1380   88.3810 C.ar  153  PHE153     -0.0003
    171  CZ       -25.7610  -17.7310   87.9390 C.ar  153  PHE153     -0.0000
    172  N        -25.7170  -12.9330   95.5740 N.3   155  LEU155     -0.1245
    173  CA       -25.3180  -11.8090   96.4260 C.3   155  LEU155      0.1561
    174  C        -25.9850  -10.4800   96.0490 C.2   155  LEU155      0.2260
    175  O        -26.4600   -9.7520   96.9220 O.2   155  LEU155     -0.2867
    176  CB       -23.7890  -11.6440   96.4450 C.3   155  LEU155      0.0270
    177  CG       -22.9710  -12.7110   97.1890 C.3   155  LEU155      0.0019
    178  CD1      -21.5180  -12.2840   97.3220 C.3   155  LEU155      0.0001
    179  CD2      -23.5570  -13.0050   98.5540 C.3   155  LEU155      0.0001
    180  N         -6.0910   -4.6120   85.5340 N.3   290  LYS290     -0.1245
    181  CA        -5.4450   -4.9450   86.8040 C.3   290  LYS290      0.1561
    182  C         -4.5640   -3.8400   87.3760 C.2   290  LYS290      0.2260
    183  O         -4.5050   -3.6740   88.5830 O.2   290  LYS290     -0.2867
    184  CB        -4.7060   -6.2960   86.7400 C.3   290  LYS290      0.0271
    185  CG        -5.6370   -7.4870   86.9530 C.3   290  LYS290      0.0035
    186  CD        -6.2370   -7.4790   88.3590 C.3   290  LYS290      0.0206
    187  CE        -7.6650   -8.0130   88.4080 C.3   290  LYS290      0.1093
    188  NZ        -7.7280   -9.4970   88.3280 N.3   290  LYS290     -0.1314
@<TRIPOS>BOND
     1   123   122    2
     2   122   121    1
     3   120   121    1
     4   121   124    1
     5   126   125   ar
     6   124   125    1
     7   180   181    1
     8   114   113    2
     9   125   127   ar
    10   113   112    1
    11   128   129    1
    12   184   181    1
    13   184   185    1
    14   181   182    1
    15   185   186    1
    16   182   183    2
    17   112   115    1
    18   112   111    1
    19   129   132    1
    20   129   130    1
    21   115   116    1
    22   140   139    2
    23   171   170   ar
    24   171   169   ar
    25   139   138    1
    26   188   187    1
    27   137   138    1
    28   186   187    1
    29   170   168   ar
    30   132   133    1
    31   118   117   ar
    32   130   131    2
    33   111   109   am
    34   110   109    2
    35   169   167   ar
    36   138   141    1
    37   133   134    1
    38   109   108    1
    39   116   117    1
    40   117   119   ar
    41   135   134   ar
    42   168   166   ar
    43   134   136   ar
    44   108   107    1
    45   167   166   ar
    46   141   142    1
    47   166   165    1
    48   144   142    1
    49   145   146    1
    50   142   143    1
    51   148   147    2
    52   150   152    1
    53   150   149    1
    54   165   162    1
    55   146   147    1
    56   146   149    1
    57   147   153   am
    58    55    56    1
    59   162   161    1
    60   162   163    1
    61   149   151    1
    62   161   155   am
    63    99   100    1
    64    99    96    1
    65   155   156    2
    66   155   154    1
    67   101   100   ar
    68   101   103   ar
    69   100   102   ar
    70   153   154    1
    71   157   154    1
    72   157   158    1
    73    56    59    1
    74    56    57    1
    75   103   105   ar
    76   163   164    2
    77   102   104   ar
    78   160   158   ar
    79   105   104   ar
    80   105   106    1
    81    97    96    1
    82    97    98    2
    83    59    60    1
    84    96    95    1
    85   158   159   ar
    86    57    58    2
    87    16    15    2
    88   172   173    1
    89    60    61    1
    90    95    90   am
    91    86    85   ar
    92    87    85   ar
    93    23    24    1
    94    23    22    1
    95   174   173    1
    96   174   175    2
    97    54    52    1
    98    85    84    1
    99    24    25    2
   100    91    90    2
   101    61    62    1
   102   173   176    1
   103   176   177    1
   104    46    45    1
   105    90    89    1
   106    15    22   am
   107    15    14    1
   108    84    83    1
   109   177   178    1
   110   177   179    1
   111     4     3    2
   112    82    81    2
   113    17    18    1
   114    17    14    1
   115    52    53    1
   116    52    51    1
   117    83    80    1
   118    18    19    1
   119    14    13    1
   120    13    11   am
   121    45    44    1
   122    50    49    2
   123    89    88    1
   124    89    92    1
   125    21    20    1
   126    10    11    1
   127    10     9    1
   128    48    51    1
   129    48    49    1
   130    48    47    1
   131    81    88   am
   132    81    80    1
   133     3     9   am
   134     3     2    1
   135    11    12    2
   136    63    64    1
   137    94    92    1
   138    80    79    1
   139    44    43    1
   140     5     2    1
   141     5     6    1
   142    32    30    1
   143    92    93    1
   144    19    20    1
   145     8     6    1
   146     2     1    1
   147     7     6    1
   148    30    31    1
   149    30    27    1
   150    64    67    1
   151    64    65    1
   152    67    68    1
   153    37    34    1
   154    43    42    1
   155    66    65    2
   156    42    39    1
   157    26    27    1
   158    68    70    1
   159    68    69    1
   160    27    28    1
   161    34    33    1
   162    34    35    1
   163    77    76    1
   164    29    28    2
   165    36    35    2
   166    78    76    1
   167    39    38    1
   168    39    40    1
   169    75    76    1
   170    75    72    1
   171    74    73    2
   172    40    41    2
   173    73    72    1
   174    72    71    1
