@<TRIPOS>MOLECULE
tmp/4ifiA00.pdb
 138 132 0 0 0
SMALL
GASTEIGER

@<TRIPOS>ATOM
      1  N        -19.8500    4.5250  -23.2540 N.3     6  VAL6       -0.1231
      2  CA       -18.6460    4.8390  -22.5360 C.3     6  VAL6        0.1692
      3  C        -18.3980    6.3630  -22.6730 C.2     6  VAL6        0.2593
      4  O        -18.8330    6.9700  -23.6640 O.2     6  VAL6       -0.2718
      5  CB       -17.5810    3.9640  -23.2510 C.3     6  VAL6        0.0266
      6  CG1      -16.4190    4.7420  -23.8310 C.3     6  VAL6        0.0020
      7  CG2      -17.2720    2.6870  -22.4830 C.3     6  VAL6        0.0020
      8  N        -17.7340    6.9910  -21.6950 N.am    7  SER7       -0.1938
      9  CA       -17.4030    8.4000  -21.8050 C.3     7  SER7        0.2055
     10  C        -16.1040    8.6980  -21.0720 C.2     7  SER7        0.2644
     11  O        -15.8940    8.2560  -19.9190 O.2     7  SER7       -0.2714
     12  CB       -18.5620    9.2470  -21.2390 C.3     7  SER7        0.2130
     13  OG       -18.3410   10.6580  -21.3690 O.3     7  SER7       -0.2179
     14  N        -15.2290    9.4540  -21.7300 N.am    8  GLY8       -0.1939
     15  CA       -14.0550   10.0250  -21.0560 C.3     8  GLY8        0.2014
     16  C        -12.8960    9.0620  -21.0670 C.2     8  GLY8        0.2638
     17  O        -11.9670    9.2020  -20.3040 O.2     8  GLY8       -0.2714
     18  N        -12.9380    8.0950  -21.9690 N.am    9  LEU9       -0.1977
     19  CA       -11.9630    7.0250  -21.9840 C.3     9  LEU9        0.1596
     20  C        -11.0180    7.2010  -23.1460 C.2     9  LEU9        0.2287
     21  O        -11.4640    7.6720  -24.2080 O.2     9  LEU9       -0.2864
     22  CB       -12.6880    5.6860  -22.1310 C.3     9  LEU9        0.0297
     23  CG       -13.5370    5.1640  -20.9640 C.3     9  LEU9        0.0022
     24  CD1      -14.1100    3.7740  -21.2660 C.3     9  LEU9        0.0001
     25  CD2      -12.7800    5.0540  -19.6500 C.3     9  LEU9        0.0001
     26  N        -15.6210   13.5470  -14.6210 N.3    50  GLU50      -0.1231
     27  CA       -15.8530   14.8170  -15.2950 C.3    50  GLU50       0.1699
     28  C        -17.2060   14.7700  -16.0050 C.2    50  GLU50       0.2592
     29  O        -17.6650   13.6670  -16.3920 O.2    50  GLU50      -0.2718
     30  CB       -14.7500   15.0740  -16.3190 C.3    50  GLU50       0.0402
     31  CG       -13.4440   15.3670  -15.6230 C.3    50  GLU50       0.1161
     32  CD       -12.3270   15.7010  -16.5770 C.2    50  GLU50       0.3649
     33  OE1      -12.2670   15.1650  -17.7040 O.co2  50  GLU50      -0.2457
     34  OE2      -11.5100   16.5160  -16.1820 O.co2  50  GLU50      -0.2457
     35  N        -17.7770   15.9590  -16.2240 N.am   51  ARG51      -0.1966
     36  CA       -19.0750   16.1160  -16.8500 C.3    51  ARG51       0.1729
     37  C        -18.9910   16.1800  -18.3550 C.2    51  ARG51       0.2617
     38  O        -18.5460   17.1810  -18.9060 O.2    51  ARG51      -0.2715
     39  CB       -19.7290   17.4140  -16.4040 C.3    51  ARG51       0.0348
     40  CG       -19.9700   17.5410  -14.9220 C.3    51  ARG51       0.0492
     41  CD       -19.7760   18.9870  -14.5710 C.3    51  ARG51       0.2205
     42  NE       -20.9480   19.6200  -14.0450 N.pl3  51  ARG51      -0.0865
     43  CZ       -21.3870   20.8170  -14.4240 C.cat  51  ARG51       0.5346
     44  NH1      -20.7930   21.5310  -15.3710 N.pl3  51  ARG51       0.1354
     45  NH2      -22.4450   21.2980  -13.8280 N.pl3  51  ARG51       0.1354
     46  N        -19.4420   15.1310  -19.0280 N.am   52  THR52      -0.1937
     47  CA       -19.4870   15.1490  -20.4640 C.3    52  THR52       0.2028
     48  C        -20.9470   15.1050  -20.7620 C.2    52  THR52       0.2642
     49  O        -21.7230   14.8130  -19.8570 O.2    52  THR52      -0.2714
     50  CB       -18.9180   13.8650  -20.9400 C.3    52  THR52       0.1808
     51  OG1      -19.7310   12.7840  -20.4020 O.3    52  THR52      -0.2208
     52  CG2      -17.4210   13.7810  -20.4700 C.3    52  THR52       0.0379
     53  N        -21.3400   15.3720  -22.0050 N.am   53  LEU53      -0.1963
     54  CA       -22.7650   15.2260  -22.3980 C.3    53  LEU53       0.1728
     55  C        -23.3600   13.8450  -22.0030 C.2    53  LEU53       0.2616
     56  O        -24.4170   13.7740  -21.3500 O.2    53  LEU53      -0.2715
     57  CB       -22.9730   15.5070  -23.9010 C.3    53  LEU53       0.0311
     58  CG       -24.4110   15.4480  -24.4480 C.3    53  LEU53       0.0022
     59  CD1      -25.3900   16.4340  -23.7570 C.3    53  LEU53       0.0001
     60  CD2      -24.4090   15.6250  -25.9620 C.3    53  LEU53       0.0001
     61  N        -22.6820   12.7550  -22.3610 N.am   54  LYS54      -0.1977
     62  CA       -23.1700   11.4240  -21.9720 C.3    54  LYS54       0.1596
     63  C        -23.4570   11.3020  -20.4860 C.2    54  LYS54       0.2287
     64  O        -24.4260   10.6700  -20.1080 O.2    54  LYS54      -0.2864
     65  CB       -22.2260   10.3260  -22.4210 C.3    54  LYS54       0.0298
     66  CG       -22.0980   10.2520  -23.9250 C.3    54  LYS54       0.0038
     67  CD       -21.3220    9.0230  -24.3250 C.3    54  LYS54       0.0206
     68  CE       -20.6970    9.2560  -25.6860 C.3    54  LYS54       0.1093
     69  NZ       -19.9470    8.0250  -26.1280 N.3    54  LYS54      -0.1314
     70  N        -24.4820   13.7800  -18.4440 N.3    56  PHE56      -0.1241
     71  CA       -25.7380   14.4420  -18.1470 C.3    56  PHE56       0.1605
     72  C        -26.9200   13.5970  -18.6120 C.2    56  PHE56       0.2264
     73  O        -27.9690   13.5620  -17.9540 O.2    56  PHE56      -0.2867
     74  CB       -25.7950   15.7780  -18.8740 C.3    56  PHE56       0.0534
     75  CG       -24.8560   16.8210  -18.3260 C.ar   56  PHE56      -0.0203
     76  CD1      -25.0360   17.3580  -17.0400 C.ar   56  PHE56      -0.0042
     77  CD2      -23.8210   17.3170  -19.1130 C.ar   56  PHE56      -0.0042
     78  CE1      -24.1570   18.3420  -16.5420 C.ar   56  PHE56      -0.0003
     79  CE2      -22.9640   18.2870  -18.6350 C.ar   56  PHE56      -0.0003
     80  CZ       -23.1320   18.8070  -17.3530 C.ar   56  PHE56      -0.0000
     81  N        -16.3340   16.5880  -10.6670 N.3    92  VAL92      -0.1231
     82  CA       -15.3380   17.5650  -10.2310 C.3    92  VAL92       0.1692
     83  C        -15.9370   18.9800  -10.2320 C.2    92  VAL92       0.2591
     84  O        -15.2390   19.9490   -9.9140 O.2    92  VAL92      -0.2718
     85  CB       -14.0480   17.5100  -11.1140 C.3    92  VAL92       0.0266
     86  CG1      -13.5560   16.0580  -11.3280 C.3    92  VAL92       0.0020
     87  CG2      -14.2800   18.1510  -12.4770 C.3    92  VAL92       0.0020
     88  N        -17.2120   19.1260  -10.5900 N.am   93  VAL93      -0.1980
     89  CA       -17.7920   20.4690  -10.5820 C.3    93  VAL93       0.1595
     90  C        -18.7850   20.6590   -9.4470 C.2    93  VAL93       0.2287
     91  O        -18.6870   21.5670   -8.6670 O.2    93  VAL93      -0.2864
     92  CB       -18.4380   20.8420  -11.9390 C.3    93  VAL93       0.0276
     93  CG1      -19.1850   22.1710  -11.8140 C.3    93  VAL93       0.0022
     94  CG2      -17.3600   20.9520  -13.0120 C.3    93  VAL93       0.0022
     95  N        -20.4950   23.2380  -28.2860 N.3   126  ASN126     -0.1225
     96  CA       -20.0790   21.9930  -27.6720 C.3   126  ASN126      0.1785
     97  C        -21.1950   21.0500  -27.2640 C.2   126  ASN126      0.2600
     98  O        -20.9090   20.0410  -26.6690 O.2   126  ASN126     -0.2717
     99  CB       -19.2000   22.2810  -26.4460 C.3   126  ASN126      0.1169
    100  CG       -17.7650   22.5890  -26.8150 C.2   126  ASN126      0.2627
    101  OD1      -17.0910   23.3330  -26.1140 O.2   126  ASN126     -0.2716
    102  ND2      -17.2950   22.0180  -27.9070 N.am  126  ASN126     -0.0877
    103  N        -22.4480   21.3900  -27.5470 N.am  127  MET127     -0.1934
    104  CA       -23.5970   20.5550  -27.1600 C.3   127  MET127      0.1821
    105  C        -24.7570   20.9710  -28.0730 C.2   127  MET127      0.2332
    106  O        -25.2730   22.0810  -27.9410 O.2   127  MET127     -0.2860
    107  CB       -23.9810   20.8080  -25.6870 C.2   127  MET127      0.0096
    108  CG       -25.2290   20.0620  -25.2030 C.2   127  MET127      0.0285
    109  SD       -25.7070   20.3440  -23.4810 S.3   127  MET127     -0.1125
    110  CE       -24.2370   19.7640  -22.6240 C.3   127  MET127      0.0742
    111  N        -27.0260   28.3460  -19.0870 N.3   187  ARG187     -0.1231
    112  CA       -27.1090   26.9070  -19.3160 C.3   187  ARG187      0.1694
    113  C        -26.5710   26.1030  -18.1310 C.2   187  ARG187      0.2591
    114  O        -26.9670   24.9720  -17.9060 O.2   187  ARG187     -0.2718
    115  CB       -26.3590   26.5530  -20.5980 C.3   187  ARG187      0.0321
    116  CG       -26.5670   25.1110  -21.0770 C.3   187  ARG187      0.0489
    117  CD       -25.6990   24.7600  -22.2870 C.3   187  ARG187      0.2205
    118  NE       -24.2730   24.9690  -22.0040 N.pl3 187  ARG187     -0.0865
    119  CZ       -23.2710   24.7110  -22.8410 C.cat 187  ARG187      0.5346
    120  NH1      -23.4590   24.2280  -24.0650 N.pl3 187  ARG187      0.1354
    121  NH2      -22.0530   24.9550  -22.4490 N.pl3 187  ARG187      0.1354
    122  N        -25.7160   26.7210  -17.3300 N.am  188  GLU188     -0.1979
    123  CA       -25.2270   26.0830  -16.1100 C.3   188  GLU188      0.1602
    124  C        -26.3510   25.8330  -15.1260 C.2   188  GLU188      0.2287
    125  O        -26.2290   24.9660  -14.2770 O.2   188  GLU188     -0.2864
    126  CB       -24.1510   26.9380  -15.4480 C.3   188  GLU188      0.0415
    127  CG       -22.9270   27.0580  -16.3140 C.3   188  GLU188      0.1163
    128  CD       -22.2560   25.7050  -16.4390 C.2   188  GLU188      0.3649
    129  OE1      -22.2940   24.9350  -15.4460 O.co2 188  GLU188     -0.2457
    130  OE2      -21.7110   25.3830  -17.5170 O.co2 188  GLU188     -0.2457
    131  N        -27.3720   22.4290  -16.1550 N.3   191  LEU191     -0.1245
    132  CA       -26.3410   21.4060  -16.0730 C.3   191  LEU191      0.1561
    133  C        -26.1250   21.0370  -14.6100 C.2   191  LEU191      0.2260
    134  O        -26.0410   19.8480  -14.2620 O.2   191  LEU191     -0.2867
    135  CB       -25.0580   21.9220  -16.7270 C.3   191  LEU191      0.0270
    136  CG       -25.1280   22.3290  -18.2090 C.3   191  LEU191      0.0019
    137  CD1      -23.7330   22.7810  -18.6500 C.3   191  LEU191      0.0001
    138  CD2      -25.6210   21.2100  -19.1060 C.3   191  LEU191      0.0001
@<TRIPOS>BOND
     1    95    96    1
     2   105   106    2
     3   105   104    1
     4   102   100   am
     5    96    97    1
     6    96    99    1
     7   103    97   am
     8   103   104    1
     9    97    98    2
    10   104   107    1
    11   100    99    1
    12   100   101    2
    13    69    68    1
    14    60    58    1
    15   107   108    2
    16    68    67    1
    17   108   109    1
    18    58    57    1
    19    58    59    1
    20    67    66    1
    21    21    20    2
    22   120   119    1
    23    66    65    1
    24    57    54    1
    25     6     5    1
    26     4     3    2
    27   109   110    1
    28     1     2    1
    29     5     2    1
    30     5     7    1
    31    20    19    1
    32   119   121    1
    33   119   118    2
    34     3     2    1
    35     3     8   am
    36    65    62    1
    37    54    53    1
    38    54    55    1
    39    61    55   am
    40    61    62    1
    41   117   118    1
    42   117   116    1
    43    22    19    1
    44    22    23    1
    45    53    48   am
    46    55    56    2
    47    19    18    1
    48    62    63    1
    49    18    16   am
    50     9     8    1
    51     9    12    1
    52     9    10    1
    53    14    10   am
    54    14    15    1
    55    13    12    1
    56    24    23    1
    57   116   115    1
    58    10    11    2
    59    16    15    1
    60    16    17    2
    61    23    25    1
    62    50    52    1
    63    50    47    1
    64    50    51    1
    65    48    47    1
    66    48    49    2
    67   115   112    1
    68    63    64    2
    69    47    46    1
    70   112   111    1
    71   112   113    1
    72    77    79   ar
    73    77    75   ar
    74   138   136    1
    75    46    37   am
    76    38    37    2
    77    74    75    1
    78    74    71    1
    79   137   136    1
    80    79    80   ar
    81    72    71    1
    82    72    73    2
    83    70    71    1
    84    37    36    1
    85    75    76   ar
    86   136   135    1
    87   113   114    2
    88   113   122   am
    89    33    32   ar
    90   130   128   ar
    91    80    78   ar
    92   122   123    1
    93    76    78   ar
    94    36    39    1
    95    36    35    1
    96   135   132    1
    97    32    34   ar
    98    32    31    1
    99   128   127    1
   100   128   129   ar
   101    39    40    1
   102    29    28    2
   103    30    31    1
   104    30    27    1
   105   127   126    1
   106    35    28   am
   107   131   132    1
   108   123   126    1
   109   123   124    1
   110   132   133    1
   111    28    27    1
   112    44    43    1
   113    27    26    1
   114   124   125    2
   115    40    41    1
   116   133   134    2
   117    41    42    1
   118    43    42    2
   119    43    45    1
   120    94    92    1
   121    87    85    1
   122    92    93    1
   123    92    89    1
   124    86    85    1
   125    85    82    1
   126    81    82    1
   127    88    89    1
   128    88    83   am
   129    89    90    1
   130    83    82    1
   131    83    84    2
   132    90    91    2
