@<TRIPOS>MOLECULE
tmp/4ifvA01.pdb
 84 77 0 0 0
SMALL
GASTEIGER

@<TRIPOS>ATOM
      1  N          3.2350   12.2630    9.5590 N.3   457  ALA457     -0.1245
      2  CA         4.4940   11.9860    8.8850 C.3   457  ALA457      0.1562
      3  C          4.2180   11.9960    7.3920 C.2   457  ALA457      0.2260
      4  O          3.1160   11.6500    6.9640 O.2   457  ALA457     -0.2867
      5  CB         5.0420   10.6440    9.3170 C.3   457  ALA457      0.0290
      6  N          0.4340   11.0310    6.4450 N.3   469  VAL469     -0.1245
      7  CA        -0.2970   10.0610    7.2620 C.3   469  VAL469      0.1561
      8  C         -0.5510   10.5810    8.6750 C.2   469  VAL469      0.2260
      9  O          0.3960   10.9710    9.3580 O.2   469  VAL469     -0.2867
     10  CB         0.4640    8.7230    7.3610 C.3   469  VAL469      0.0252
     11  CG1       -0.3410    7.7150    8.1620 C.3   469  VAL469      0.0019
     12  CG2        0.7750    8.1880    5.9690 C.3   469  VAL469      0.0019
     13  N         -1.2230   10.1930   12.6100 N.3   471  LEU471     -0.1245
     14  CA        -0.6580    9.2080   13.5310 C.3   471  LEU471      0.1561
     15  C         -1.1240    9.4300   14.9710 C.2   471  LEU471      0.2260
     16  O         -1.4380   10.5520   15.3680 O.2   471  LEU471     -0.2867
     17  CB         0.8680    9.2700   13.4770 C.3   471  LEU471      0.0270
     18  CG         1.5200    8.9270   12.1370 C.3   471  LEU471      0.0019
     19  CD1        2.9640    9.4020   12.1090 C.3   471  LEU471      0.0001
     20  CD2        1.4390    7.4300   11.8770 C.3   471  LEU471      0.0001
     21  N          9.7920    9.9460   16.5930 N.3   478  LYS478     -0.1245
     22  CA         9.2440    8.7680   15.9390 C.3   478  LYS478      0.1561
     23  C          8.6600    9.1260   14.5760 C.2   478  LYS478      0.2260
     24  O          8.8060    8.3650   13.6200 O.2   478  LYS478     -0.2867
     25  CB         8.1990    8.0760   16.8130 C.3   478  LYS478      0.0271
     26  CG         7.8530    6.6840   16.3230 C.3   478  LYS478      0.0035
     27  CD         6.9070    5.9650   17.2700 C.3   478  LYS478      0.0206
     28  CE         6.7940    4.4920   16.9050 C.3   478  LYS478      0.1093
     29  NZ         5.8070    3.7790   17.7640 N.3   478  LYS478     -0.1314
     30  N          9.2150    7.6880   10.9040 N.3   482  GLN482     -0.1245
     31  CA         8.0210    7.2420   10.1890 C.3   482  GLN482      0.1566
     32  C          8.0010    7.8300    8.7780 C.2   482  GLN482      0.2260
     33  O          7.6940    7.1340    7.8170 O.2   482  GLN482     -0.2867
     34  CB         6.7530    7.5690   10.9950 C.3   482  GLN482      0.0367
     35  CG         6.5520    6.5950   12.1700 C.3   482  GLN482      0.0905
     36  CD         5.5660    7.0640   13.2240 C.2   482  GLN482      0.2608
     37  OE1        5.5520    8.2330   13.6110 O.2   482  GLN482     -0.2717
     38  NE2        4.7450    6.1370   13.7160 N.am  482  GLN482     -0.0878
     39  N         10.4660    6.0380    6.6170 N.3   485  TYR485     -0.1227
     40  CA         9.9000    4.7470    6.2530 C.3   485  TYR485      0.1736
     41  C          8.9460    4.8990    5.0660 C.2   485  TYR485      0.2595
     42  O          8.9790    4.1020    4.1250 O.2   485  TYR485     -0.2718
     43  CB         9.1680    4.1060    7.4350 C.3   485  TYR485      0.0548
     44  CG         8.4490    2.8290    7.0550 C.ar  485  TYR485     -0.0200
     45  CD1        9.1010    1.6090    7.1030 C.ar  485  TYR485     -0.0009
     46  CD2        7.1210    2.8450    6.6300 C.ar  485  TYR485     -0.0009
     47  CE1        8.4620    0.4370    6.7560 C.ar  485  TYR485      0.0417
     48  CE2        6.4710    1.6740    6.2730 C.ar  485  TYR485      0.0417
     49  CZ         7.1520    0.4720    6.3400 C.ar  485  TYR485      0.1957
     50  OH         6.5300   -0.7040    5.9950 O.3   485  TYR485     -0.2866
     51  N          8.0870    5.9160    5.1140 N.am  486  LEU486     -0.1980
     52  CA         7.1390    6.1370    4.0190 C.3   486  LEU486      0.1596
     53  C          7.8660    6.3990    2.6940 C.2   486  LEU486      0.2287
     54  O          7.4630    5.8870    1.6520 O.2   486  LEU486     -0.2864
     55  CB         6.1820    7.2860    4.3420 C.3   486  LEU486      0.0297
     56  CG         5.2130    7.0750    5.5070 C.3   486  LEU486      0.0022
     57  CD1        4.4530    8.3570    5.8060 C.3   486  LEU486      0.0001
     58  CD2        4.2430    5.9400    5.2000 C.3   486  LEU486      0.0001
     59  N         11.0320   -1.5340   16.5130 N.3   518  GLU518     -0.1231
     60  CA        10.3850   -2.1870   15.3860 C.3   518  GLU518      0.1699
     61  C         10.3850   -1.2880   14.1510 C.2   518  GLU518      0.2592
     62  O         10.5300   -1.7660   13.0210 O.2   518  GLU518     -0.2718
     63  CB         8.9600   -2.6090   15.7590 C.3   518  GLU518      0.0402
     64  CG         8.1860   -3.3110   14.6460 C.3   518  GLU518      0.1161
     65  CD         8.8100   -4.6300   14.1780 C.2   518  GLU518      0.3649
     66  OE1        9.8470   -5.0690   14.7250 O.co2 518  GLU518     -0.2457
     67  OE2        8.2410   -5.2380   13.2450 O.co2 518  GLU518     -0.2457
     68  N         10.2480    0.0150   14.3790 N.am  519  LEU519     -0.1980
     69  CA        10.2750    0.9930   13.2990 C.3   519  LEU519      0.1596
     70  C         11.6320    1.0200   12.5870 C.2   519  LEU519      0.2287
     71  O         11.6930    1.0140   11.3570 O.2   519  LEU519     -0.2864
     72  CB         9.9290    2.3790   13.8390 C.3   519  LEU519      0.0297
     73  CG         9.8730    3.5360   12.8410 C.3   519  LEU519      0.0022
     74  CD1        8.9640    3.1940   11.6530 C.3   519  LEU519      0.0001
     75  CD2        9.3770    4.7920   13.5400 C.3   519  LEU519      0.0001
     76  N         11.9790   -2.1240   10.4270 N.3   522  GLN522     -0.1245
     77  CA        11.2630   -2.0800    9.1650 C.3   522  GLN522      0.1566
     78  C         11.9580   -1.1300    8.1980 C.2   522  GLN522      0.2260
     79  O         11.9910   -1.3810    6.9950 O.2   522  GLN522     -0.2867
     80  CB         9.7890   -1.7200    9.3710 C.3   522  GLN522      0.0367
     81  CG         9.0130   -2.8340   10.0530 C.3   522  GLN522      0.0905
     82  CD         7.5230   -2.7830    9.7770 C.2   522  GLN522      0.2608
     83  OE1        7.0450   -1.9440    9.0110 O.2   522  GLN522     -0.2717
     84  NE2        6.7790   -3.6910   10.4010 N.am  522  GLN522     -0.0878
@<TRIPOS>BOND
     1    54    53    2
     2    53    52    1
     3    52    55    1
     4    52    51    1
     5    42    41    2
     6    55    56    1
     7    41    51   am
     8    41    40    1
     9    58    56    1
    10    56    57    1
    11    12    10    1
    12    50    49    1
    13    40    39    1
    14    40    43    1
    15    48    49   ar
    16    48    46   ar
    17    49    47   ar
    18     6     7    1
    19    46    44   ar
    20    47    45   ar
    21     4     3    2
    22    79    78    2
    23    44    45   ar
    24    44    43    1
    25     7    10    1
    26     7     8    1
    27    10    11    1
    28     3     2    1
    29    33    32    2
    30    78    77    1
    31     8     9    2
    32    32    31    1
    33     2     5    1
    34     2     1    1
    35    83    82    2
    36    77    80    1
    37    77    76    1
    38    80    81    1
    39    82    81    1
    40    82    84   am
    41    31    30    1
    42    31    34    1
    43    34    35    1
    44    71    70    2
    45    74    73    1
    46    20    18    1
    47    19    18    1
    48    18    17    1
    49    35    36    1
    50    70    69    1
    51    13    14    1
    52    73    75    1
    53    73    72    1
    54    62    61    2
    55    36    37    2
    56    36    38   am
    57    67    65   ar
    58    69    72    1
    59    69    68    1
    60    17    14    1
    61    14    15    1
    62    24    23    2
    63    61    68   am
    64    61    60    1
    65    65    64    1
    66    65    66   ar
    67    23    22    1
    68    64    63    1
    69    15    16    2
    70    60    63    1
    71    60    59    1
    72    22    21    1
    73    22    25    1
    74    26    25    1
    75    26    27    1
    76    28    27    1
    77    28    29    1
