@<TRIPOS>MOLECULE
tmp/4ifwA00.pdb
 187 175 0 0 0
SMALL
GASTEIGER

@<TRIPOS>ATOM
      1  N         27.8180   30.5820   19.1090 N.3    91  ALA91      -0.1231
      2  CA        29.0710   29.8650   18.8790 C.3    91  ALA91       0.1694
      3  C         30.2310   30.8490   18.7780 C.2    91  ALA91       0.2592
      4  O         31.2760   30.6520   19.3900 O.2    91  ALA91      -0.2718
      5  CB        28.9790   29.0280   17.6230 C.3    91  ALA91       0.0304
      6  N         30.0470   31.8880   17.9680 N.am   92  PHE92      -0.1962
      7  CA        30.8970   33.0720   18.0160 C.3    92  PHE92       0.1771
      8  C         30.2790   34.0390   19.0160 C.2    92  PHE92       0.2620
      9  O         29.1160   34.4120   18.8840 O.2    92  PHE92      -0.2715
     10  CB        30.9850   33.7280   16.6360 C.3    92  PHE92       0.0574
     11  CG        31.6310   35.0870   16.6440 C.ar   92  PHE92      -0.0200
     12  CD1       32.9870   35.2260   16.4060 C.ar   92  PHE92      -0.0042
     13  CD2       30.8780   36.2260   16.8800 C.ar   92  PHE92      -0.0042
     14  CE1       33.5820   36.4760   16.4090 C.ar   92  PHE92      -0.0003
     15  CE2       31.4670   37.4780   16.8840 C.ar   92  PHE92      -0.0003
     16  CZ        32.8200   37.6020   16.6500 C.ar   92  PHE92      -0.0000
     17  N         31.0500   34.4280   20.0260 N.am   93  ASN93      -0.1959
     18  CA        30.5490   35.3120   21.0730 C.3    93  ASN93       0.1804
     19  C         31.5510   36.4130   21.4060 C.2    93  ASN93       0.2463
     20  O         32.6170   36.1390   21.9570 O.2    93  ASN93      -0.2730
     21  CB        30.2320   34.5010   22.3290 C.3    93  ASN93       0.1195
     22  CG        29.5750   35.3350   23.4110 C.2    93  ASN93       0.2630
     23  OD1       29.6960   36.5590   23.4270 O.2    93  ASN93      -0.2716
     24  ND2       28.8780   34.6720   24.3270 N.am   93  ASN93      -0.0877
     25  N         31.2070   37.6680   21.0760 N.am   94  PRO94      -0.2727
     26  CA        32.1100   38.8060   21.2900 C.3    94  PRO94       0.1402
     27  C         32.1270   39.3070   22.7350 C.2    94  PRO94       0.2269
     28  O         32.9170   40.1900   23.0650 O.2    94  PRO94      -0.2865
     29  CB        31.5350   39.8790   20.3630 C.3    94  PRO94       0.0296
     30  CG        30.0790   39.5760   20.3040 C.3    94  PRO94       0.0237
     31  CD        29.9460   38.0780   20.4330 C.3    94  PRO94       0.0939
     32  N         32.8180   37.3790   25.3910 N.3    96  LEU96      -0.1245
     33  CA        33.3670   36.2090   26.0700 C.3    96  LEU96       0.1561
     34  C         34.5830   36.5570   26.9290 C.2    96  LEU96       0.2260
     35  O         35.2560   35.6710   27.4560 O.2    96  LEU96      -0.2867
     36  CB        33.7560   35.1590   25.0270 C.3    96  LEU96       0.0270
     37  CG        33.6270   33.6780   25.3830 C.3    96  LEU96       0.0019
     38  CD1       32.2720   33.3600   25.9920 C.3    96  LEU96       0.0001
     39  CD2       33.8460   32.8440   24.1320 C.3    96  LEU96       0.0001
     40  N         37.6580   34.2330   28.6180 N.3   100  VAL100     -0.1245
     41  CA        38.9350   34.2420   27.9160 C.3   100  VAL100      0.1561
     42  C         40.0550   34.7090   28.8370 C.2   100  VAL100      0.2260
     43  O         41.1630   34.1740   28.8010 O.2   100  VAL100     -0.2867
     44  CB        38.8960   35.1490   26.6680 C.3   100  VAL100      0.0252
     45  CG1       40.2920   35.3010   26.0730 C.3   100  VAL100      0.0019
     46  CG2       37.9290   34.5880   25.6280 C.3   100  VAL100      0.0019
     47  N         43.4350   32.9490   29.5750 N.3   104  ASN104     -0.1240
     48  CA        44.6280   33.7210   29.2380 C.3   104  ASN104      0.1653
     49  C         45.7120   33.6170   30.3090 C.2   104  ASN104      0.2266
     50  O         46.9000   33.7160   30.0050 O.2   104  ASN104     -0.2867
     51  CB        44.2650   35.1920   29.0120 C.3   104  ASN104      0.1155
     52  CG        44.1370   35.5450   27.5400 C.2   104  ASN104      0.2627
     53  OD1       44.2680   34.6860   26.6670 O.2   104  ASN104     -0.2716
     54  ND2       43.8730   36.8180   27.2590 N.am  104  ASN104     -0.0877
     55  N         35.5120   41.1000   23.9620 N.3   152  ASP152     -0.1239
     56  CA        36.7640   40.6330   23.3790 C.3   152  ASP152      0.1674
     57  C         36.5500   40.3850   21.8880 C.2   152  ASP152      0.2266
     58  O         35.8380   39.4600   21.4990 O.2   152  ASP152     -0.2867
     59  CB        37.2540   39.3640   24.0760 C.3   152  ASP152      0.1410
     60  CG        38.4580   38.7450   23.3870 C.2   152  ASP152      0.3668
     61  OD1       39.0550   39.4080   22.5140 O.co2 152  ASP152     -0.2456
     62  OD2       38.8150   37.5980   23.7250 O.co2 152  ASP152     -0.2456
     63  N         38.8190   39.6290   19.6260 N.3   154  GLY154     -0.1210
     64  CA        39.9620   38.9220   19.0800 C.3   154  GLY154      0.1956
     65  C         39.6540   38.0100   17.9070 C.2   154  GLY154      0.2611
     66  O         40.5420   37.7020   17.1130 O.2   154  GLY154     -0.2717
     67  N         38.4020   37.5780   17.7880 N.am  155  ALA155     -0.1979
     68  CA        38.0260   36.6130   16.7580 C.3   155  ALA155      0.1597
     69  C         37.4600   37.2720   15.4990 C.2   155  ALA155      0.2287
     70  O         37.1520   36.5860   14.5200 O.2   155  ALA155     -0.2864
     71  CB        37.0290   35.6100   17.3220 C.3   155  ALA155      0.0319
     72  N         40.9310   41.1410   13.2850 N.3   158  LYS158     -0.1245
     73  CA        41.8220   41.0710   12.1350 C.3   158  LYS158      0.1561
     74  C         41.0400   41.2270   10.8350 C.2   158  LYS158      0.2260
     75  O         41.4740   41.9270    9.9220 O.2   158  LYS158     -0.2867
     76  CB        42.6010   39.7540   12.1360 C.3   158  LYS158      0.0271
     77  CG        43.7060   39.6930   13.1810 C.3   158  LYS158      0.0035
     78  CD        44.4380   38.3620   13.1300 C.3   158  LYS158      0.0206
     79  CE        45.3350   38.1660   14.3390 C.3   158  LYS158      0.1093
     80  NZ        44.6470   37.4050   15.4180 N.3   158  LYS158     -0.1314
     81  N         48.7620   38.3300   10.3160 N.3   182  GLY182     -0.1225
     82  CA        48.9170   37.1580   11.1580 C.3   182  GLY182      0.1811
     83  C         48.1660   35.9440   10.6380 C.2   182  GLY182      0.2280
     84  O         47.6070   35.1740   11.4180 O.2   182  GLY182     -0.2866
     85  N         45.6050   36.1460    8.5510 N.3   184  ASN184     -0.1240
     86  CA        44.3260   36.6390    8.0530 C.3   184  ASN184      0.1653
     87  C         44.5130   37.3040    6.6950 C.2   184  ASN184      0.2266
     88  O         44.9730   38.4430    6.6130 O.2   184  ASN184     -0.2867
     89  CB        43.7330   37.6390    9.0460 C.3   184  ASN184      0.1155
     90  CG        42.3190   38.0540    8.6890 C.2   184  ASN184      0.2627
     91  OD1       42.0810   38.6600    7.6440 O.2   184  ASN184     -0.2716
     92  ND2       41.3720   37.7480    9.5700 N.am  184  ASN184     -0.0877
     93  N         40.3820   33.1850    5.7240 N.3   225  VAL225     -0.1231
     94  CA        40.6800   33.1460    7.1480 C.3   225  VAL225      0.1692
     95  C         40.5050   31.7360    7.6890 C.2   225  VAL225      0.2593
     96  O         39.4710   31.1020    7.4770 O.2   225  VAL225     -0.2718
     97  CB        39.7780   34.1080    7.9420 C.3   225  VAL225      0.0266
     98  CG1       40.1480   34.0770    9.4170 C.3   225  VAL225      0.0020
     99  CG2       39.8950   35.5220    7.3930 C.3   225  VAL225      0.0020
    100  N         41.5250   31.2550    8.3900 N.am  226  THR226     -0.1939
    101  CA        41.5290   29.8990    8.9110 C.3   226  THR226      0.2028
    102  C         41.4950   29.8970   10.4340 C.2   226  THR226      0.2642
    103  O         42.1780   30.6880   11.0850 O.2   226  THR226     -0.2714
    104  CB        42.7810   29.1310    8.4440 C.3   226  THR226      0.1808
    105  OG1       42.8400   29.1310    7.0120 O.3   226  THR226     -0.2208
    106  CG2       42.7560   27.6970    8.9490 C.3   226  THR226      0.0379
    107  N         40.6820   29.0090   10.9930 N.am  227  SER227     -0.1949
    108  CA        40.6780   28.7640   12.4270 C.3   227  SER227      0.1924
    109  C         41.1500   27.3380   12.6620 C.2   227  SER227      0.2314
    110  O         40.5570   26.3890   12.1500 O.2   227  SER227     -0.2863
    111  CB        39.2810   28.9690   13.0130 C.3   227  SER227      0.2116
    112  OG        39.0670   30.3270   13.3620 O.3   227  SER227     -0.2180
    113  N         46.7580   26.8810   16.1720 N.3   231  GLU231     -0.1231
    114  CA        47.3020   28.2130   15.9320 C.3   231  GLU231      0.1699
    115  C         47.9050   28.7440   17.2270 C.2   231  GLU231      0.2592
    116  O         48.9200   29.4390   17.2170 O.2   231  GLU231     -0.2718
    117  CB        46.2070   29.1610   15.4350 C.3   231  GLU231      0.0402
    118  CG        46.7270   30.4960   14.9150 C.3   231  GLU231      0.1161
    119  CD        46.7820   31.5690   15.9880 C.2   231  GLU231      0.3649
    120  OE1       45.7970   31.7090   16.7440 O.co2 231  GLU231     -0.2457
    121  OE2       47.8100   32.2720   16.0780 O.co2 231  GLU231     -0.2457
    122  N         47.2690   28.4020   18.3420 N.am  232  ARG232     -0.1980
    123  CA        47.7070   28.8610   19.6520 C.3   232  ARG232      0.1597
    124  C         47.1780   27.9370   20.7420 C.2   232  ARG232      0.2287
    125  O         45.9680   27.7480   20.8680 O.2   232  ARG232     -0.2864
    126  CB        47.2060   30.2840   19.8970 C.3   232  ARG232      0.0334
    127  CG        47.5060   30.8130   21.2860 C.3   232  ARG232      0.0492
    128  CD        46.9220   32.2000   21.4870 C.3   232  ARG232      0.2205
    129  NE        46.7300   32.5040   22.9020 N.pl3 232  ARG232     -0.0865
    130  CZ        46.2850   33.6660   23.3690 C.cat 232  ARG232      0.5346
    131  NH1       45.9860   34.6550   22.5360 N.pl3 232  ARG232      0.1354
    132  NH2       46.1420   33.8420   24.6750 N.pl3 232  ARG232      0.1354
    133  N         43.0650   28.0880   22.0930 N.3   243  HIS243     -0.1226
    134  CA        42.4890   29.4000   22.3820 C.3   243  HIS243      0.1752
    135  C         41.0090   29.6160   22.0320 C.2   243  HIS243      0.2596
    136  O         40.3920   30.5550   22.5340 O.2   243  HIS243     -0.2718
    137  CB        43.3350   30.4730   21.6850 C.3   243  HIS243      0.0759
    138  CG        43.2100   30.4860   20.1890 C.ar  243  HIS243      0.0818
    139  ND1       43.3580   29.3620   19.4050 N.ar  243  HIS243     -0.2268
    140  CD2       42.9780   31.5110   19.3350 C.ar  243  HIS243      0.1154
    141  CE1       43.2060   29.6910   18.1330 C.ar  243  HIS243      0.1986
    142  NE2       42.9740   30.9890   18.0650 N.ar  243  HIS243     -0.2212
    143  N         40.4430   28.7750   21.1740 N.am  244  ILE244     -0.1966
    144  CA        39.0400   28.9190   20.7660 C.3   244  ILE244      0.1727
    145  C         38.0860   28.2180   21.7350 C.2   244  ILE244      0.2616
    146  O         38.1080   26.9960   21.8670 O.2   244  ILE244     -0.2715
    147  CB        38.8170   28.3730   19.3450 C.3   244  ILE244      0.0290
    148  CG1       39.7020   29.1270   18.3510 C.3   244  ILE244      0.0022
    149  CG2       37.3550   28.5050   18.9440 C.3   244  ILE244      0.0023
    150  CD1       39.8110   28.4650   16.9930 C.3   244  ILE244      0.0001
    151  N         37.2380   29.0030   22.3960 N.am  245  ILE245     -0.1977
    152  CA        36.3860   28.5030   23.4750 C.3   245  ILE245      0.1596
    153  C         34.9760   28.1300   23.0240 C.2   245  ILE245      0.2287
    154  O         34.3560   28.8420   22.2430 O.2   245  ILE245     -0.2864
    155  CB        36.2440   29.5640   24.5820 C.3   245  ILE245      0.0276
    156  CG1       37.6180   29.9660   25.1200 C.3   245  ILE245      0.0022
    157  CG2       35.3550   29.0510   25.7070 C.3   245  ILE245      0.0022
    158  CD1       38.3610   28.8480   25.8110 C.3   245  ILE245      0.0001
    159  N         31.4500   28.3160   24.1360 N.3   247  PRO247     -0.2116
    160  CA        30.7810   29.1090   25.1750 C.3   247  PRO247      0.1372
    161  C         29.7800   28.3220   26.0240 C.2   247  PRO247      0.2244
    162  O         29.3490   28.8240   27.0610 O.2   247  PRO247     -0.2868
    163  CB        30.0560   30.2000   24.3770 C.3   247  PRO247      0.0268
    164  CG        30.7300   30.2240   23.0470 C.3   247  PRO247      0.0207
    165  CD        31.1390   28.8160   22.7870 C.3   247  PRO247      0.0892
    166  N         36.2620   36.1050    9.2210 N.3   271  ASP271     -0.1239
    167  CA        36.9230   35.8800   10.5050 C.3   271  ASP271      0.1674
    168  C         35.9640   35.3730   11.5820 C.2   271  ASP271      0.2266
    169  O         36.3140   34.4920   12.3720 O.2   271  ASP271     -0.2867
    170  CB        37.6250   37.1430   11.0080 C.3   271  ASP271      0.1410
    171  CG        38.6570   36.8340   12.0720 C.2   271  ASP271      0.3668
    172  OD1       38.7980   35.6530   12.4190 O.co2 271  ASP271     -0.2456
    173  OD2       39.3280   37.7500   12.5750 O.co2 271  ASP271     -0.2456
    174  N         35.6060   31.2280   13.1320 N.3   275  THR275     -0.1218
    175  CA        35.6090   30.9200   14.5550 C.3   275  THR275      0.1862
    176  C         34.3440   30.1510   14.9470 C.2   275  THR275      0.2287
    177  O         34.4130   29.1400   15.6450 O.2   275  THR275     -0.2866
    178  CB        35.7120   32.2030   15.3990 C.3   275  THR275      0.1770
    179  OG1       36.9590   32.8630   15.1310 O.3   275  THR275     -0.2211
    180  CG2       35.6090   31.8770   16.8830 C.3   275  THR275      0.0375
    181  N         33.7950   25.9210   16.2270 N.3   279  VAL279     -0.1245
    182  CA        33.0850   25.5170   17.4350 C.3   279  VAL279      0.1561
    183  C         31.9100   24.6040   17.0980 C.2   279  VAL279      0.2260
    184  O         31.6430   23.6350   17.8040 O.2   279  VAL279     -0.2867
    185  CB        32.5590   26.7380   18.2110 C.3   279  VAL279      0.0252
    186  CG1       31.7990   26.2920   19.4510 C.3   279  VAL279      0.0019
    187  CG2       33.7070   27.6630   18.5960 C.3   279  VAL279      0.0019
@<TRIPOS>BOND
     1    93    94    1
     2    88    87    2
     3    87    86    1
     4   105   104    1
     5    94    95    1
     6    94    97    1
     7    99    97    1
     8    96    95    2
     9    91    90    2
    10    95   100   am
    11    97    98    1
    12    86    85    1
    13    86    89    1
    14   100   101    1
    15   104   101    1
    16   104   106    1
    17    90    89    1
    18    90    92   am
    19   101   102    1
    20   166   167    1
    21    75    74    2
    22    81    82    1
    23   102   107   am
    24   102   103    2
    25   167   170    1
    26   167   168    1
    27    83    82    1
    28    83    84    2
    29    74    73    1
    30   107   108    1
    31   170   171    1
    32   168   169    2
    33   171   172   ar
    34   171   173   ar
    35    73    76    1
    36    73    72    1
    37    76    77    1
    38   110   109    2
    39   108   109    1
    40   108   111    1
    41   111   112    1
    42    78    77    1
    43    78    79    1
    44   174   175    1
    45    79    80    1
    46    70    69    2
    47   175   176    1
    48   175   178    1
    49   118   117    1
    50   118   119    1
    51   176   177    2
    52   179   178    1
    53   178   180    1
    54   117   114    1
    55    69    68    1
    56   114   113    1
    57   114   115    1
    58   119   121   ar
    59   119   120   ar
    60   181   182    1
    61    12    14   ar
    62    12    11   ar
    63    14    16   ar
    64    10    11    1
    65    10     7    1
    66    11    13   ar
    67    16    15   ar
    68    68    71    1
    69    68    67    1
    70    13    15   ar
    71   150   148    1
    72   183   182    1
    73   183   184    2
    74    66    65    2
    75   116   115    2
    76   115   122   am
    77   182   185    1
    78     5     2    1
    79    67    65   am
    80    65    64    1
    81     6     7    1
    82     6     3   am
    83     7     8    1
    84   142   141   ar
    85   142   140   ar
    86   141   139   ar
    87   185   187    1
    88   185   186    1
    89   122   123    1
    90   148   147    1
    91     3     2    1
    92     3     4    2
    93     2     1    1
    94     9     8    2
    95   149   147    1
    96     8    17   am
    97    64    63    1
    98   140   138   ar
    99   147   144    1
   100   139   138   ar
   101   123   126    1
   102   123   124    1
   103   126   127    1
   104    17    18    1
   105   138   137    1
   106    30    29    1
   107    30    31    1
   108    29    26    1
   109    31    25    1
   110   124   125    2
   111   144   143    1
   112   144   145    1
   113    18    19    1
   114    18    21    1
   115    25    26    1
   116    25    19   am
   117   143   135   am
   118   127   128    1
   119    26    27    1
   120    19    20    2
   121   128   129    1
   122    58    57    2
   123   137   134    1
   124   145   146    2
   125   145   151   am
   126    57    56    1
   127   135   134    1
   128   135   136    2
   129   133   134    1
   130   154   153    2
   131    21    22    1
   132   151   152    1
   133    61    60   ar
   134   131   130    1
   135    27    28    2
   136   165   164    1
   137   165   159    1
   138   129   130    2
   139   153   152    1
   140   164   163    1
   141   130   132    1
   142    56    55    1
   143    56    59    1
   144    60    62   ar
   145    60    59    1
   146    22    23    2
   147    22    24   am
   148   152   155    1
   149    39    37    1
   150   159   160    1
   151   163   160    1
   152   155   156    1
   153   155   157    1
   154    36    37    1
   155    36    33    1
   156   156   158    1
   157   160   161    1
   158    37    38    1
   159    32    33    1
   160    46    44    1
   161   161   162    2
   162    33    34    1
   163    45    44    1
   164    53    52    2
   165    44    41    1
   166    34    35    2
   167    54    52   am
   168    52    51    1
   169    41    40    1
   170    41    42    1
   171    43    42    2
   172    51    48    1
   173    48    47    1
   174    48    49    1
   175    50    49    2
