@<TRIPOS>MOLECULE
tmp/4ifyA01.pdb
 113 111 0 0 0
SMALL
GASTEIGER

@<TRIPOS>ATOM
      1  N         69.0850  -22.8130   60.8360 N.3     4  ILE4       -0.1231
      2  CA        68.1800  -22.5890   59.7150 C.3     4  ILE4        0.1692
      3  C         68.0340  -21.0960   59.4580 C.2     4  ILE4        0.2593
      4  O         68.2240  -20.2820   60.3560 O.2     4  ILE4       -0.2718
      5  CB        66.8100  -23.2450   59.9500 C.3     4  ILE4        0.0266
      6  CG1       66.1580  -22.6830   61.2020 C.3     4  ILE4        0.0019
      7  CG2       66.9690  -24.7600   60.0800 C.3     4  ILE4        0.0020
      8  CD1       64.9750  -23.4890   61.6720 C.3     4  ILE4        0.0001
      9  N         67.7390  -20.7300   58.2190 N.am    5  SER5       -0.1939
     10  CA        67.5700  -19.3240   57.8900 C.3     5  SER5        0.2040
     11  C         66.1990  -18.8840   58.3730 C.2     5  SER5        0.2485
     12  O         65.2020  -19.5510   58.1090 O.2     5  SER5       -0.2729
     13  CB        67.6960  -19.1150   56.3870 C.3     5  SER5        0.2129
     14  OG        68.8580  -19.7490   55.8910 O.3     5  SER5       -0.2179
     15  N         66.1380  -17.7590   59.0910 N.am    6  PRO6       -0.2715
     16  CA        64.8380  -17.2820   59.5660 C.3     6  PRO6        0.1536
     17  C         64.0220  -16.7170   58.4160 C.2     6  PRO6        0.2598
     18  O         64.5870  -16.3060   57.3980 O.2     6  PRO6       -0.2715
     19  CB        65.2120  -16.1710   60.5510 C.3     6  PRO6        0.0310
     20  CG        66.5370  -15.6610   60.0450 C.3     6  PRO6        0.0237
     21  CD        67.2480  -16.8690   59.4790 C.3     6  PRO6        0.0939
     22  N         62.7020  -16.7270   58.5590 N.am    7  ILE7       -0.1978
     23  CA        61.8380  -16.0530   57.5930 C.3     7  ILE7        0.1596
     24  C         61.7000  -14.6130   58.0460 C.2     7  ILE7        0.2287
     25  O         61.2910  -14.3550   59.1740 O.2     7  ILE7       -0.2864
     26  CB        60.4490  -16.7220   57.4880 C.3     7  ILE7        0.0276
     27  CG1       60.4710  -17.8680   56.4730 C.3     7  ILE7        0.0022
     28  CG2       59.3990  -15.7290   57.0260 C.3     7  ILE7        0.0022
     29  CD1       61.2950  -19.0490   56.8880 C.3     7  ILE7        0.0001
     30  N         54.7490  -25.6170   57.2230 N.3   116  ALA116     -0.1245
     31  CA        55.1390  -24.2210   57.0190 C.3   116  ALA116      0.1562
     32  C         53.9210  -23.3210   57.1500 C.2   116  ALA116      0.2260
     33  O         54.0100  -22.1930   57.6360 O.2   116  ALA116     -0.2867
     34  CB        55.7760  -24.0320   55.6560 C.3   116  ALA116      0.0290
     35  N         53.2500  -22.0260   60.5790 N.3   119  SER119     -0.1202
     36  CA        54.4750  -21.5960   61.2710 C.3   119  SER119      0.2020
     37  C         55.1370  -20.2650   60.8540 C.2   119  SER119      0.2619
     38  O         56.2540  -19.9730   61.2840 O.2   119  SER119     -0.2717
     39  CB        55.4960  -22.7400   61.3290 C.3   119  SER119      0.2103
     40  OG        55.4630  -23.4730   60.1240 O.3   119  SER119     -0.2182
     41  N         54.5170  -19.5070   59.9590 N.am  120  VAL120     -0.1966
     42  CA        55.1510  -18.2790   59.4720 C.3   120  VAL120      0.1712
     43  C         55.1270  -17.1940   60.5450 C.2   120  VAL120      0.2458
     44  O         54.0570  -16.8470   61.0340 O.2   120  VAL120     -0.2730
     45  CB        54.4680  -17.7250   58.1860 C.3   120  VAL120      0.0289
     46  CG1       55.1210  -16.4280   57.7690 C.3   120  VAL120      0.0023
     47  CG2       54.5310  -18.7280   57.0370 C.3   120  VAL120      0.0023
     48  N         56.3000  -16.6290   60.8910 N.am  121  PRO121     -0.2727
     49  CA        56.3320  -15.6200   61.9570 C.3   121  PRO121      0.1402
     50  C         55.5270  -14.3840   61.5770 C.2   121  PRO121      0.2269
     51  O         55.5410  -13.9750   60.4140 O.2   121  PRO121     -0.2865
     52  CB        57.8160  -15.2370   62.0580 C.3   121  PRO121      0.0296
     53  CG        58.5660  -16.3170   61.3300 C.3   121  PRO121      0.0237
     54  CD        57.6310  -16.8600   60.2960 C.3   121  PRO121      0.0939
     55  N         51.7830  -15.5320   53.7190 N.3   162  PHE162     -0.1241
     56  CA        52.2880  -16.8860   53.5310 C.3   162  PHE162      0.1605
     57  C         52.7430  -17.0800   52.0770 C.2   162  PHE162      0.2264
     58  O         53.8270  -17.6090   51.8180 O.2   162  PHE162     -0.2867
     59  CB        51.2690  -17.9570   53.9170 C.3   162  PHE162      0.0534
     60  CG        51.6680  -19.3370   53.4640 C.ar  162  PHE162     -0.0203
     61  CD1       52.5750  -20.0910   54.2080 C.ar  162  PHE162     -0.0042
     62  CD2       51.1660  -19.8670   52.2830 C.ar  162  PHE162     -0.0042
     63  CE1       52.9650  -21.3550   53.7880 C.ar  162  PHE162     -0.0003
     64  CE2       51.5520  -21.1330   51.8480 C.ar  162  PHE162     -0.0003
     65  CZ        52.4520  -21.8810   52.6070 C.ar  162  PHE162     -0.0000
     66  N         56.0380  -15.1730   51.3800 N.3   165  SER165     -0.1202
     67  CA        57.1640  -15.8210   52.0700 C.3   165  SER165      0.2020
     68  C         57.6130  -17.0900   51.3470 C.2   165  SER165      0.2618
     69  O         58.8010  -17.2970   51.1480 O.2   165  SER165     -0.2717
     70  CB        56.8090  -16.1480   53.5180 C.3   165  SER165      0.2103
     71  OG        56.3830  -14.9710   54.2030 O.3   165  SER165     -0.2182
     72  N         56.6520  -17.9230   50.9540 N.am  166  MET166     -0.1979
     73  CA        56.9380  -19.1660   50.2410 C.3   166  MET166      0.1605
     74  C         57.5670  -18.8990   48.8660 C.2   166  MET166      0.2287
     75  O         58.5620  -19.5310   48.4910 O.2   166  MET166     -0.2864
     76  CB        55.6590  -20.0120   50.1170 C.3   166  MET166      0.0413
     77  CG        55.8400  -21.3520   49.4080 C.3   166  MET166      0.0598
     78  SD        57.0090  -22.4870   50.2120 S.3   166  MET166     -0.1393
     79  CE        56.1620  -22.8130   51.7530 C.3   166  MET166      0.0692
     80  N         61.3030  -17.9690   49.1720 N.3   169  ILE169     -0.1245
     81  CA        62.2450  -19.0650   49.3570 C.3   169  ILE169      0.1561
     82  C         62.2810  -20.0080   48.1550 C.2   169  ILE169      0.2260
     83  O         63.2750  -20.6830   47.9390 O.2   169  ILE169     -0.2867
     84  CB        62.0130  -19.8730   50.6550 C.3   169  ILE169      0.0252
     85  CG1       60.7220  -20.6790   50.5750 C.3   169  ILE169      0.0019
     86  CG2       61.9980  -18.9730   51.8700 C.3   169  ILE169      0.0019
     87  CD1       60.3990  -21.3470   51.8810 C.3   169  ILE169      0.0001
     88  N         65.3450  -23.7070   55.3730 N.3   214  TRP214     -0.1227
     89  CA        64.4930  -22.8530   56.1890 C.3   214  TRP214      0.1737
     90  C         63.8170  -23.6180   57.3200 C.2   214  TRP214      0.2596
     91  O         63.0010  -23.0600   58.0470 O.2   214  TRP214     -0.2718
     92  CB        63.4750  -22.1030   55.3380 C.3   214  TRP214      0.0564
     93  CG        64.1080  -21.0030   54.5470 C.ar  214  TRP214      0.0003
     94  CD1       64.2610  -19.7020   54.9270 C.ar  214  TRP214      0.0946
     95  CD2       64.6920  -21.1120   53.2440 C.ar  214  TRP214      0.0152
     96  NE1       64.9020  -18.9960   53.9430 N.ar  214  TRP214     -0.2442
     97  CE2       65.1780  -19.8380   52.8970 C.ar  214  TRP214      0.0810
     98  CE3       64.8460  -22.1640   52.3370 C.ar  214  TRP214      0.0012
     99  CZ2       65.8020  -19.5840   51.6820 C.ar  214  TRP214      0.0191
    100  CZ3       65.4660  -21.9100   51.1250 C.ar  214  TRP214      0.0001
    101  CH2       65.9340  -20.6330   50.8070 C.ar  214  TRP214      0.0015
    102  N         64.1480  -24.9010   57.4510 N.am  215  GLY215     -0.1942
    103  CA        63.6420  -25.7110   58.5500 C.3   215  GLY215      0.2014
    104  C         62.2940  -26.3250   58.2030 C.2   215  GLY215      0.2638
    105  O         61.5880  -26.8490   59.0560 O.2   215  GLY215     -0.2714
    106  N         61.9520  -26.2740   56.9270 N.am  216  LEU216     -0.1977
    107  CA        60.6630  -26.7420   56.4530 C.3   216  LEU216      0.1596
    108  C         60.7670  -28.2100   56.0530 C.2   216  LEU216      0.2287
    109  O         61.4090  -28.5570   55.0620 O.2   216  LEU216     -0.2864
    110  CB        60.2430  -25.8850   55.2610 C.3   216  LEU216      0.0297
    111  CG        59.1140  -26.3950   54.3820 C.3   216  LEU216      0.0022
    112  CD1       57.9010  -26.7380   55.2190 C.3   216  LEU216      0.0001
    113  CD2       58.7690  -25.3560   53.3240 C.3   216  LEU216      0.0001
@<TRIPOS>BOND
     1    83    82    2
     2    82    81    1
     3    75    74    2
     4    74    73    1
     5    80    81    1
     6    81    84    1
     7    77    76    1
     8    77    78    1
     9    76    73    1
    10    78    79    1
    11    73    72    1
    12    85    84    1
    13    85    87    1
    14    84    86    1
    15   101   100   ar
    16   101    99   ar
    17    72    68   am
    18   100    98   ar
    19    69    68    2
    20    68    67    1
    21    66    67    1
    22    99    97   ar
    23    58    57    2
    24    64    62   ar
    25    64    65   ar
    26    67    70    1
    27    57    56    1
    28    62    60   ar
    29    98    95   ar
    30    65    63   ar
    31    97    95   ar
    32    97    96   ar
    33    95    93   ar
    34   113   111    1
    35    60    59    1
    36    60    61   ar
    37    70    71    1
    38    56    55    1
    39    56    59    1
    40    63    61   ar
    41    96    94   ar
    42   111   112    1
    43   111   110    1
    44    93    94   ar
    45    93    92    1
    46   109   108    2
    47   110   107    1
    48    92    89    1
    49    88    89    1
    50    34    31    1
    51    14    13    1
    52   108   107    1
    53    89    90    1
    54    13    10    1
    55   107   106    1
    56    27    29    1
    57    27    26    1
    58   106   104   am
    59    31    32    1
    60    31    30    1
    61    28    26    1
    62    47    45    1
    63    32    33    2
    64    90   102   am
    65    90    91    2
    66    18    17    2
    67   102   103    1
    68    26    23    1
    69    23    24    1
    70    23    22    1
    71    46    45    1
    72    10     9    1
    73    10    11    1
    74    24    25    2
    75    12    11    2
    76    45    42    1
    77   104   103    1
    78   104   105    2
    79     9     3   am
    80    11    15   am
    81    17    22   am
    82    17    16    1
    83    15    21    1
    84    15    16    1
    85     3     2    1
    86     3     4    2
    87    42    41    1
    88    42    43    1
    89    21    20    1
    90    16    19    1
    91     2     5    1
    92     2     1    1
    93     5     7    1
    94     5     6    1
    95    41    37   am
    96    20    19    1
    97    40    39    1
    98    54    48    1
    99    54    53    1
   100    51    50    2
   101    43    48   am
   102    43    44    2
   103    35    36    1
   104    37    36    1
   105    37    38    2
   106    48    49    1
   107     6     8    1
   108    36    39    1
   109    53    52    1
   110    50    49    1
   111    49    52    1
