@<TRIPOS>MOLECULE
tmp/4ig0A01.pdb
 129 127 0 0 0
SMALL
GASTEIGER

@<TRIPOS>ATOM
      1  N         34.7240    2.8820    5.0970 N.3   406  GLU406     -0.1245
      2  CA        33.5920    3.8130    5.1640 C.3   406  GLU406      0.1567
      3  C         33.0230    4.0490    6.5640 C.2   406  GLU406      0.2260
      4  O         32.1700    4.9210    6.7430 O.2   406  GLU406     -0.2867
      5  CB        32.4620    3.3460    4.2410 C.3   406  GLU406      0.0388
      6  CG        32.8770    3.1560    2.7950 C.3   406  GLU406      0.1160
      7  CD        33.2700    4.4600    2.1420 C.2   406  GLU406      0.3649
      8  OE1       32.8300    5.5220    2.6320 O.co2 406  GLU406     -0.2457
      9  OE2       34.0220    4.4220    1.1450 O.co2 406  GLU406     -0.2457
     10  N         23.4360   -3.3670    3.9450 N.3   429  TYR429     -0.1227
     11  CA        23.2310   -2.2240    3.0640 C.3   429  TYR429      0.1736
     12  C         24.4170   -1.2690    3.1420 C.2   429  TYR429      0.2595
     13  O         25.1790   -1.2970    4.1070 O.2   429  TYR429     -0.2718
     14  CB        21.9290   -1.4970    3.4140 C.3   429  TYR429      0.0548
     15  CG        21.8840   -1.0100    4.8400 C.ar  429  TYR429     -0.0200
     16  CD1       22.3880    0.2360    5.1810 C.ar  429  TYR429     -0.0009
     17  CD2       21.3440   -1.8000    5.8510 C.ar  429  TYR429     -0.0009
     18  CE1       22.3600    0.6890    6.4920 C.ar  429  TYR429      0.0417
     19  CE2       21.3110   -1.3570    7.1650 C.ar  429  TYR429      0.0417
     20  CZ        21.8200   -0.1100    7.4770 C.ar  429  TYR429      0.1957
     21  OH        21.7990    0.3480    8.7780 O.3   429  TYR429     -0.2866
     22  N         24.5870   -0.4510    2.1090 N.am  430  GLN430     -0.1965
     23  CA        25.5490    0.6480    2.1440 C.3   430  GLN430      0.1733
     24  C         24.9110    1.8260    1.4290 C.2   430  GLN430      0.2616
     25  O         24.3840    1.6770    0.3250 O.2   430  GLN430     -0.2715
     26  CB        26.8720    0.2690    1.4670 C.3   430  GLN430      0.0408
     27  CG        27.7300   -0.7290    2.2460 C.3   430  GLN430      0.0908
     28  CD        28.3410   -0.1290    3.5120 C.2   430  GLN430      0.2608
     29  OE1       29.3810    0.5380    3.4630 O.2   430  GLN430     -0.2717
     30  NE2       27.6970   -0.3690    4.6520 N.am  430  GLN430     -0.0878
     31  N         24.9420    2.9910    2.0650 N.am  431  LEU431     -0.1963
     32  CA        24.3860    4.1950    1.4630 C.3   431  LEU431      0.1728
     33  C         25.3520    4.8100    0.4590 C.2   431  LEU431      0.2616
     34  O         26.5610    4.5850    0.5330 O.2   431  LEU431     -0.2715
     35  CB        23.9990    5.2040    2.5400 C.3   431  LEU431      0.0311
     36  CG        22.9620    4.6530    3.5190 C.3   431  LEU431      0.0022
     37  CD1       22.4990    5.7410    4.4460 C.3   431  LEU431      0.0001
     38  CD2       21.7860    4.0730    2.7660 C.3   431  LEU431      0.0001
     39  N         24.8080    5.5730   -0.4860 N.am  432  GLU432     -0.1963
     40  CA        25.6070    6.2240   -1.5180 C.3   432  GLU432      0.1733
     41  C         26.3640    7.4360   -0.9670 C.2   432  GLU432      0.2616
     42  O         25.9120    8.0800   -0.0180 O.2   432  GLU432     -0.2715
     43  CB        24.7060    6.6500   -2.6790 C.3   432  GLU432      0.0429
     44  CG        24.0910    5.4880   -3.4450 C.3   432  GLU432      0.1163
     45  CD        25.1290    4.6890   -4.2040 C.2   432  GLU432      0.3649
     46  OE1       25.7270    5.2450   -5.1500 O.co2 432  GLU432     -0.2457
     47  OE2       25.3510    3.5100   -3.8550 O.co2 432  GLU432     -0.2457
     48  N         27.5260    7.7240   -1.5470 N.am  433  LYS433     -0.1977
     49  CA        28.3150    8.8940   -1.1610 C.3   433  LYS433      0.1596
     50  C         27.8210   10.1740   -1.8290 C.2   433  LYS433      0.2287
     51  O         28.0290   11.2770   -1.3130 O.2   433  LYS433     -0.2864
     52  CB        29.7920    8.6770   -1.4940 C.3   433  LYS433      0.0298
     53  CG        30.4620    7.6070   -0.6510 C.3   433  LYS433      0.0038
     54  CD        31.8710    7.3400   -1.1360 C.3   433  LYS433      0.0206
     55  CE        32.8100    7.1290    0.0310 C.3   433  LYS433      0.1093
     56  NZ        32.7090    8.2270    1.0350 N.3   433  LYS433     -0.1314
     57  N         19.4390   10.4000   11.1550 N.3   505  LEU505     -0.1245
     58  CA        20.7590   10.2980   10.5450 C.3   505  LEU505      0.1561
     59  C         21.7930    9.6900   11.4990 C.2   505  LEU505      0.2260
     60  O         22.6520    8.9160   11.0780 O.2   505  LEU505     -0.2867
     61  CB        21.2280   11.6670   10.0570 C.3   505  LEU505      0.0270
     62  CG        22.5160   11.6480    9.2400 C.3   505  LEU505      0.0019
     63  CD1       22.3310   10.8040    8.0020 C.3   505  LEU505      0.0001
     64  CD2       22.9060   13.0450    8.8530 C.3   505  LEU505      0.0001
     65  N         21.1090    5.8800   11.4020 N.3   508  ILE508     -0.1231
     66  CA        21.5220    5.2990   10.1260 C.3   508  ILE508      0.1692
     67  C         23.0410    5.3440    9.8950 C.2   508  ILE508      0.2591
     68  O         23.6220    4.4040    9.3480 O.2   508  ILE508     -0.2718
     69  CB        20.7690    5.9550    8.9580 C.3   508  ILE508      0.0266
     70  CG1       19.2560    5.7940    9.1540 C.3   508  ILE508      0.0019
     71  CG2       21.1840    5.3430    7.6460 C.3   508  ILE508      0.0020
     72  CD1       18.4230    6.3220    8.0080 C.3   508  ILE508      0.0001
     73  N         23.6900    6.4200   10.3310 N.am  509  GLN509     -0.1979
     74  CA        25.1440    6.5130   10.2110 C.3   509  GLN509      0.1601
     75  C         25.8760    5.4880   11.0810 C.2   509  GLN509      0.2287
     76  O         27.0580    5.2250   10.8700 O.2   509  GLN509     -0.2864
     77  CB        25.6350    7.9260   10.5350 C.3   509  GLN509      0.0394
     78  CG        25.2880    8.9610    9.4740 C.3   509  GLN509      0.0908
     79  CD        25.9460   10.2970    9.7360 C.2   509  GLN509      0.2608
     80  OE1       26.0310   10.7500   10.8800 O.2   509  GLN509     -0.2717
     81  NE2       26.4290   10.9350    8.6750 N.am  509  GLN509     -0.0878
     82  N         24.9130    2.5090   11.0890 N.3   511  GLN511     -0.1245
     83  CA        24.7220    1.3050   10.2770 C.3   511  GLN511      0.1566
     84  C         24.2710    0.0800   11.0800 C.2   511  GLN511      0.2260
     85  O         24.9780   -0.9280   11.1180 O.2   511  GLN511     -0.2867
     86  CB        26.0090    0.9520    9.5200 C.3   511  GLN511      0.0367
     87  CG        26.7520    2.1340    8.9060 C.3   511  GLN511      0.0905
     88  CD        27.9450    1.7000    8.0630 C.2   511  GLN511      0.2608
     89  OE1       27.8790    0.7130    7.3240 O.2   511  GLN511     -0.2717
     90  NE2       29.0430    2.4380    8.1710 N.am  511  GLN511     -0.0878
     91  N         20.5060    7.2370   -1.3130 N.3   534  TYR534     -0.1227
     92  CA        21.2800    8.3860   -0.8610 C.3   534  TYR534      0.1736
     93  C         20.4480    9.1890    0.1250 C.2   534  TYR534      0.2595
     94  O         19.3240    9.6050   -0.1880 O.2   534  TYR534     -0.2718
     95  CB        21.6890    9.2780   -2.0320 C.3   534  TYR534      0.0548
     96  CG        22.4520   10.5070   -1.5900 C.ar  534  TYR534     -0.0200
     97  CD1       23.7510   10.4050   -1.0930 C.ar  534  TYR534     -0.0009
     98  CD2       21.8720   11.7690   -1.6600 C.ar  534  TYR534     -0.0009
     99  CE1       24.4500   11.5250   -0.6930 C.ar  534  TYR534      0.0417
    100  CE2       22.5640   12.8970   -1.2680 C.ar  534  TYR534      0.0417
    101  CZ        23.8480   12.7680   -0.7800 C.ar  534  TYR534      0.1957
    102  OH        24.5360   13.8860   -0.3830 O.3   534  TYR534     -0.2866
    103  N         21.0060    9.4010    1.3120 N.am  535  LEU535     -0.1966
    104  CA        20.3200   10.1180    2.3820 C.3   535  LEU535      0.1728
    105  C         21.0040   11.4590    2.6280 C.2   535  LEU535      0.2616
    106  O         22.1830   11.5110    2.9700 O.2   535  LEU535     -0.2715
    107  CB        20.3400    9.2850    3.6590 C.3   535  LEU535      0.0311
    108  CG        19.6030    9.7630    4.9090 C.3   535  LEU535      0.0022
    109  CD1       18.0980    9.7630    4.6980 C.3   535  LEU535      0.0001
    110  CD2       19.9670    8.8710    6.0890 C.3   535  LEU535      0.0001
    111  N         20.2600   12.5430    2.4470 N.am  536  ALA536     -0.1963
    112  CA        20.8090   13.8860    2.6180 C.3   536  ALA536      0.1728
    113  C         20.1610   14.5490    3.8230 C.2   536  ALA536      0.2616
    114  O         18.9590   14.3870    4.0590 O.2   536  ALA536     -0.2715
    115  CB        20.5630   14.7290    1.3610 C.3   536  ALA536      0.0334
    116  N         20.9470   15.3030    4.5770 N.am  537  TRP537     -0.1974
    117  CA        20.4150   16.0270    5.7210 C.3   537  TRP537      0.1640
    118  C         20.4080   17.5330    5.4540 C.2   537  TRP537      0.2290
    119  O         21.3280   18.0760    4.8360 O.2   537  TRP537     -0.2864
    120  CB        21.2160   15.7060    6.9860 C.3   537  TRP537      0.0576
    121  CG        20.7870   16.5040    8.1660 C.ar  537  TRP537      0.0006
    122  CD1       19.8230   16.1710    9.0800 C.ar  537  TRP537      0.0946
    123  CD2       21.2930   17.7860    8.5620 C.ar  537  TRP537      0.0152
    124  NE1       19.7010   17.1690   10.0200 N.ar  537  TRP537     -0.2442
    125  CE2       20.5930   18.1680    9.7260 C.ar  537  TRP537      0.0810
    126  CE3       22.2680   18.6430    8.0440 C.ar  537  TRP537      0.0012
    127  CZ2       20.8400   19.3710   10.3790 C.ar  537  TRP537      0.0191
    128  CZ3       22.5130   19.8430    8.6950 C.ar  537  TRP537      0.0001
    129  CH2       21.8000   20.1950    9.8500 C.ar  537  TRP537      0.0015
@<TRIPOS>BOND
     1    46    45   ar
     2    45    47   ar
     3    45    44    1
     4    44    43    1
     5    43    40    1
     6    95    96    1
     7    95    92    1
     8    50    51    2
     9    50    49    1
    10    98    96   ar
    11    98   100   ar
    12    96    97   ar
    13    48    49    1
    14    48    41   am
    15    40    41    1
    16    40    39    1
    17    52    49    1
    18    52    53    1
    19    91    92    1
    20   100   101   ar
    21    54    53    1
    22    54    55    1
    23    97    99   ar
    24    41    42    2
    25    92    93    1
    26   101    99   ar
    27   101   102    1
    28    39    33   am
    29    94    93    2
    30    55    56    1
    31    93   103   am
    32    25    24    2
    33    33    34    2
    34    33    32    1
    35     9     7   ar
    36   103   104    1
    37   115   112    1
    38    24    31   am
    39    24    23    1
    40    32    31    1
    41    32    35    1
    42    26    23    1
    43    26    27    1
    44    22    23    1
    45    22    12   am
    46     7     8   ar
    47     7     6    1
    48    27    28    1
    49   104   105    1
    50   104   107    1
    51   111   112    1
    52   111   105   am
    53    35    36    1
    54   112   113    1
    55   105   106    2
    56    38    36    1
    57     6     5    1
    58    11    12    1
    59    11    14    1
    60    11    10    1
    61    12    13    2
    62    14    15    1
    63    29    28    2
    64    28    30   am
    65    36    37    1
    66   107   108    1
    67   113   114    2
    68   113   116   am
    69     5     2    1
    70   116   117    1
    71   109   108    1
    72   119   118    2
    73    15    16   ar
    74    15    17   ar
    75   108   110    1
    76     1     2    1
    77     2     3    1
    78    16    18   ar
    79   118   117    1
    80   117   120    1
    81    17    19   ar
    82    18    20   ar
    83     3     4    2
    84   120   121    1
    85    19    20   ar
    86    89    88    2
    87    20    21    1
    88    71    69    1
    89    63    62    1
    90    72    70    1
    91   126   123   ar
    92   126   128   ar
    93    88    90   am
    94    88    87    1
    95   121   123   ar
    96   121   122   ar
    97   123   125   ar
    98    81    79   am
    99   128   129   ar
   100    64    62    1
   101    87    86    1
   102    69    70    1
   103    69    66    1
   104   122   124   ar
   105    62    61    1
   106    68    67    2
   107    78    79    1
   108    78    77    1
   109    86    83    1
   110   125   124   ar
   111   125   127   ar
   112    79    80    2
   113   129   127   ar
   114    67    66    1
   115    67    73   am
   116    61    58    1
   117    66    65    1
   118    74    73    1
   119    74    77    1
   120    74    75    1
   121    83    84    1
   122    83    82    1
   123    58    57    1
   124    58    59    1
   125    76    75    2
   126    60    59    2
   127    84    85    2
