@<TRIPOS>MOLECULE
tmp/4ig0A00.pdb
 145 143 0 0 0
SMALL
GASTEIGER

@<TRIPOS>ATOM
      1  N         46.4060  -19.6290   37.1700 N.3    97  PRO97      -0.2116
      2  CA        46.7430  -20.0360   35.8040 C.3    97  PRO97       0.1372
      3  C         45.5380  -20.6830   35.1620 C.2    97  PRO97       0.2244
      4  O         44.7100  -21.2550   35.8710 O.2    97  PRO97      -0.2868
      5  CB        47.8260  -21.1030   36.0100 C.3    97  PRO97       0.0268
      6  CG        48.4040  -20.8090   37.3440 C.3    97  PRO97       0.0207
      7  CD        47.2680  -20.2800   38.1700 C.3    97  PRO97       0.0892
      8  N         49.0440  -23.8560   30.5360 N.3   102  LEU102     -0.1231
      9  CA        50.0360  -24.7400   31.1330 C.3   102  LEU102      0.1693
     10  C         50.6880  -25.6170   30.0620 C.2   102  LEU102      0.2591
     11  O         50.1340  -25.8080   28.9700 O.2   102  LEU102     -0.2718
     12  CB        49.3930  -25.6040   32.2190 C.3   102  LEU102      0.0284
     13  CG        48.7470  -24.8370   33.3770 C.3   102  LEU102      0.0019
     14  CD1       48.0320  -25.7760   34.3440 C.3   102  LEU102      0.0001
     15  CD2       49.7890  -24.0060   34.1220 C.3   102  LEU102      0.0001
     16  N         51.8620  -26.1510   30.3820 N.am  103  LYS103     -0.1980
     17  CA        52.6170  -26.9780   29.4460 C.3   103  LYS103      0.1596
     18  C         52.5710  -28.4470   29.8560 C.2   103  LYS103      0.2287
     19  O         52.4140  -28.7670   31.0370 O.2   103  LYS103     -0.2864
     20  CB        54.0770  -26.5130   29.3690 C.3   103  LYS103      0.0298
     21  CG        54.3800  -25.5400   28.2350 C.3   103  LYS103      0.0038
     22  CD        53.7050  -24.1920   28.4430 C.3   103  LYS103      0.0206
     23  CE        54.2220  -23.4930   29.6930 C.3   103  LYS103      0.1093
     24  NZ        53.4550  -22.2500   29.9810 N.3   103  LYS103     -0.1314
     25  N         54.0930  -31.7660   31.0150 N.3   105  LYS105     -0.1245
     26  CA        55.2930  -32.1200   31.7660 C.3   105  LYS105      0.1561
     27  C         55.3900  -33.6330   31.9050 C.2   105  LYS105      0.2260
     28  O         54.4100  -34.2940   32.2590 O.2   105  LYS105     -0.2867
     29  CB        55.3120  -31.4560   33.1470 C.3   105  LYS105      0.0271
     30  CG        55.5490  -29.9490   33.1280 C.3   105  LYS105      0.0035
     31  CD        56.8070  -29.5750   32.3470 C.3   105  LYS105      0.0206
     32  CE        56.8830  -28.0600   32.1340 C.3   105  LYS105      0.1093
     33  NZ        57.8670  -27.6590   31.0820 N.3   105  LYS105     -0.1314
     34  N         55.5730  -34.5830   37.3010 N.3   108  VAL108     -0.1245
     35  CA        55.0660  -33.5350   38.1860 C.3   108  VAL108      0.1561
     36  C         54.9800  -34.0520   39.6120 C.2   108  VAL108      0.2260
     37  O         54.3640  -35.0850   39.8600 O.2   108  VAL108     -0.2867
     38  CB        53.6590  -33.0550   37.7670 C.3   108  VAL108      0.0252
     39  CG1       53.0670  -32.1370   38.8320 C.3   108  VAL108      0.0019
     40  CG2       53.7070  -32.3520   36.4220 C.3   108  VAL108      0.0019
     41  N         60.0310  -26.1990   36.5400 N.3   181  VAL181     -0.1231
     42  CA        59.1250  -25.0920   36.8210 C.3   181  VAL181      0.1692
     43  C         58.4400  -25.3120   38.1650 C.2   181  VAL181      0.2592
     44  O         58.1610  -26.4510   38.5520 O.2   181  VAL181     -0.2718
     45  CB        58.0840  -24.9160   35.7000 C.3   181  VAL181      0.0266
     46  CG1       58.7440  -24.3330   34.4660 C.3   181  VAL181      0.0020
     47  CG2       57.4390  -26.2560   35.3670 C.3   181  VAL181      0.0020
     48  N         58.1960  -24.2200   38.8810 N.am  182  ILE182     -0.1966
     49  CA        57.6020  -24.2870   40.2100 C.3   182  ILE182      0.1727
     50  C         56.4410  -23.3110   40.3200 C.2   182  ILE182      0.2616
     51  O         56.5770  -22.1340   39.9750 O.2   182  ILE182     -0.2715
     52  CB        58.6300  -23.9450   41.3030 C.3   182  ILE182      0.0290
     53  CG1       59.8950  -24.7910   41.1390 C.3   182  ILE182      0.0022
     54  CG2       58.0210  -24.1300   42.6870 C.3   182  ILE182      0.0023
     55  CD1       60.9590  -24.5290   42.1880 C.3   182  ILE182      0.0001
     56  N         55.2980  -23.7990   40.7890 N.am  183  TYR183     -0.1974
     57  CA        54.1500  -22.9330   41.0270 C.3   183  TYR183      0.1639
     58  C         53.5920  -23.2030   42.4160 C.2   183  TYR183      0.2290
     59  O         53.4950  -24.3570   42.8430 O.2   183  TYR183     -0.2864
     60  CB        53.0680  -23.1420   39.9620 C.3   183  TYR183      0.0560
     61  CG        51.7730  -22.4140   40.2620 C.ar  183  TYR183     -0.0198
     62  CD1       51.6370  -21.0550   39.9940 C.ar  183  TYR183     -0.0009
     63  CD2       50.6860  -23.0860   40.8130 C.ar  183  TYR183     -0.0009
     64  CE1       50.4550  -20.3860   40.2650 C.ar  183  TYR183      0.0417
     65  CE2       49.5030  -22.4250   41.0890 C.ar  183  TYR183      0.0417
     66  CZ        49.3950  -21.0770   40.8120 C.ar  183  TYR183      0.1957
     67  OH        48.2240  -20.4180   41.0910 O.3   183  TYR183     -0.2866
     68  N         53.6770  -27.1320   43.2190 N.3   190  TYR190     -0.1241
     69  CA        53.6560  -27.9970   42.0500 C.3   190  TYR190      0.1605
     70  C         54.9800  -27.8410   41.3140 C.2   190  TYR190      0.2264
     71  O         55.2990  -26.7620   40.8060 O.2   190  TYR190     -0.2867
     72  CB        52.4600  -27.6530   41.1560 C.3   190  TYR190      0.0534
     73  CG        51.1570  -27.6180   41.9300 C.ar  190  TYR190     -0.0201
     74  CD1       50.7960  -28.6710   42.7640 C.ar  190  TYR190     -0.0009
     75  CD2       50.3080  -26.5190   41.8590 C.ar  190  TYR190     -0.0009
     76  CE1       49.6190  -28.6430   43.4870 C.ar  190  TYR190      0.0417
     77  CE2       49.1270  -26.4830   42.5800 C.ar  190  TYR190      0.0417
     78  CZ        48.7890  -27.5480   43.3930 C.ar  190  TYR190      0.1957
     79  OH        47.6190  -27.5220   44.1190 O.3   190  TYR190     -0.2866
     80  N         57.0280  -29.3170   38.2450 N.3   192  GLY192     -0.1225
     81  CA        57.0880  -30.1500   37.0590 C.3   192  GLY192      0.1811
     82  C         58.4370  -30.1040   36.3730 C.2   192  GLY192      0.2280
     83  O         59.2500  -29.2200   36.6530 O.2   192  GLY192     -0.2866
     84  N         44.2550  -34.6600   38.6770 N.3   229  PHE229     -0.1241
     85  CA        44.2170  -33.7470   39.8140 C.3   229  PHE229      0.1605
     86  C         42.9280  -32.9420   39.7900 C.2   229  PHE229      0.2264
     87  O         42.5150  -32.4470   38.7380 O.2   229  PHE229     -0.2867
     88  CB        45.3920  -32.7670   39.7730 C.3   229  PHE229      0.0534
     89  CG        46.7330  -33.4160   39.9050 C.ar  229  PHE229     -0.0203
     90  CD1       47.2560  -33.7110   41.1550 C.ar  229  PHE229     -0.0042
     91  CD2       47.4820  -33.7150   38.7800 C.ar  229  PHE229     -0.0042
     92  CE1       48.5000  -34.3060   41.2790 C.ar  229  PHE229     -0.0003
     93  CE2       48.7260  -34.3080   38.8960 C.ar  229  PHE229     -0.0003
     94  CZ        49.2350  -34.6050   40.1470 C.ar  229  PHE229     -0.0000
     95  N         41.6810  -29.5910   40.7800 N.3   231  TRP231     -0.1241
     96  CA        42.2140  -28.3000   41.1600 C.3   231  TRP231      0.1605
     97  C         41.3650  -27.1750   40.5800 C.2   231  TRP231      0.2264
     98  O         41.2090  -27.0710   39.3610 O.2   231  TRP231     -0.2867
     99  CB        43.6590  -28.1880   40.6740 C.3   231  TRP231      0.0550
    100  CG        44.2790  -26.8630   40.9360 C.ar  231  TRP231      0.0003
    101  CD1       44.8290  -26.4310   42.1060 C.ar  231  TRP231      0.0946
    102  CD2       44.4230  -25.7890   40.0010 C.ar  231  TRP231      0.0152
    103  NE1       45.3020  -25.1490   41.9600 N.ar  231  TRP231     -0.2442
    104  CE2       45.0670  -24.7330   40.6770 C.ar  231  TRP231      0.0810
    105  CE3       44.0690  -25.6170   38.6600 C.ar  231  TRP231      0.0012
    106  CZ2       45.3640  -23.5210   40.0540 C.ar  231  TRP231      0.0191
    107  CZ3       44.3630  -24.4150   38.0440 C.ar  231  TRP231      0.0001
    108  CH2       45.0040  -23.3820   38.7410 C.ar  231  TRP231      0.0015
    109  N         42.9230  -32.3150   35.6960 N.3   236  LEU236     -0.1231
    110  CA        44.2230  -32.2050   35.0460 C.3   236  LEU236      0.1693
    111  C         44.8520  -33.5830   34.8650 C.2   236  LEU236      0.2592
    112  O         45.0550  -34.3170   35.8310 O.2   236  LEU236     -0.2718
    113  CB        45.1590  -31.2880   35.8420 C.3   236  LEU236      0.0284
    114  CG        44.8550  -29.7850   35.8400 C.3   236  LEU236      0.0019
    115  CD1       43.6620  -29.4560   36.7160 C.3   236  LEU236      0.0001
    116  CD2       46.0660  -28.9690   36.2810 C.3   236  LEU236      0.0001
    117  N         45.1650  -33.9140   33.6180 N.am  237  HIS237     -0.1962
    118  CA        45.7720  -35.1830   33.2590 C.3   237  HIS237      0.1772
    119  C         47.1100  -34.8380   32.6030 C.2   237  HIS237      0.2462
    120  O         47.3480  -33.6710   32.2750 O.2   237  HIS237     -0.2730
    121  CB        44.8640  -35.9450   32.2900 C.3   237  HIS237      0.0785
    122  CG        43.4960  -36.2260   32.8280 C.ar  237  HIS237      0.0821
    123  ND1       43.1120  -37.4720   33.2850 N.ar  237  HIS237     -0.2267
    124  CD2       42.4100  -35.4280   32.9760 C.ar  237  HIS237      0.1154
    125  CE1       41.8580  -37.4260   33.6900 C.ar  237  HIS237      0.1986
    126  NE2       41.4080  -36.1940   33.5120 N.ar  237  HIS237     -0.2212
    127  N         48.0150  -35.8240   32.4630 N.am  238  PRO238     -0.2727
    128  CA        49.3210  -35.5250   31.8580 C.3   238  PRO238      0.1402
    129  C         49.2360  -34.9110   30.4510 C.2   238  PRO238      0.2269
    130  O         49.9140  -33.9130   30.2020 O.2   238  PRO238     -0.2865
    131  CB        49.9960  -36.9010   31.7970 C.3   238  PRO238      0.0296
    132  CG        49.3700  -37.6740   32.9110 C.3   238  PRO238      0.0237
    133  CD        47.9430  -37.2070   32.9730 C.3   238  PRO238      0.0939
    134  N         47.2580  -29.1250   26.1720 N.3   320  TYR320     -0.1241
    135  CA        48.0890  -28.0880   26.7640 C.3   320  TYR320      0.1605
    136  C         48.7690  -27.2920   25.6660 C.2   320  TYR320      0.2264
    137  O         48.6280  -27.6120   24.4800 O.2   320  TYR320     -0.2867
    138  CB        49.1150  -28.6740   27.7360 C.3   320  TYR320      0.0534
    139  CG        48.4820  -29.3530   28.9260 C.ar  320  TYR320     -0.0201
    140  CD1       47.7650  -28.6240   29.8710 C.ar  320  TYR320     -0.0009
    141  CD2       48.5990  -30.7250   29.1070 C.ar  320  TYR320     -0.0009
    142  CE1       47.1780  -29.2470   30.9600 C.ar  320  TYR320      0.0417
    143  CE2       48.0190  -31.3540   30.1890 C.ar  320  TYR320      0.0417
    144  CZ        47.3100  -30.6130   31.1120 C.ar  320  TYR320      0.1957
    145  OH        46.7330  -31.2480   32.1920 O.3   320  TYR320     -0.2866
@<TRIPOS>BOND
     1   137   136    2
     2   136   135    1
     3   134   135    1
     4   135   138    1
     5   138   139    1
     6    21    22    1
     7    21    20    1
     8    22    23    1
     9   139   141   ar
    10   139   140   ar
    11    11    10    2
    12   141   143   ar
    13    20    17    1
    14    17    18    1
    15    17    16    1
    16    23    24    1
    17    18    19    2
    18   140   142   ar
    19    10    16   am
    20    10     9    1
    21   143   144   ar
    22   130   129    2
    23   129   128    1
    24     8     9    1
    25   142   144   ar
    26    25    26    1
    27    33    32    1
    28   144   145    1
    29     9    12    1
    30    26    27    1
    31    26    29    1
    32   131   128    1
    33   131   132    1
    34   128   127    1
    35    27    28    2
    36    32    31    1
    37    12    13    1
    38   120   119    2
    39   121   122    1
    40   121   118    1
    41    31    30    1
    42   127   119   am
    43   127   133    1
    44   119   118    1
    45   122   124   ar
    46   122   123   ar
    47   132   133    1
    48   124   126   ar
    49    30    29    1
    50   118   117    1
    51   123   125   ar
    52    13    15    1
    53    13    14    1
    54   126   125   ar
    55   117   111   am
    56    46    45    1
    57   111   110    1
    58   111   112    2
    59   110   109    1
    60   110   113    1
    61     3     2    1
    62     3     4    2
    63    47    45    1
    64    45    42    1
    65     2     5    1
    66     2     1    1
    67   114   113    1
    68   114   116    1
    69   114   115    1
    70     5     6    1
    71    82    83    2
    72    82    81    1
    73    40    38    1
    74    41    42    1
    75    42    43    1
    76    81    80    1
    77     1     7    1
    78    34    35    1
    79     6     7    1
    80    38    35    1
    81    38    39    1
    82   107   105   ar
    83   107   108   ar
    84    43    44    2
    85    43    48   am
    86    35    36    1
    87   105   102   ar
    88    84    85    1
    89    87    86    2
    90   108   106   ar
    91    91    93   ar
    92    91    89   ar
    93    48    49    1
    94    93    94   ar
    95    98    97    2
    96    36    37    2
    97    88    85    1
    98    88    89    1
    99    86    85    1
   100    89    90   ar
   101    60    61    1
   102    60    57    1
   103    51    50    2
   104    62    61   ar
   105    62    64   ar
   106   102   104   ar
   107   102   100   ar
   108   106   104   ar
   109    94    92   ar
   110    49    50    1
   111    49    52    1
   112    61    63   ar
   113    64    66   ar
   114    50    56   am
   115    97    96    1
   116    99   100    1
   117    99    96    1
   118   104   103   ar
   119    95    96    1
   120    56    57    1
   121    71    70    2
   122    66    65   ar
   123    66    67    1
   124    63    65   ar
   125   100   101   ar
   126    57    58    1
   127    53    52    1
   128    53    55    1
   129    90    92   ar
   130    72    73    1
   131    72    69    1
   132    52    54    1
   133    70    69    1
   134    75    73   ar
   135    75    77   ar
   136    73    74   ar
   137   103   101   ar
   138    69    68    1
   139    58    59    2
   140    77    78   ar
   141    74    76   ar
   142    78    76   ar
   143    78    79    1
