@<TRIPOS>MOLECULE
tmp/4ig1A00.pdb
 160 151 0 0 0
SMALL
GASTEIGER

@<TRIPOS>ATOM
      1  N         27.8470   32.4490   19.0750 N.3    90  ALA90      -0.1231
      2  CA        29.0700   31.6510   18.8970 C.3    90  ALA90       0.1694
      3  C         30.2630   32.6030   18.7590 C.2    90  ALA90       0.2592
      4  O         31.3200   32.3660   19.3480 O.2    90  ALA90      -0.2718
      5  CB        28.9610   30.7230   17.6910 C.3    90  ALA90       0.0304
      6  N         30.0680   33.6610   17.9760 N.am   91  PHE91      -0.1962
      7  CA        30.9130   34.8480   18.0130 C.3    91  PHE91       0.1771
      8  C         30.2610   35.7840   19.0230 C.2    91  PHE91       0.2620
      9  O         29.0670   36.0710   18.9350 O.2    91  PHE91      -0.2715
     10  CB        30.9440   35.5330   16.6420 C.3    91  PHE91       0.0574
     11  CG        31.5690   36.9130   16.6520 C.ar   91  PHE91      -0.0200
     12  CD1       30.7900   38.0390   16.8480 C.ar   91  PHE91      -0.0042
     13  CD2       32.9240   37.0770   16.4330 C.ar   91  PHE91      -0.0042
     14  CE1       31.3400   39.3090   16.8620 C.ar   91  PHE91      -0.0003
     15  CE2       33.4750   38.3600   16.4400 C.ar   91  PHE91      -0.0003
     16  CZ        32.6800   39.4680   16.6720 C.ar   91  PHE91      -0.0000
     17  N         31.0300   36.2390   20.0090 N.am   92  ASN92      -0.1959
     18  CA        30.5150   37.1080   21.0690 C.3    92  ASN92       0.1804
     19  C         31.5700   38.1730   21.3550 C.2    92  ASN92       0.2463
     20  O         32.6470   37.8280   21.8230 O.2    92  ASN92      -0.2730
     21  CB        30.2490   36.2760   22.3260 C.3    92  ASN92       0.1195
     22  CG        29.6500   37.0790   23.4480 C.2    92  ASN92       0.2630
     23  OD1       29.7800   38.3020   23.4850 O.2    92  ASN92      -0.2716
     24  ND2       28.9540   36.3940   24.3610 N.am   92  ASN92      -0.0877
     25  N         31.2860   39.4460   21.0390 N.am   93  PRO93      -0.2727
     26  CA        32.2750   40.5060   21.2440 C.3    93  PRO93       0.1402
     27  C         32.3390   41.0100   22.6810 C.2    93  PRO93       0.2269
     28  O         33.0630   41.9540   22.9410 O.2    93  PRO93      -0.2865
     29  CB        31.7830   41.6250   20.3040 C.3    93  PRO93       0.0296
     30  CG        30.3010   41.4650   20.3160 C.3    93  PRO93       0.0237
     31  CD        30.0470   39.9840   20.4370 C.3    93  PRO93       0.0939
     32  N         33.0070   38.9830   25.4150 N.3    95  LEU95      -0.1245
     33  CA        33.5470   37.8170   26.0990 C.3    95  LEU95       0.1561
     34  C         34.7810   38.1500   26.9590 C.2    95  LEU95       0.2260
     35  O         35.4460   37.2660   27.4890 O.2    95  LEU95      -0.2867
     36  CB        33.8540   36.7300   25.0750 C.3    95  LEU95       0.0270
     37  CG        33.7950   35.2740   25.4620 C.3    95  LEU95       0.0019
     38  CD1       32.4480   34.8360   26.0410 C.3    95  LEU95       0.0001
     39  CD2       34.1160   34.4750   24.2040 C.3    95  LEU95       0.0001
     40  N         37.7750   35.8050   28.4960 N.3    99  VAL99      -0.1245
     41  CA        39.0610   35.7970   27.8070 C.3    99  VAL99       0.1561
     42  C         40.1920   36.2470   28.7430 C.2    99  VAL99       0.2260
     43  O         41.2340   35.5850   28.8090 O.2    99  VAL99      -0.2867
     44  CB        39.0080   36.6790   26.5820 C.3    99  VAL99       0.0252
     45  CG1       40.4210   36.8730   26.0200 C.3    99  VAL99       0.0019
     46  CG2       38.0500   36.1010   25.5460 C.3    99  VAL99       0.0019
     47  N         35.7620   42.6830   24.0040 N.3   153  ASP153     -0.1239
     48  CA        37.0390   42.2060   23.4350 C.3   153  ASP153      0.1674
     49  C         36.7400   42.0130   21.9760 C.2   153  ASP153      0.2266
     50  O         35.9440   41.1320   21.6220 O.2   153  ASP153     -0.2867
     51  CB        37.4790   40.8730   24.0740 C.3   153  ASP153      0.1410
     52  CG        38.7500   40.2830   23.4320 C.2   153  ASP153      0.3668
     53  OD1       39.1770   40.7560   22.3550 O.co2 153  ASP153     -0.2456
     54  OD2       39.3020   39.3130   24.0120 O.co2 153  ASP153     -0.2456
     55  N         38.9230   41.1680   19.6300 N.3   155  GLY155     -0.1210
     56  CA        40.0200   40.4260   19.0080 C.3   155  GLY155      0.1956
     57  C         39.6440   39.5850   17.7990 C.2   155  GLY155      0.2611
     58  O         40.4990   39.3370   16.9220 O.2   155  GLY155     -0.2717
     59  N         38.3980   39.1190   17.7490 N.am  156  ALA156     -0.1979
     60  CA        37.9430   38.2600   16.6610 C.3   156  ALA156      0.1597
     61  C         37.4050   39.0290   15.4660 C.2   156  ALA156      0.2287
     62  O         36.9990   38.4140   14.4690 O.2   156  ALA156     -0.2864
     63  CB        36.8580   37.2960   17.2010 C.3   156  ALA156      0.0319
     64  N         41.0650   42.8620   13.3820 N.3   159  LYS159     -0.1245
     65  CA        41.9640   42.7950   12.2180 C.3   159  LYS159      0.1561
     66  C         41.1670   42.9230   10.9330 C.2   159  LYS159      0.2260
     67  O         41.6030   43.5670    9.9540 O.2   159  LYS159     -0.2867
     68  CB        42.8190   41.5470   12.2560 C.3   159  LYS159      0.0271
     69  CG        43.9160   41.6460   13.2990 C.3   159  LYS159      0.0035
     70  CD        44.9440   40.5540   13.2250 C.3   159  LYS159      0.0206
     71  CE        44.4020   39.1890   13.4150 C.3   159  LYS159      0.1093
     72  NZ        43.9280   38.9680   14.8130 N.3   159  LYS159     -0.1314
     73  N         41.3720   33.3250    8.3310 N.3   227  THR227     -0.1203
     74  CA        41.3890   31.9880    8.9040 C.3   227  THR227      0.1994
     75  C         41.4250   32.0470   10.4220 C.2   227  THR227      0.2618
     76  O         42.1880   32.8340   11.0020 O.2   227  THR227     -0.2717
     77  CB        42.6210   31.2190    8.4100 C.3   227  THR227      0.1784
     78  OG1       42.6050   31.1590    6.9870 O.3   227  THR227     -0.2211
     79  CG2       42.6840   29.8190    8.9800 C.3   227  THR227      0.0376
     80  N         40.5880   31.2270   11.0640 N.am  228  SER228     -0.1951
     81  CA        40.6530   31.0050   12.5070 C.3   228  SER228      0.1924
     82  C         41.0320   29.5640   12.7470 C.2   228  SER228      0.2314
     83  O         40.5710   28.6440   12.0390 O.2   228  SER228     -0.2863
     84  CB        39.3080   31.2960   13.1700 C.3   228  SER228      0.2116
     85  OG        39.1230   32.6810   13.2730 O.3   228  SER228     -0.2180
     86  N         46.8640   28.5580   16.4880 N.3   232  GLU232     -0.1231
     87  CA        47.5100   29.8540   16.3350 C.3   232  GLU232      0.1699
     88  C         47.8720   30.5070   17.6720 C.2   232  GLU232      0.2592
     89  O         48.7360   31.3840   17.7470 O.2   232  GLU232     -0.2718
     90  CB        46.6110   30.7870   15.5200 C.3   232  GLU232      0.0402
     91  CG        46.3080   30.2510   14.1370 C.3   232  GLU232      0.1161
     92  CD        45.5060   31.2110   13.2790 C.2   232  GLU232      0.3649
     93  OE1       45.2580   32.3610   13.7190 O.co2 232  GLU232     -0.2457
     94  OE2       45.1310   30.7990   12.1530 O.co2 232  GLU232     -0.2457
     95  N         47.2070   30.0910   18.7370 N.am  233  ARG233     -0.1980
     96  CA        47.5110   30.6290   20.0510 C.3   233  ARG233      0.1597
     97  C         46.9600   29.7050   21.1190 C.2   233  ARG233      0.2287
     98  O         45.7470   29.5180   21.2290 O.2   233  ARG233     -0.2864
     99  CB        46.9240   32.0240   20.2320 C.3   233  ARG233      0.0334
    100  CG        47.1300   32.5640   21.6210 C.3   233  ARG233      0.0492
    101  CD        46.6170   33.9820   21.7760 C.3   233  ARG233      0.2205
    102  NE        46.7230   34.4120   23.1650 N.pl3 233  ARG233     -0.0865
    103  CZ        46.3420   35.6010   23.6190 C.cat 233  ARG233      0.5346
    104  NH1       45.8160   36.4950   22.7900 N.pl3 233  ARG233      0.1354
    105  NH2       46.4820   35.8920   24.9080 N.pl3 233  ARG233      0.1354
    106  N         42.9380   29.6680   22.1210 N.3   244  HIS244     -0.1226
    107  CA        42.4210   31.0150   22.3540 C.3   244  HIS244      0.1752
    108  C         40.9740   31.2890   21.9780 C.2   244  HIS244      0.2596
    109  O         40.4190   32.3080   22.3760 O.2   244  HIS244     -0.2718
    110  CB        43.3270   32.0290   21.6670 C.3   244  HIS244      0.0759
    111  CG        43.1410   32.1270   20.1830 C.ar  244  HIS244      0.0818
    112  ND1       43.4260   31.0990   19.3020 N.ar  244  HIS244     -0.2268
    113  CD2       42.7410   33.1680   19.4180 C.ar  244  HIS244      0.1154
    114  CE1       43.1760   31.4980   18.0660 C.ar  244  HIS244      0.1986
    115  NE2       42.7560   32.7520   18.1100 N.ar  244  HIS244     -0.2212
    116  N         40.3450   30.3880   21.2330 N.am  245  ILE245     -0.1966
    117  CA        38.9840   30.6270   20.7760 C.3   245  ILE245      0.1727
    118  C         38.0040   29.9410   21.7330 C.2   245  ILE245      0.2616
    119  O         37.9460   28.7070   21.8370 O.2   245  ILE245     -0.2715
    120  CB        38.7880   30.1250   19.3290 C.3   245  ILE245      0.0290
    121  CG1       39.7350   30.8850   18.3720 C.3   245  ILE245      0.0022
    122  CG2       37.3520   30.3120   18.9000 C.3   245  ILE245      0.0023
    123  CD1       39.8000   30.2730   17.0000 C.3   245  ILE245      0.0001
    124  N         37.2470   30.7460   22.4560 N.am  246  ILE246     -0.1977
    125  CA        36.4140   30.2450   23.5270 C.3   246  ILE246      0.1596
    126  C         35.0200   29.9000   23.0270 C.2   246  ILE246      0.2287
    127  O         34.4450   30.6280   22.2400 O.2   246  ILE246     -0.2864
    128  CB        36.2690   31.3140   24.6340 C.3   246  ILE246      0.0276
    129  CG1       37.6420   31.6970   25.1810 C.3   246  ILE246      0.0022
    130  CG2       35.3320   30.8080   25.7400 C.3   246  ILE246      0.0022
    131  CD1       38.4000   30.5550   25.8150 C.3   246  ILE246      0.0001
    132  N         31.4360   30.1460   24.0510 N.3   248  PRO248     -0.2116
    133  CA        30.6970   30.8750   25.1070 C.3   248  PRO248      0.1372
    134  C         29.7240   30.0540   25.9120 C.2   248  PRO248      0.2244
    135  O         29.3030   30.5390   26.9650 O.2   248  PRO248     -0.2868
    136  CB        29.9370   31.9440   24.3160 C.3   248  PRO248      0.0268
    137  CG        30.8030   32.1800   23.1150 C.3   248  PRO248      0.0207
    138  CD        31.2670   30.7970   22.7350 C.3   248  PRO248      0.0892
    139  N         36.2980   37.9030    9.2580 N.3   272  ASP272     -0.1239
    140  CA        36.9440   37.6960   10.5380 C.3   272  ASP272      0.1674
    141  C         35.8990   37.2200   11.5660 C.2   272  ASP272      0.2266
    142  O         36.1190   36.2210   12.2550 O.2   272  ASP272     -0.2867
    143  CB        37.6730   38.9850   10.9610 C.3   272  ASP272      0.1410
    144  CG        38.7600   38.7670   12.0000 C.2   272  ASP272      0.3668
    145  OD1       39.0840   37.6020   12.3530 O.co2 272  ASP272     -0.2456
    146  OD2       39.2910   39.8070   12.4550 O.co2 272  ASP272     -0.2456
    147  N         35.5760   33.0520   13.2000 N.3   276  THR276     -0.1218
    148  CA        35.5390   32.7190   14.6170 C.3   276  THR276      0.1862
    149  C         34.2360   31.9820   14.9660 C.2   276  THR276      0.2287
    150  O         34.2580   30.9310   15.6330 O.2   276  THR276     -0.2866
    151  CB        35.6680   33.9570   15.4710 C.3   276  THR276      0.1770
    152  OG1       36.8670   34.6690   15.0920 O.3   276  THR276     -0.2211
    153  CG2       35.6750   33.5950   16.9430 C.3   276  THR276      0.0375
    154  N         33.8410   27.9050   16.2650 N.3   280  VAL280     -0.1245
    155  CA        33.0920   27.5090   17.4560 C.3   280  VAL280      0.1561
    156  C         31.9320   26.5780   17.1170 C.2   280  VAL280      0.2260
    157  O         31.6960   25.5850   17.8200 O.2   280  VAL280     -0.2867
    158  CB        32.5890   28.7570   18.1690 C.3   280  VAL280      0.0252
    159  CG1       31.6500   28.3750   19.3360 C.3   280  VAL280      0.0019
    160  CG2       33.7360   29.5230   18.7140 C.3   280  VAL280      0.0019
@<TRIPOS>BOND
     1    78    77    1
     2    73    74    1
     3    77    74    1
     4    77    79    1
     5    74    75    1
     6   139   140    1
     7    67    66    2
     8    75    76    2
     9    75    80   am
    10   140   143    1
    11   140   141    1
    12    66    65    1
    13   143   144    1
    14    80    81    1
    15   141   142    2
    16   144   145   ar
    17   144   146   ar
    18    83    82    2
    19    94    92   ar
    20    65    68    1
    21    65    64    1
    22    68    69    1
    23    81    82    1
    24    81    84    1
    25    84    85    1
    26   147   148    1
    27    70    69    1
    28    70    71    1
    29    92    93   ar
    30    92    91    1
    31    71    72    1
    32    91    90    1
    33    62    61    2
    34   148   149    1
    35   148   151    1
    36   149   150    2
    37   152   151    1
    38    61    60    1
    39   151   153    1
    40    90    87    1
    41   154   155    1
    42    87    86    1
    43    87    88    1
    44    13    15   ar
    45    13    11   ar
    46    15    16   ar
    47    10    11    1
    48    10     7    1
    49    11    12   ar
    50    60    63    1
    51    60    59    1
    52    16    14   ar
    53    12    14   ar
    54    58    57    2
    55   123   121    1
    56   156   155    1
    57   156   157    2
    58   155   158    1
    59    88    89    2
    60    88    95   am
    61     5     2    1
    62    59    57   am
    63    57    56    1
    64     6     7    1
    65     6     3   am
    66     7     8    1
    67   114   115   ar
    68   114   112   ar
    69   115   113   ar
    70   158   160    1
    71   158   159    1
    72   121   120    1
    73    95    96    1
    74     3     2    1
    75     3     4    2
    76     2     1    1
    77   122   120    1
    78     9     8    2
    79    56    55    1
    80     8    17   am
    81   112   111   ar
    82   120   117    1
    83   113   111   ar
    84    17    18    1
    85    96    99    1
    86    96    97    1
    87   111   110    1
    88    99   100    1
    89    29    30    1
    90    29    26    1
    91    30    31    1
    92    31    25    1
    93   117   116    1
    94   117   118    1
    95    25    26    1
    96    25    19   am
    97    18    19    1
    98    18    21    1
    99    97    98    2
   100   116   108   am
   101    26    27    1
   102    19    20    2
   103   100   101    1
   104    50    49    2
   105   110   107    1
   106   118   119    2
   107   118   124   am
   108   101   102    1
   109    49    48    1
   110   108   107    1
   111   108   109    2
   112   106   107    1
   113   127   126    2
   114    21    22    1
   115    53    52   ar
   116   124   125    1
   117    27    28    2
   118   138   137    1
   119   138   132    1
   120   104   103    1
   121   126   125    1
   122   137   136    1
   123   102   103    2
   124    52    54   ar
   125    52    51    1
   126    48    47    1
   127    48    51    1
   128    22    23    2
   129    22    24   am
   130   125   128    1
   131   103   105    1
   132   132   133    1
   133    39    37    1
   134   136   133    1
   135   128   129    1
   136   128   130    1
   137    36    37    1
   138    36    33    1
   139   133   134    1
   140   129   131    1
   141    32    33    1
   142    37    38    1
   143    46    44    1
   144   134   135    2
   145    45    44    1
   146    33    34    1
   147    44    41    1
   148    34    35    2
   149    41    40    1
   150    41    42    1
   151    42    43    2
