@<TRIPOS>MOLECULE
tmp/4ig3A01.pdb
 81 79 0 0 0
SMALL
GASTEIGER

@<TRIPOS>ATOM
      1  N         63.0550  -16.9390   58.8140 N.3     7  ILE7       -0.1231
      2  CA        62.2620  -16.2440   57.8130 C.3     7  ILE7        0.1692
      3  C         62.0110  -14.7800   58.1810 C.2     7  ILE7        0.2592
      4  O         61.5180  -14.4750   59.2540 O.2     7  ILE7       -0.2718
      5  CB        60.9530  -17.0130   57.5800 C.3     7  ILE7        0.0266
      6  CG1       61.2790  -18.4130   57.0290 C.3     7  ILE7        0.0019
      7  CG2       59.9950  -16.2140   56.6960 C.3     7  ILE7        0.0020
      8  CD1       60.0920  -19.3210   56.8700 C.3     7  ILE7        0.0001
      9  N         62.4590  -13.8850   57.3210 N.am    8  GLU8       -0.1966
     10  CA        62.2760  -12.4450   57.4680 C.3     8  GLU8        0.1733
     11  C         60.7910  -12.0790   57.6070 C.2     8  GLU8        0.2617
     12  O         59.9690  -12.5970   56.8640 O.2     8  GLU8       -0.2715
     13  CB        62.8190  -11.7020   56.2540 C.3     8  GLU8        0.0429
     14  CG        62.7500  -10.1960   56.4550 C.3     8  GLU8        0.1163
     15  CD        63.2160   -9.4190   55.2480 C.2     8  GLU8        0.3649
     16  OE1       64.3200   -9.6900   54.7390 O.co2   8  GLU8       -0.2457
     17  OE2       62.5080   -8.4660   54.8640 O.co2   8  GLU8       -0.2457
     18  N         60.4360  -11.2600   58.5750 N.am    9  THR9       -0.1937
     19  CA        59.0620  -10.8090   58.8000 C.3     9  THR9        0.2028
     20  C         58.5930   -9.7100   57.8440 C.2     9  THR9        0.2642
     21  O         59.3850   -8.8980   57.3980 O.2     9  THR9       -0.2714
     22  CB        58.7300  -10.4100   60.2690 C.3     9  THR9        0.1808
     23  OG1       59.4620   -9.2420   60.6370 O.3     9  THR9       -0.2208
     24  CG2       59.0650  -11.5330   61.2260 C.3     9  THR9        0.0379
     25  N         57.3410   -9.7740   57.4210 N.am   10  VAL10      -0.1977
     26  CA        56.7290   -8.6980   56.6310 C.3    10  VAL10       0.1596
     27  C         56.1360   -7.6880   57.6480 C.2    10  VAL10       0.2287
     28  O         55.3780   -8.0620   58.5600 O.2    10  VAL10      -0.2864
     29  CB        55.6300   -9.2060   55.7020 C.3    10  VAL10       0.0276
     30  CG1       54.8400   -8.0380   55.1180 C.3    10  VAL10       0.0022
     31  CG2       56.2230  -10.1470   54.6310 C.3    10  VAL10       0.0022
     32  N         53.9190  -15.0060   49.7830 N.3   164  SER164     -0.1202
     33  CA        55.0910  -14.2120   49.4040 C.3   164  SER164      0.2020
     34  C         56.3490  -14.7820   50.0510 C.2   164  SER164      0.2619
     35  O         57.4160  -14.8360   49.4370 O.2   164  SER164     -0.2717
     36  CB        54.9180  -12.7630   49.8600 C.3   164  SER164      0.2103
     37  OG        53.8320  -12.1600   49.1760 O.3   164  SER164     -0.2182
     38  N         56.2040  -15.2860   51.2720 N.am  165  SER165     -0.1951
     39  CA        57.3650  -15.8440   51.9950 C.3   165  SER165      0.1924
     40  C         57.8390  -17.1310   51.3070 C.2   165  SER165      0.2314
     41  O         59.0340  -17.3220   51.0900 O.2   165  SER165     -0.2863
     42  CB        57.0350  -16.0800   53.4690 C.3   165  SER165      0.2116
     43  OG        56.6460  -14.8540   54.1090 O.3   165  SER165     -0.2180
     44  N         57.3520  -17.9480   48.1550 N.3   167  THR167     -0.1203
     45  CA        57.9130  -17.6220   46.8510 C.3   167  THR167      0.1994
     46  C         59.3780  -17.1790   46.9270 C.2   167  THR167      0.2618
     47  O         60.2210  -17.6250   46.1240 O.2   167  THR167     -0.2717
     48  CB        57.0810  -16.4830   46.2360 C.3   167  THR167      0.1784
     49  OG1       55.7720  -16.9910   45.9510 O.3   167  THR167     -0.2211
     50  CG2       57.7190  -15.9650   44.9680 C.3   167  THR167      0.0376
     51  N         59.6970  -16.3650   47.9280 N.am  168  LYS168     -0.1965
     52  CA        61.0480  -15.8330   48.1060 C.3   168  LYS168      0.1728
     53  C         62.0240  -16.9610   48.4380 C.2   168  LYS168      0.2616
     54  O         63.1810  -17.0000   47.9860 O.2   168  LYS168     -0.2715
     55  CB        61.0910  -14.7030   49.1490 C.3   168  LYS168      0.0311
     56  CG        60.3650  -13.4350   48.6860 C.3   168  LYS168      0.0038
     57  CD        60.8300  -12.9800   47.2750 C.3   168  LYS168      0.0206
     58  CE        62.2520  -12.3930   47.3050 C.3   168  LYS168      0.1093
     59  NZ        62.7020  -11.8960   45.9570 N.3   168  LYS168     -0.1314
     60  N         61.5310  -17.8990   49.2350 N.am  169  ILE169     -0.1977
     61  CA        62.3170  -19.0850   49.6020 C.3   169  ILE169      0.1596
     62  C         62.5500  -19.9920   48.4030 C.2   169  ILE169      0.2287
     63  O         63.6340  -20.5590   48.2380 O.2   169  ILE169     -0.2864
     64  CB        61.5530  -19.8540   50.6990 C.3   169  ILE169      0.0276
     65  CG1       61.7440  -19.1300   52.0320 C.3   169  ILE169      0.0022
     66  CG2       62.0190  -21.2840   50.7940 C.3   169  ILE169      0.0022
     67  CD1       60.8160  -19.5960   53.1260 C.3   169  ILE169      0.0001
     68  N         65.4100  -23.6880   55.8070 N.3   214  TRP214     -0.1241
     69  CA        64.5900  -22.8290   56.6510 C.3   214  TRP214      0.1605
     70  C         63.8400  -23.6630   57.6770 C.2   214  TRP214      0.2264
     71  O         62.9380  -23.1720   58.3400 O.2   214  TRP214     -0.2867
     72  CB        63.6110  -22.0030   55.8110 C.3   214  TRP214      0.0550
     73  CG        64.2800  -20.9470   54.9970 C.ar  214  TRP214      0.0003
     74  CD1       64.4340  -19.6340   55.3330 C.ar  214  TRP214      0.0946
     75  CD2       64.8810  -21.1090   53.7120 C.ar  214  TRP214      0.0152
     76  NE1       65.0940  -18.9680   54.3320 N.ar  214  TRP214     -0.2442
     77  CE2       65.3790  -19.8520   53.3260 C.ar  214  TRP214      0.0810
     78  CE3       65.0450  -22.1940   52.8510 C.ar  214  TRP214      0.0012
     79  CZ2       66.0260  -19.6500   52.1210 C.ar  214  TRP214      0.0191
     80  CZ3       65.6900  -21.9920   51.6510 C.ar  214  TRP214      0.0001
     81  CH2       66.1680  -20.7250   51.2910 C.ar  214  TRP214      0.0015
@<TRIPOS>BOND
     1    50    48    1
     2    49    48    1
     3    59    58    1
     4    47    46    2
     5    48    45    1
     6    45    46    1
     7    45    44    1
     8    46    51   am
     9    57    58    1
    10    57    56    1
    11    51    52    1
    12    54    53    2
    13    52    53    1
    14    52    55    1
    15    63    62    2
    16    62    61    1
    17    53    60   am
    18    56    55    1
    19    37    36    1
    20    60    61    1
    21    33    32    1
    22    33    36    1
    23    33    34    1
    24    35    34    2
    25    61    64    1
    26    34    38   am
    27    64    66    1
    28    64    65    1
    29    41    40    2
    30    38    39    1
    31    81    80   ar
    32    81    79   ar
    33    40    39    1
    34    80    78   ar
    35    39    42    1
    36    65    67    1
    37    79    77   ar
    38    78    75   ar
    39    77    75   ar
    40    77    76   ar
    41    42    43    1
    42    75    73   ar
    43    76    74   ar
    44    31    29    1
    45    16    15   ar
    46    17    15   ar
    47    73    74   ar
    48    73    72    1
    49    30    29    1
    50    15    14    1
    51    29    26    1
    52    68    69    1
    53    72    69    1
    54    13    14    1
    55    13    10    1
    56    26    25    1
    57    26    27    1
    58    69    70    1
    59     7     5    1
    60    12    11    2
    61     8     6    1
    62     6     5    1
    63     9    10    1
    64     9     3   am
    65    21    20    2
    66    25    20   am
    67    10    11    1
    68     5     2    1
    69    11    18   am
    70    27    28    2
    71    70    71    2
    72     2     3    1
    73     2     1    1
    74    20    19    1
    75     3     4    2
    76    18    19    1
    77    19    22    1
    78    22    23    1
    79    22    24    1
