@<TRIPOS>MOLECULE
tmp/4ig6A00.pdb
 152 151 0 0 0
SMALL
GASTEIGER

@<TRIPOS>ATOM
      1  N         -5.1610   23.7010  -16.4090 N.3    86  PHE86      -0.1227
      2  CA        -5.2880   24.1850  -17.7900 C.3    86  PHE86       0.1736
      3  C         -5.6680   23.0130  -18.6680 C.2    86  PHE86       0.2596
      4  O         -4.9480   22.0150  -18.7150 O.2    86  PHE86      -0.2718
      5  CB        -3.9700   24.8180  -18.2710 C.3    86  PHE86       0.0547
      6  CG        -3.9820   25.2460  -19.7060 C.ar   86  PHE86      -0.0202
      7  CD1       -5.0660   25.9260  -20.2450 C.ar   86  PHE86      -0.0042
      8  CD2       -2.8830   25.0070  -20.5250 C.ar   86  PHE86      -0.0042
      9  CE1       -5.0650   26.3190  -21.5680 C.ar   86  PHE86      -0.0003
     10  CE2       -2.8780   25.4090  -21.8550 C.ar   86  PHE86      -0.0003
     11  CZ        -3.9830   26.0420  -22.3790 C.ar   86  PHE86      -0.0000
     12  N         -6.8150   23.1420  -19.3340 N.am   87  THR87      -0.1939
     13  CA        -7.2750   22.2080  -20.3240 C.3    87  THR87       0.2028
     14  C         -6.3210   22.2870  -21.5100 C.2    87  THR87       0.2643
     15  O         -6.1380   23.3540  -22.0920 O.2    87  THR87      -0.2714
     16  CB        -8.7260   22.5230  -20.7910 C.3    87  THR87       0.1808
     17  OG1       -8.8470   23.8840  -21.2600 O.3    87  THR87      -0.2208
     18  CG2       -9.6990   22.3150  -19.6470 C.3    87  THR87       0.0379
     19  N         -5.7140   21.1570  -21.8550 N.am   88  SER88      -0.1936
     20  CA        -4.7580   21.1020  -22.9560 C.3    88  SER88       0.2040
     21  C         -4.6310   19.6770  -23.4750 C.2    88  SER88       0.2490
     22  O         -4.5120   18.7640  -22.6850 O.2    88  SER88      -0.2729
     23  CB        -3.3820   21.5570  -22.4810 C.3    88  SER88       0.2129
     24  OG        -2.4490   21.5190  -23.5560 O.3    88  SER88      -0.2179
     25  N         -4.6140   19.4880  -24.8070 N.am   89  PRO89      -0.2640
     26  CA        -4.3230   18.1520  -25.3810 C.3    89  PRO89       0.1762
     27  C         -2.9600   17.6220  -24.9620 C.2    89  PRO89       0.2641
     28  O         -2.7080   16.4320  -25.0420 O.2    89  PRO89      -0.2712
     29  CB        -4.3190   18.3800  -26.9080 C.2    89  PRO89      -0.0003
     30  CG        -4.6260   19.7950  -27.1520 C.2    89  PRO89      -0.0071
     31  CD        -4.7570   20.5300  -25.8370 C.3    89  PRO89       0.1204
     32  N         -2.0990   18.5160  -24.5050 N.am   90  ARG90      -0.1975
     33  CA        -0.7480   18.1660  -24.1240 C.3    90  ARG90       0.1597
     34  C         -0.6640   17.6370  -22.7000 C.2    90  ARG90       0.2287
     35  O          0.3980   17.3210  -22.2240 O.2    90  ARG90      -0.2864
     36  CB         0.0840   19.4360  -24.2320 C.3    90  ARG90       0.0334
     37  CG         1.5320   19.2150  -24.5260 C.3    90  ARG90       0.0492
     38  CD         2.2240   20.5200  -24.8770 C.3    90  ARG90       0.2205
     39  NE         2.2900   21.4140  -23.7350 N.pl3  90  ARG90      -0.0865
     40  CZ         2.9020   22.5860  -23.7320 C.cat  90  ARG90       0.5346
     41  NH1        3.5090   23.0460  -24.8180 N.pl3  90  ARG90       0.1354
     42  NH2        2.8870   23.3110  -22.6270 N.pl3  90  ARG90       0.1354
     43  N         -8.6300   27.0150  -22.8380 N.3   113  GLY113     -0.1210
     44  CA        -7.9690   27.4650  -24.0250 C.3   113  GLY113      0.1956
     45  C         -8.9320   27.7130  -25.1820 C.2   113  GLY113      0.2612
     46  O        -10.0330   27.1710  -25.2350 O.2   113  GLY113     -0.2717
     47  N         -8.4940   28.5530  -26.0990 N.am  114  ARG114     -0.1965
     48  CA        -9.1550   28.7610  -27.3760 C.3   114  ARG114      0.1729
     49  C         -8.0590   29.0650  -28.3890 C.2   114  ARG114      0.2616
     50  O         -6.8830   29.2220  -28.0170 O.2   114  ARG114     -0.2715
     51  CB       -10.1420   29.9290  -27.2940 C.3   114  ARG114      0.0348
     52  CG       -11.5520   29.5590  -26.8410 C.3   114  ARG114      0.0492
     53  CD       -12.3310   28.8110  -27.9180 C.3   114  ARG114      0.2205
     54  NE       -13.3940   27.9960  -27.3230 N.pl3 114  ARG114     -0.0865
     55  CZ       -14.3850   27.3930  -27.9840 C.cat 114  ARG114      0.5346
     56  NH1      -15.2740   26.6440  -27.3270 N.pl3 114  ARG114      0.1354
     57  NH2      -14.5190   27.5390  -29.2760 N.pl3 114  ARG114      0.1354
     58  N         -8.4340   29.1200  -29.6630 N.am  115  PHE115     -0.1960
     59  CA        -7.4890   29.4010  -30.7210 C.3   115  PHE115      0.1771
     60  C         -6.3810   28.3460  -30.6440 C.2   115  PHE115      0.2619
     61  O         -6.6700   27.1650  -30.4750 O.2   115  PHE115     -0.2715
     62  CB        -6.9770   30.8490  -30.6020 C.3   115  PHE115      0.0574
     63  CG        -8.0850   31.8790  -30.5230 C.ar  115  PHE115     -0.0200
     64  CD1       -8.8070   32.2400  -31.6610 C.ar  115  PHE115     -0.0042
     65  CD2       -8.3970   32.5010  -29.3140 C.ar  115  PHE115     -0.0042
     66  CE1       -9.8350   33.1930  -31.5870 C.ar  115  PHE115     -0.0003
     67  CE2       -9.4150   33.4440  -29.2370 C.ar  115  PHE115     -0.0003
     68  CZ       -10.1460   33.7760  -30.3730 C.ar  115  PHE115     -0.0000
     69  N         -5.1250   28.7380  -30.7450 N.am  116  GLU116     -0.1963
     70  CA        -4.0530   27.7540  -30.7740 C.3   116  GLU116      0.1733
     71  C         -3.5390   27.4230  -29.3900 C.2   116  GLU116      0.2616
     72  O         -2.6670   26.5820  -29.2300 O.2   116  GLU116     -0.2715
     73  CB        -2.9050   28.2290  -31.6610 C.3   116  GLU116      0.0429
     74  CG        -3.2410   28.2170  -33.1350 C.3   116  GLU116      0.1163
     75  CD        -3.4160   26.8240  -33.7170 C.2   116  GLU116      0.3649
     76  OE1       -2.6750   25.8740  -33.3940 O.co2 116  GLU116     -0.2457
     77  OE2       -4.3110   26.6750  -34.5550 O.co2 116  GLU116     -0.2457
     78  N         -4.1000   28.0770  -28.3850 N.am  117  GLY117     -0.1955
     79  CA        -3.7090   27.8520  -27.0120 C.3   117  GLY117      0.1869
     80  C         -3.3980   29.1610  -26.3320 C.2   117  GLY117      0.2309
     81  O         -3.9740   30.2190  -26.6730 O.2   117  GLY117     -0.2863
     82  N         -4.2050   19.2770  -18.3840 N.3   131  VAL131     -0.1231
     83  CA        -5.0820   18.0910  -18.4050 C.3   131  VAL131      0.1692
     84  C         -5.7910   17.9480  -19.7410 C.2   131  VAL131      0.2593
     85  O         -6.4270   18.9010  -20.2180 O.2   131  VAL131     -0.2718
     86  CB        -6.1670   18.1480  -17.3140 C.3   131  VAL131      0.0266
     87  CG1       -6.9490   16.8480  -17.2440 C.3   131  VAL131      0.0020
     88  CG2       -5.5450   18.4130  -15.9650 C.3   131  VAL131      0.0020
     89  N         -5.6850   16.7570  -20.3200 N.am  132  SER132     -0.1938
     90  CA        -6.3810   16.3820  -21.5530 C.3   132  SER132      0.2055
     91  C         -7.5520   15.4680  -21.1760 C.2   132  SER132      0.2643
     92  O         -7.4260   14.6270  -20.2830 O.2   132  SER132     -0.2714
     93  CB        -5.4610   15.5960  -22.4880 C.3   132  SER132      0.2130
     94  OG        -6.1480   15.1860  -23.6780 O.3   132  SER132     -0.2179
     95  N         -8.6910   15.6260  -21.8300 N.am  133  ILE133     -0.1963
     96  CA        -9.7670   14.6850  -21.5760 C.3   133  ILE133      0.1727
     97  C         -9.7320   13.4880  -22.5280 C.2   133  ILE133      0.2616
     98  O        -10.5540   12.5970  -22.4000 O.2   133  ILE133     -0.2715
     99  CB       -11.1460   15.3630  -21.5830 C.3   133  ILE133      0.0290
    100  CG1      -11.4610   15.9740  -22.9460 C.3   133  ILE133      0.0022
    101  CG2      -11.1810   16.4100  -20.4990 C.3   133  ILE133      0.0023
    102  CD1      -12.9360   16.1800  -23.1550 C.3   133  ILE133      0.0001
    103  N         -8.7830   13.4890  -23.4610 N.am  134  GLY134     -0.1955
    104  CA        -8.5940   12.4090  -24.4170 C.3   134  GLY134      0.1869
    105  C         -7.7660   12.8320  -25.6180 C.2   134  GLY134      0.2309
    106  O         -7.5180   14.0410  -25.8510 O.2   134  GLY134     -0.2863
    107  N         -7.9350   13.6340  -28.6970 N.3   136  TYR136     -0.1227
    108  CA        -8.6930   14.2390  -29.7580 C.3   136  TYR136      0.1736
    109  C         -8.5930   15.7510  -29.5760 C.2   136  TYR136      0.2595
    110  O         -8.2600   16.2020  -28.5010 O.2   136  TYR136     -0.2718
    111  CB       -10.1360   13.7300  -29.7460 C.3   136  TYR136      0.0548
    112  CG       -10.7370   13.5700  -28.3690 C.ar  136  TYR136     -0.0200
    113  CD1      -11.2160   14.6680  -27.6640 C.ar  136  TYR136     -0.0009
    114  CD2      -10.8470   12.3060  -27.7730 C.ar  136  TYR136     -0.0009
    115  CE1      -11.7560   14.5330  -26.3900 C.ar  136  TYR136      0.0417
    116  CE2      -11.4090   12.1500  -26.5070 C.ar  136  TYR136      0.0417
    117  CZ       -11.8770   13.2610  -25.8140 C.ar  136  TYR136      0.1957
    118  OH       -12.4340   13.1110  -24.5470 O.3   136  TYR136     -0.2866
    119  N         -8.8470   16.5200  -30.6310 N.am  137  VAL137     -0.1966
    120  CA        -8.6530   17.9690  -30.6100 C.3   137  VAL137      0.1727
    121  C         -9.9990   18.6970  -30.6400 C.2   137  VAL137      0.2616
    122  O        -10.7350   18.6420  -31.6350 O.2   137  VAL137     -0.2715
    123  CB        -7.7960   18.4350  -31.8100 C.3   137  VAL137      0.0290
    124  CG1       -7.5100   19.9290  -31.7200 C.3   137  VAL137      0.0023
    125  CG2       -6.4820   17.6480  -31.8740 C.3   137  VAL137      0.0023
    126  N        -10.3130   19.3460  -29.5230 N.am  138  LEU138     -0.1963
    127  CA       -11.4910   20.1730  -29.3990 C.3   138  LEU138      0.1728
    128  C        -11.1670   21.5750  -29.9190 C.2   138  LEU138      0.2617
    129  O        -10.0210   21.9060  -30.0520 O.2   138  LEU138     -0.2715
    130  CB       -11.9030   20.2560  -27.9330 C.3   138  LEU138      0.0311
    131  CG       -12.1300   18.9300  -27.1960 C.3   138  LEU138      0.0022
    132  CD1      -12.3150   19.1840  -25.7210 C.3   138  LEU138      0.0001
    133  CD2      -13.3410   18.2070  -27.7570 C.3   138  LEU138      0.0001
    134  N        -12.1950   22.3770  -30.1780 N.am  139  SER139     -0.1936
    135  CA       -12.0690   23.7950  -30.5250 C.3   139  SER139      0.2055
    136  C        -11.7510   24.6890  -29.3420 C.2   139  SER139      0.2644
    137  O        -11.3480   25.8270  -29.5230 O.2   139  SER139     -0.2714
    138  CB       -13.3790   24.3040  -31.0690 C.3   139  SER139      0.2130
    139  OG       -13.8870   23.4580  -32.0670 O.3   139  SER139     -0.2179
    140  N        -11.9940   24.2000  -28.1290 N.am  140  GLY140     -0.1939
    141  CA       -11.7910   24.9940  -26.9270 C.3   140  GLY140      0.2014
    142  C        -11.8030   24.1110  -25.7000 C.2   140  GLY140      0.2639
    143  O        -12.2810   22.9600  -25.7390 O.2   140  GLY140     -0.2714
    144  N        -11.3030   24.6750  -24.5970 N.am  141  GLY141     -0.1954
    145  CA       -11.2780   24.0010  -23.3250 C.3   141  GLY141      0.1869
    146  C        -12.5860   23.8970  -22.5910 C.2   141  GLY141      0.2309
    147  O        -12.6470   23.1960  -21.5830 O.2   141  GLY141     -0.2863
    148  N        -13.9810   20.4540  -22.1600 N.3   144  ALA144     -0.1245
    149  CA       -13.0980   19.7210  -21.2850 C.3   144  ALA144      0.1562
    150  C        -13.3250   20.0820  -19.8260 C.2   144  ALA144      0.2260
    151  O        -13.3230   19.2290  -18.9520 O.2   144  ALA144     -0.2867
    152  CB       -11.6620   19.9970  -21.6730 C.3   144  ALA144      0.0290
@<TRIPOS>BOND
     1    77    75   ar
     2    75    76   ar
     3    75    74    1
     4    74    73    1
     5   139   138    1
     6   125   123    1
     7   123   124    1
     8   123   120    1
     9    64    66   ar
    10    64    63   ar
    11    73    70    1
    12   122   121    2
    13    66    68   ar
    14   138   135    1
    15    70    69    1
    16    70    71    1
    17    69    60   am
    18    59    60    1
    19    59    62    1
    20    59    58    1
    21    60    61    2
    22   121   120    1
    23   121   126   am
    24   119   120    1
    25   119   109   am
    26    62    63    1
    27   135   134    1
    28   135   136    1
    29    63    65   ar
    30    68    67   ar
    31   134   128   am
    32   129   128    2
    33   128   127    1
    34   108   111    1
    35   108   109    1
    36   108   107    1
    37   111   112    1
    38    58    49   am
    39   109   110    2
    40   137   136    2
    41   126   127    1
    42   127   130    1
    43    71    72    2
    44    71    78   am
    45   136   140   am
    46    65    67   ar
    47    57    55    1
    48    49    50    2
    49    49    48    1
    50    78    79    1
    51   112   114   ar
    52   112   113   ar
    53   140   141    1
    54    55    56    1
    55    55    54    2
    56   130   131    1
    57    53    54    1
    58    53    52    1
    59   114   116   ar
    60   133   131    1
    61   113   115   ar
    62    48    51    1
    63    48    47    1
    64    51    52    1
    65   131   132    1
    66    30    29    2
    67    30    31    1
    68    79    80    1
    69   141   142    1
    70    29    26    1
    71    81    80    2
    72   116   117   ar
    73   115   117   ar
    74    47    45   am
    75   106   105    2
    76    31    25    1
    77   117   118    1
    78   143   142    2
    79   142   144   am
    80   105   104    1
    81    26    27    1
    82    26    25    1
    83    46    45    2
    84    45    44    1
    85    28    27    2
    86    27    32   am
    87    38    37    1
    88    38    39    1
    89    41    40    1
    90    25    21   am
    91   144   145    1
    92    37    36    1
    93    32    33    1
    94   104   103    1
    95    36    33    1
    96    33    34    1
    97    44    43    1
    98    39    40    2
    99    40    42    1
   100    94    93    1
   101    24    23    1
   102    21    20    1
   103    21    22    2
   104   103    97   am
   105   145   146    1
   106   102   100    1
   107    20    23    1
   108    20    19    1
   109   100    99    1
   110    34    35    2
   111   146   147    2
   112    97    98    2
   113    97    96    1
   114    93    90    1
   115    11    10   ar
   116    11     9   ar
   117   148   149    1
   118    15    14    2
   119    19    14   am
   120    10     8   ar
   121    95    96    1
   122    95    91   am
   123   152   149    1
   124    99    96    1
   125    99   101    1
   126     9     7   ar
   127    90    91    1
   128    90    89    1
   129    14    13    1
   130   149   150    1
   131    17    16    1
   132    91    92    2
   133    16    13    1
   134    16    18    1
   135     8     6   ar
   136    13    12    1
   137    89    84   am
   138     7     6   ar
   139    85    84    2
   140   150   151    2
   141    84    83    1
   142     6     5    1
   143    12     3   am
   144     4     3    2
   145     3     2    1
   146    83    82    1
   147    83    86    1
   148     5     2    1
   149     2     1    1
   150    86    87    1
   151    86    88    1
