@<TRIPOS>MOLECULE
tmp/4ig7A00.pdb
 122 119 0 0 0
SMALL
GASTEIGER

@<TRIPOS>ATOM
      1  N        -13.0970  -13.9160   16.4670 N.3     5  LEU5       -0.1231
      2  CA       -13.8590  -14.4920   15.3720 C.3     5  LEU5        0.1693
      3  C        -15.3360  -14.2140   15.6170 C.2     5  LEU5        0.2591
      4  O        -15.7460  -13.9720   16.7560 O.2     5  LEU5       -0.2718
      5  CB       -13.6300  -15.9940   15.2950 C.3     5  LEU5        0.0284
      6  CG       -12.1880  -16.4610   15.1690 C.3     5  LEU5        0.0019
      7  CD1      -12.1580  -17.9740   15.2480 C.3     5  LEU5        0.0001
      8  CD2      -11.5970  -15.9770   13.8620 C.3     5  LEU5        0.0001
      9  N        -16.1320  -14.2270   14.5510 N.am    6  ILE6       -0.1980
     10  CA       -17.5300  -13.8280   14.6670 C.3     6  ILE6        0.1595
     11  C        -18.4460  -14.8860   14.0740 C.2     6  ILE6        0.2287
     12  O        -18.2750  -15.3010   12.9220 O.2     6  ILE6       -0.2864
     13  CB       -17.8110  -12.4750   13.9750 C.3     6  ILE6        0.0276
     14  CG1      -16.9990  -11.3670   14.6320 C.3     6  ILE6        0.0022
     15  CG2      -19.3020  -12.1540   14.0430 C.3     6  ILE6        0.0022
     16  CD1      -17.4050  -11.0910   16.0580 C.3     6  ILE6        0.0001
     17  N        -20.4740  -17.1860    3.9640 N.3    49  LEU49      -0.1245
     18  CA       -19.4140  -17.7770    4.7600 C.3    49  LEU49       0.1561
     19  C        -19.1660  -19.2140    4.2950 C.2    49  LEU49       0.2260
     20  O        -20.1150  -20.0040    4.1700 O.2    49  LEU49      -0.2867
     21  CB       -19.7460  -17.7330    6.2670 C.3    49  LEU49       0.0270
     22  CG       -18.8060  -18.6250    7.0930 C.3    49  LEU49       0.0019
     23  CD1      -18.3500  -17.9750    8.3730 C.3    49  LEU49       0.0001
     24  CD2      -19.4600  -19.9870    7.4050 C.3    49  LEU49       0.0001
     25  N        -12.2480  -21.7930    4.0130 N.3    52  TRP52      -0.1241
     26  CA       -11.2070  -21.2640    3.1290 C.3    52  TRP52       0.1605
     27  C        -10.3440  -22.4140    2.6140 C.2    52  TRP52       0.2264
     28  O         -9.7660  -23.1260    3.4150 O.2    52  TRP52      -0.2867
     29  CB       -10.3400  -20.2760    3.9070 C.3    52  TRP52       0.0550
     30  CG        -9.2580  -19.6140    3.1260 C.ar   52  TRP52       0.0003
     31  CD1       -9.1640  -19.4960    1.7680 C.ar   52  TRP52       0.0946
     32  CD2       -8.0960  -18.9780    3.6690 C.ar   52  TRP52       0.0152
     33  NE1       -8.0120  -18.8100    1.4350 N.ar   52  TRP52      -0.2442
     34  CE2       -7.3430  -18.4790    2.5860 C.ar   52  TRP52       0.0810
     35  CE3       -7.6290  -18.7640    4.9720 C.ar   52  TRP52       0.0012
     36  CZ2       -6.1340  -17.7930    2.7650 C.ar   52  TRP52       0.0191
     37  CZ3       -6.4250  -18.0720    5.1510 C.ar   52  TRP52       0.0001
     38  CH2       -5.6980  -17.5960    4.0540 C.ar   52  TRP52       0.0015
     39  N         -8.1270   -6.9350    3.4430 N.3    62  GLN62      -0.1245
     40  CA        -7.7100   -7.1890    4.8230 C.3    62  GLN62       0.1566
     41  C         -6.1920   -7.1670    5.0140 C.2    62  GLN62       0.2260
     42  O         -5.4350   -7.7060    4.1910 O.2    62  GLN62      -0.2867
     43  CB        -8.2180   -8.5660    5.2890 C.3    62  GLN62       0.0367
     44  CG        -9.7360   -8.6910    5.4200 C.3    62  GLN62       0.0905
     45  CD       -10.1570  -10.1500    5.5930 C.2    62  GLN62       0.2608
     46  OE1      -10.9560  -10.6600    4.8360 O.2    62  GLN62      -0.2717
     47  NE2       -9.5950  -10.8170    6.5920 N.am   62  GLN62      -0.0878
     48  N         -6.2890  -10.9520    9.5100 N.3    65  GLN65      -0.1231
     49  CA        -7.1570  -12.0530    9.0920 C.3    65  GLN65       0.1698
     50  C         -8.4630  -12.1040    9.8820 C.2    65  GLN65       0.2592
     51  O         -9.5390  -12.2910    9.3080 O.2    65  GLN65      -0.2718
     52  CB        -6.3930  -13.3770    9.2190 C.3    65  GLN65       0.0381
     53  CG        -7.1590  -14.6050    8.7260 C.3    65  GLN65       0.0905
     54  CD        -6.2900  -15.8560    8.7360 C.2    65  GLN65       0.2608
     55  OE1       -5.2310  -15.8930    8.0990 O.2    65  GLN65      -0.2717
     56  NE2       -6.7210  -16.8730    9.4700 N.am   65  GLN65      -0.0878
     57  N         -8.3870  -11.9340   11.2000 N.am   66  ASN66      -0.1974
     58  CA        -9.5840  -12.1140   12.0170 C.3    66  ASN66       0.1688
     59  C        -10.6140  -10.9930   11.9320 C.2    66  ASN66       0.2292
     60  O        -11.6630  -11.0710   12.5610 O.2    66  ASN66      -0.2864
     61  CB        -9.2200  -12.3850   13.4770 C.3    66  ASN66       0.1181
     62  CG        -8.6180  -13.7710   13.6770 C.2    66  ASN66       0.2629
     63  OD1       -8.4750  -14.5480   12.7280 O.2    66  ASN66      -0.2716
     64  ND2       -8.2440  -14.0760   14.9170 N.am   66  ASN66      -0.0877
     65  N        -12.2390  -10.3230    9.2360 N.3    68  CYS68      -0.1221
     66  CA       -13.0340  -10.5170    8.0100 C.3    68  CYS68       0.1808
     67  C        -14.5470  -10.2660    8.1300 C.2    68  CYS68       0.2601
     68  O        -15.1550   -9.7530    7.1900 O.2    68  CYS68      -0.2717
     69  CB       -12.7690  -11.8790    7.3660 C.3    68  CYS68       0.0970
     70  SG       -13.5280  -13.2960    8.1940 S.3    68  CYS68      -0.0800
     71  N        -15.1560  -10.5780    9.2800 N.am   69  ALA69      -0.1979
     72  CA       -16.6070  -10.3450    9.4380 C.3    69  ALA69       0.1597
     73  C        -16.9450   -8.8550    9.3520 C.2    69  ALA69       0.2287
     74  O        -17.8450   -8.4470    8.5990 O.2    69  ALA69      -0.2864
     75  CB       -17.1150  -10.9200   10.7620 C.3    69  ALA69       0.0319
     76  N        -10.2710  -22.7170    8.7120 N.3   127  VAL127     -0.1231
     77  CA       -10.6160  -21.2860    8.7620 C.3   127  VAL127      0.1692
     78  C        -11.8690  -21.0290    7.9350 C.2   127  VAL127      0.2592
     79  O        -11.9580  -21.4800    6.7760 O.2   127  VAL127     -0.2718
     80  CB        -9.4630  -20.3900    8.2380 C.3   127  VAL127      0.0266
     81  CG1       -9.9090  -18.9200    8.1600 C.3   127  VAL127      0.0020
     82  CG2       -8.2420  -20.5240    9.1330 C.3   127  VAL127      0.0020
     83  N        -12.8460  -20.3430    8.5290 N.am  128  PHE128     -0.1962
     84  CA       -14.0440  -19.9260    7.7970 C.3   128  PHE128      0.1771
     85  C        -14.0100  -18.4260    7.4840 C.2   128  PHE128      0.2620
     86  O        -13.6990  -17.6190    8.3560 O.2   128  PHE128     -0.2715
     87  CB       -15.2930  -20.3000    8.5850 C.3   128  PHE128      0.0574
     88  CG       -15.5630  -21.7840    8.5780 C.ar  128  PHE128     -0.0200
     89  CD1      -16.2230  -22.3690    7.5020 C.ar  128  PHE128     -0.0042
     90  CD2      -15.0990  -22.5970    9.6080 C.ar  128  PHE128     -0.0042
     91  CE1      -16.4470  -23.7430    7.4750 C.ar  128  PHE128     -0.0003
     92  CE2      -15.3240  -23.9690    9.5830 C.ar  128  PHE128     -0.0003
     93  CZ       -15.9930  -24.5330    8.5150 C.ar  128  PHE128     -0.0000
     94  N        -14.3350  -18.0690    6.2410 N.am  129  HIS129     -0.1959
     95  CA       -14.1370  -16.7040    5.7180 C.3   129  HIS129      0.1787
     96  C        -15.5020  -16.1090    5.3470 C.2   129  HIS129      0.2620
     97  O        -16.3610  -16.8350    4.8490 O.2   129  HIS129     -0.2715
     98  CB       -13.2560  -16.8090    4.4600 C.3   129  HIS129      0.0785
     99  CG       -12.8100  -15.5000    3.8830 C.ar  129  HIS129      0.0821
    100  ND1      -12.6510  -14.3510    4.6380 N.ar  129  HIS129     -0.2267
    101  CD2      -12.4530  -15.1620    2.6190 C.ar  129  HIS129      0.1154
    102  CE1      -12.2310  -13.3690    3.8600 C.ar  129  HIS129      0.1986
    103  NE2      -12.1040  -13.8340    2.6270 N.ar  129  HIS129     -0.2212
    104  N        -15.7200  -14.8150    5.6020 N.am  130  PHE130     -0.1974
    105  CA       -16.9210  -14.1100    5.1310 C.3   130  PHE130      0.1639
    106  C        -16.5560  -13.2930    3.8910 C.2   130  PHE130      0.2290
    107  O        -15.5330  -12.5880    3.8920 O.2   130  PHE130     -0.2864
    108  CB       -17.3990  -13.0950    6.1740 C.3   130  PHE130      0.0560
    109  CG       -18.0590  -13.6990    7.3790 C.ar  130  PHE130     -0.0200
    110  CD1      -19.3840  -14.1120    7.3230 C.ar  130  PHE130     -0.0042
    111  CD2      -17.3620  -13.8350    8.5750 C.ar  130  PHE130     -0.0042
    112  CE1      -20.0010  -14.6490    8.4470 C.ar  130  PHE130     -0.0003
    113  CE2      -17.9770  -14.3800    9.7020 C.ar  130  PHE130     -0.0003
    114  CZ       -19.2940  -14.7860    9.6310 C.ar  130  PHE130     -0.0000
    115  N         -9.5430  -10.9400    0.8980 N.3   146  LEU146     -0.1245
    116  CA        -8.1790  -11.4340    0.6380 C.3   146  LEU146      0.1561
    117  C         -7.6260  -10.9830   -0.7150 C.2   146  LEU146      0.2260
    118  O         -6.4100  -11.0360   -0.9370 O.2   146  LEU146     -0.2867
    119  CB        -8.1000  -12.9680    0.7190 C.3   146  LEU146      0.0270
    120  CG        -8.3040  -13.6390    2.0730 C.3   146  LEU146      0.0019
    121  CD1       -7.9260  -15.1020    2.0050 C.3   146  LEU146      0.0001
    122  CD2       -7.5300  -12.9660    3.1460 C.3   146  LEU146      0.0001
@<TRIPOS>BOND
     1   118   117    2
     2   117   116    1
     3   116   119    1
     4   116   115    1
     5   119   120    1
     6    33    31   ar
     7    33    34   ar
     8    31    30   ar
     9   121   120    1
    10   120   122    1
    11    34    36   ar
    12    34    32   ar
    13    27    26    1
    14    27    28    2
    15   101   103   ar
    16   101    99   ar
    17   103   102   ar
    18    36    38   ar
    19    30    32   ar
    20    30    29    1
    21    26    29    1
    22    26    25    1
    23    39    40    1
    24    32    35   ar
    25   102   100   ar
    26    99    98    1
    27    99   100   ar
    28   106   107    2
    29   106   105    1
    30    17    18    1
    31    38    37   ar
    32    20    19    2
    33    42    41    2
    34    19    18    1
    35    98    95    1
    36    18    21    1
    37    40    41    1
    38    40    43    1
    39    46    45    2
    40    97    96    2
    41    35    37   ar
    42   105   104    1
    43   105   108    1
    44    43    44    1
    45    96   104   am
    46    96    95    1
    47    44    45    1
    48    45    47   am
    49    95    94    1
    50   108   109    1
    51    94    85   am
    52    21    22    1
    53    79    78    2
    54    22    24    1
    55    22    23    1
    56    68    67    2
    57   110   109   ar
    58   110   112   ar
    59    69    66    1
    60    69    70    1
    61   109   111   ar
    62    91    89   ar
    63    91    93   ar
    64    85    84    1
    65    85    86    2
    66    89    88   ar
    67    84    83    1
    68    84    87    1
    69    78    83   am
    70    78    77    1
    71    66    67    1
    72    66    65    1
    73    55    54    2
    74    67    71   am
    75    81    80    1
    76    80    77    1
    77    80    82    1
    78   112   114   ar
    79    93    92   ar
    80   111   113   ar
    81    88    87    1
    82    88    90   ar
    83    74    73    2
    84    76    77    1
    85    53    54    1
    86    53    52    1
    87    54    56   am
    88    49    52    1
    89    49    48    1
    90    49    50    1
    91    71    72    1
    92    51    50    2
    93    73    72    1
    94    72    75    1
    95    92    90   ar
    96   114   113   ar
    97    50    57   am
    98    57    58    1
    99    59    58    1
   100    59    60    2
   101    58    61    1
   102    63    62    2
   103    12    11    2
   104    61    62    1
   105    62    64   am
   106     8     6    1
   107    13    15    1
   108    13    14    1
   109    13    10    1
   110    11    10    1
   111     9    10    1
   112     9     3   am
   113    14    16    1
   114     6     7    1
   115     6     5    1
   116     5     2    1
   117     2     3    1
   118     2     1    1
   119     3     4    2
