@<TRIPOS>MOLECULE
tmp/4ig8A00.pdb
 182 166 0 0 0
SMALL
GASTEIGER

@<TRIPOS>ATOM
      1  N         18.8560    6.1130   19.6540 N.3    60  GLY60      -0.1210
      2  CA        19.4920    4.8340   19.8750 C.3    60  GLY60       0.1956
      3  C         18.4820    3.8280   20.3790 C.2    60  GLY60       0.2612
      4  O         17.2870    3.9440   20.0980 O.2    60  GLY60      -0.2717
      5  N         18.9670    2.8430   21.1280 N.am   61  SER61      -0.1952
      6  CA        18.1250    1.7780   21.6600 C.3    61  SER61       0.1924
      7  C         16.9230    2.3130   22.4310 C.2    61  SER61       0.2314
      8  O         15.7950    1.8620   22.2240 O.2    61  SER61      -0.2863
      9  CB        18.9440    0.8600   22.5700 C.3    61  SER61       0.2116
     10  OG        19.7850    0.0030   21.8210 O.3    61  SER61      -0.2180
     11  N         14.0970    3.7590   20.2410 N.3    64  LYS64      -0.1245
     12  CA        13.4310    2.7890   19.3730 C.3    64  LYS64       0.1561
     13  C         12.6440    1.7360   20.1480 C.2    64  LYS64       0.2260
     14  O         11.6710    1.1780   19.6370 O.2    64  LYS64      -0.2867
     15  CB        14.4620    2.0840   18.4910 C.3    64  LYS64       0.0271
     16  CG        15.3440    3.0140   17.6790 C.3    64  LYS64       0.0035
     17  CD        16.5760    2.2810   17.1670 C.3    64  LYS64       0.0206
     18  CE        17.4820    3.1960   16.3590 C.3    64  LYS64       0.1093
     19  NZ        18.7400    2.5110   15.9440 N.3    64  LYS64      -0.1314
     20  N         18.5970   -3.8080   25.1750 N.3    68  LEU68      -0.1245
     21  CA        18.9450   -5.0220   25.8990 C.3    68  LEU68       0.1561
     22  C         19.0400   -4.6700   27.3740 C.2    68  LEU68       0.2260
     23  O         19.6520   -3.6630   27.7320 O.2    68  LEU68      -0.2867
     24  CB        20.2870   -5.5740   25.4230 C.3    68  LEU68       0.0270
     25  CG        20.4420   -5.8970   23.9380 C.3    68  LEU68       0.0019
     26  CD1       21.7570   -6.6200   23.6960 C.3    68  LEU68       0.0001
     27  CD2       19.2710   -6.7210   23.4400 C.3    68  LEU68       0.0001
     28  N         22.3640   -3.4990   29.4800 N.3    71  ARG71      -0.1231
     29  CA        23.4710   -3.4580   28.5290 C.3    71  ARG71       0.1694
     30  C         23.3400   -2.3280   27.5110 C.2    71  ARG71       0.2593
     31  O         24.2340   -2.1190   26.6910 O.2    71  ARG71      -0.2718
     32  CB        23.6030   -4.8040   27.8070 C.3    71  ARG71       0.0321
     33  CG        24.1260   -5.9340   28.6860 C.3    71  ARG71       0.0489
     34  CD        24.0850   -7.2730   27.9650 C.3    71  ARG71       0.2205
     35  NE        24.7950   -8.3130   28.7060 N.pl3  71  ARG71      -0.0865
     36  CZ        24.2420   -9.0840   29.6370 C.cat  71  ARG71       0.5346
     37  NH1       22.9610   -8.9390   29.9520 N.pl3  71  ARG71       0.1354
     38  NH2       24.9710  -10.0030   30.2560 N.pl3  71  ARG71       0.1354
     39  N         22.2290   -1.6010   27.5650 N.am   72  SER72      -0.1938
     40  CA        21.9740   -0.5310   26.6030 C.3    72  SER72       0.2055
     41  C         22.3710    0.8600   27.0950 C.2    72  SER72       0.2643
     42  O         22.1910    1.2000   28.2640 O.2    72  SER72      -0.2714
     43  CB        20.5040   -0.5280   26.1720 C.3    72  SER72       0.2130
     44  OG        20.2420   -1.5640   25.2420 O.3    72  SER72      -0.2179
     45  N         22.9030    1.6580   26.1750 N.am   73  ASP73      -0.1971
     46  CA        23.2170    3.0570   26.4250 C.3    73  ASP73       0.1709
     47  C         21.9570    3.8720   26.6710 C.2    73  ASP73       0.2293
     48  O         20.8380    3.3650   26.5870 O.2    73  ASP73      -0.2864
     49  CB        23.9250    3.6560   25.2050 C.3    73  ASP73       0.1436
     50  CG        25.4320    3.6480   25.3340 C.2    73  ASP73       0.3671
     51  OD1       25.9360    3.6880   26.4750 O.co2  73  ASP73      -0.2456
     52  OD2       26.1140    3.6160   24.2880 O.co2  73  ASP73      -0.2456
     53  N         21.1220    7.2500   24.6810 N.3    75  ASP75      -0.1239
     54  CA        21.6570    8.1450   23.6620 C.3    75  ASP75       0.1674
     55  C         20.8080    9.4020   23.4940 C.2    75  ASP75       0.2266
     56  O         19.6850    9.3500   22.9900 O.2    75  ASP75      -0.2867
     57  CB        21.8250    7.4050   22.3360 C.3    75  ASP75       0.1410
     58  CG        22.6660    6.1500   22.4780 C.2    75  ASP75       0.3668
     59  OD1       22.1030    5.0400   22.3790 O.co2  75  ASP75      -0.2456
     60  OD2       23.8880    6.2740   22.7060 O.co2  75  ASP75      -0.2456
     61  N         32.7630   12.8710   18.2440 N.3   122  ARG122     -0.1245
     62  CA        31.3710   13.0880   17.8730 C.3   122  ARG122      0.1563
     63  C         30.4680   13.2190   19.0960 C.2   122  ARG122      0.2260
     64  O         29.4100   13.8440   19.0270 O.2   122  ARG122     -0.2867
     65  CB        30.8600   11.9790   16.9490 C.3   122  ARG122      0.0307
     66  CG        29.5940   12.3610   16.1850 C.3   122  ARG122      0.0489
     67  CD        29.1310   11.2670   15.2290 C.3   122  ARG122      0.2205
     68  NE        30.0550   11.0620   14.1160 N.pl3 122  ARG122     -0.0865
     69  CZ        30.9460   10.0770   14.0540 C.cat 122  ARG122      0.5346
     70  NH1       31.0370    9.1970   15.0420 N.pl3 122  ARG122      0.1354
     71  NH2       31.7440    9.9690   13.0000 N.pl3 122  ARG122      0.1354
     72  N         25.7330    8.6840   25.8930 N.3   140  ASP140     -0.1239
     73  CA        26.3410    9.3630   24.7620 C.3   140  ASP140      0.1674
     74  C         25.5360   10.6340   24.5250 C.2   140  ASP140      0.2266
     75  O         24.3620   10.5760   24.1590 O.2   140  ASP140     -0.2867
     76  CB        26.3290    8.4770   23.5150 C.3   140  ASP140      0.1410
     77  CG        27.2360    7.2690   23.6470 C.2   140  ASP140      0.3668
     78  OD1       28.3200    7.3970   24.2550 O.co2 140  ASP140     -0.2456
     79  OD2       26.8640    6.1880   23.1430 O.co2 140  ASP140     -0.2456
     80  N         27.3990   10.6730    5.5730 N.3   176  GLY176     -0.1225
     81  CA        26.8200    9.9580    6.6970 C.3   176  GLY176      0.1811
     82  C         27.3410   10.3840    8.0570 C.2   176  GLY176      0.2280
     83  O         27.0540    9.7420    9.0670 O.2   176  GLY176     -0.2866
     84  N         24.2890   11.9450   10.6280 N.3   179  SER179     -0.1217
     85  CA        23.1080   11.1180   10.8410 C.3   179  SER179      0.1889
     86  C         22.3550   11.5500   12.0920 C.2   179  SER179      0.2288
     87  O         21.1540   11.3090   12.2250 O.2   179  SER179     -0.2866
     88  CB        23.5240    9.6550   10.9780 C.3   179  SER179      0.2089
     89  OG        24.5050    9.3170   10.0130 O.3   179  SER179     -0.2183
     90  N         15.4120    8.1350   12.3130 N.3   186  GLN186     -0.1245
     91  CA        16.0140    6.8450   12.6270 C.3   186  GLN186      0.1566
     92  C         15.1260    6.0960   13.6070 C.2   186  GLN186      0.2260
     93  O         14.8870    4.8990   13.4600 O.2   186  GLN186     -0.2867
     94  CB        17.4030    7.0260   13.2430 C.3   186  GLN186      0.0367
     95  CG        18.4650    7.5130   12.2780 C.3   186  GLN186      0.0905
     96  CD        19.8580    7.4680   12.8750 C.2   186  GLN186      0.2608
     97  OE1       20.0580    7.8080   14.0410 O.2   186  GLN186     -0.2717
     98  NE2       20.8290    7.0400   12.0780 N.am  186  GLN186     -0.0878
     99  N         20.8690   -8.4150   18.0840 N.3   205  LYS205     -0.1245
    100  CA        21.8440   -7.5450   18.7330 C.3   205  LYS205      0.1561
    101  C         22.7090   -8.2730   19.7640 C.2   205  LYS205      0.2260
    102  O         23.9200   -8.0680   19.8090 O.2   205  LYS205     -0.2867
    103  CB        21.1530   -6.3320   19.3570 C.3   205  LYS205      0.0271
    104  CG        20.6990   -5.3110   18.3280 C.3   205  LYS205      0.0035
    105  CD        19.9060   -4.1940   18.9690 C.3   205  LYS205      0.0206
    106  CE        20.7060   -3.5140   20.0600 C.3   205  LYS205      0.1093
    107  NZ        19.9040   -2.4500   20.7160 N.3   205  LYS205     -0.1314
    108  N         26.7680   -8.7890   19.8270 N.3   209  GLN209     -0.1245
    109  CA        27.6860   -8.4970   20.9270 C.3   209  GLN209      0.1566
    110  C         28.6080   -9.6840   21.1810 C.2   209  GLN209      0.2260
    111  O         29.7780   -9.5130   21.5230 O.2   209  GLN209     -0.2867
    112  CB        26.9190   -8.1690   22.2120 C.3   209  GLN209      0.0367
    113  CG        25.7790   -7.1680   22.0590 C.3   209  GLN209      0.0905
    114  CD        26.2460   -5.7330   21.8870 C.2   209  GLN209      0.2608
    115  OE1       27.4240   -5.4700   21.6450 O.2   209  GLN209     -0.2717
    116  NE2       25.3150   -4.7940   22.0160 N.am  209  GLN209     -0.0878
    117  N         31.2840   -9.4050   18.6830 N.3   212  LYS212     -0.1245
    118  CA        32.1610   -8.2750   18.9660 C.3   212  LYS212      0.1561
    119  C         33.1840   -8.6400   20.0390 C.2   212  LYS212      0.2260
    120  O         34.3370   -8.2110   19.9830 O.2   212  LYS212     -0.2867
    121  CB        31.3390   -7.0670   19.4180 C.3   212  LYS212      0.0271
    122  CG        31.7380   -5.7550   18.7620 C.3   212  LYS212      0.0035
    123  CD        30.9030   -4.6030   19.2980 C.3   212  LYS212      0.0206
    124  CE        31.2020   -3.3070   18.5620 C.3   212  LYS212      0.1093
    125  NZ        30.4360   -2.1620   19.1310 N.3   212  LYS212     -0.1314
    126  N         28.7230   -1.9090   11.8200 N.3   220  PRO220     -0.2102
    127  CA        27.8630   -1.2470   12.8080 C.3   220  PRO220      0.1504
    128  C         26.6690   -2.1050   13.2090 C.2   220  PRO220      0.2576
    129  O         26.1410   -2.8500   12.3840 O.2   220  PRO220     -0.2718
    130  CB        27.3740   -0.0020   12.0630 C.3   220  PRO220      0.0282
    131  CG        28.4160    0.2600   11.0360 C.3   220  PRO220      0.0208
    132  CD        28.9080   -1.0890   10.6110 C.3   220  PRO220      0.0893
    133  N         26.2530   -1.9900   14.4660 N.am  221  GLN221     -0.1966
    134  CA        25.0970   -2.7230   14.9680 C.3   221  GLN221      0.1733
    135  C         23.8280   -2.2650   14.2560 C.2   221  GLN221      0.2616
    136  O         22.8550   -3.0120   14.1530 O.2   221  GLN221     -0.2715
    137  CB        24.9570   -2.5190   16.4800 C.3   221  GLN221      0.0408
    138  CG        24.0640   -3.5390   17.1710 C.3   221  GLN221      0.0908
    139  CD        23.9510   -3.3020   18.6660 C.2   221  GLN221      0.2608
    140  OE1       24.1360   -4.2190   19.4670 O.2   221  GLN221     -0.2717
    141  NE2       23.6390   -2.0700   19.0490 N.am  221  GLN221     -0.0878
    142  N         23.8510   -1.0300   13.7650 N.am  222  TYR222     -0.1974
    143  CA        22.7140   -0.4530   13.0620 C.3   222  TYR222      0.1639
    144  C         22.4720   -1.1760   11.7390 C.2   222  TYR222      0.2290
    145  O         21.3300   -1.3290   11.3030 O.2   222  TYR222     -0.2864
    146  CB        22.9570    1.0360   12.8150 C.3   222  TYR222      0.0560
    147  CG        21.7520    1.7950   12.3090 C.ar  222  TYR222     -0.0198
    148  CD1       20.4620    1.3340   12.5420 C.ar  222  TYR222     -0.0009
    149  CD2       21.9070    2.9720   11.5920 C.ar  222  TYR222     -0.0009
    150  CE1       19.3630    2.0280   12.0770 C.ar  222  TYR222      0.0417
    151  CE2       20.8160    3.6710   11.1240 C.ar  222  TYR222      0.0417
    152  CZ        19.5470    3.1960   11.3680 C.ar  222  TYR222      0.1957
    153  OH        18.4590    3.8970   10.8990 O.3   222  TYR222     -0.2866
    154  N         20.5250   -4.2180   12.4790 N.3   225  GLU225     -0.1245
    155  CA        19.1380   -3.8770   12.7830 C.3   225  GLU225      0.1567
    156  C         18.3470   -3.6900   11.4960 C.2   225  GLU225      0.2260
    157  O         17.2040   -4.1350   11.3850 O.2   225  GLU225     -0.2867
    158  CB        19.0510   -2.5950   13.6180 C.3   225  GLU225      0.0388
    159  CG        19.3360   -2.7660   15.0990 C.3   225  GLU225      0.1160
    160  CD        18.8790   -1.5710   15.9220 C.2   225  GLU225      0.3649
    161  OE1       18.9510   -1.6380   17.1670 O.co2 225  GLU225     -0.2457
    162  OE2       18.4420   -0.5650   15.3240 O.co2 225  GLU225     -0.2457
    163  N         20.9540    4.2540    5.2410 N.3   292  ASP292     -0.1239
    164  CA        20.2320    4.7170    6.4170 C.3   292  ASP292      0.1674
    165  C         18.9200    5.3420    5.9550 C.2   292  ASP292      0.2266
    166  O         18.9280    6.2880    5.1690 O.2   292  ASP292     -0.2867
    167  CB        21.0810    5.7500    7.1630 C.3   292  ASP292      0.1410
    168  CG        20.6010    5.9980    8.5820 C.2   292  ASP292      0.3668
    169  OD1       19.3830    5.9090    8.8370 O.co2 292  ASP292     -0.2456
    170  OD2       21.4550    6.2910    9.4450 O.co2 292  ASP292     -0.2456
    171  N         24.2540    8.0040    4.3710 N.3   298  GLY298     -0.1225
    172  CA        24.7220    7.0180    5.3270 C.3   298  GLY298      0.1811
    173  C         24.7100    5.5970    4.8020 C.2   298  GLY298      0.2280
    174  O         23.6920    4.9070    4.8780 O.2   298  GLY298     -0.2866
    175  N         25.7450    2.1490    5.5900 N.3   300  LEU300     -0.1245
    176  CA        26.2140    1.1790    6.5650 C.3   300  LEU300      0.1561
    177  C         26.6960   -0.0660    5.8370 C.2   300  LEU300      0.2260
    178  O         26.1600   -0.4300    4.7890 O.2   300  LEU300     -0.2867
    179  CB        25.1010    0.8420    7.5540 C.3   300  LEU300      0.0270
    180  CG        24.6150    2.0640    8.3360 C.3   300  LEU300      0.0019
    181  CD1       23.1180    2.2510    8.1740 C.3   300  LEU300      0.0001
    182  CD2       24.9970    1.9540    9.8070 C.3   300  LEU300      0.0001
@<TRIPOS>BOND
     1   171   172    1
     2   178   177    2
     3   173   174    2
     4   173   172    1
     5   166   165    2
     6   163   164    1
     7    80    81    1
     8   175   176    1
     9   177   176    1
    10   165   164    1
    11   164   167    1
    12   176   179    1
    13    81    82    1
    14   167   168    1
    15   179   180    1
    16    82    83    2
    17   181   180    1
    18   180   182    1
    19   168   169   ar
    20   168   170   ar
    21    89    88    1
    22   132   131    1
    23   132   126    1
    24    84    85    1
    25    85    88    1
    26    85    86    1
    27   153   152    1
    28   131   130    1
    29   151   152   ar
    30   151   149   ar
    31   145   144    2
    32   152   150   ar
    33   157   156    2
    34   156   155    1
    35   149   147   ar
    36   144   143    1
    37   126   127    1
    38   130   127    1
    39   150   148   ar
    40    98    96   am
    41    86    87    2
    42    95    96    1
    43    95    94    1
    44   147   148   ar
    45   147   146    1
    46    90    91    1
    47   129   128    2
    48   154   155    1
    49    91    94    1
    50    91    92    1
    51   155   158    1
    52   127   128    1
    53   146   143    1
    54    96    97    2
    55    71    69    1
    56   143   142    1
    57   128   133   am
    58    93    92    2
    59   158   159    1
    60   142   135   am
    61    69    68    2
    62    69    70    1
    63    68    67    1
    64   136   135    2
    65   135   134    1
    66   133   134    1
    67   134   137    1
    68   159   160    1
    69    67    66    1
    70   162   160   ar
    71   160   161   ar
    72    19    18    1
    73    66    65    1
    74    18    17    1
    75   137   138    1
    76    65    62    1
    77    17    16    1
    78   138   139    1
    79    16    15    1
    80    62    61    1
    81    62    63    1
    82    99   100    1
    83   104   105    1
    84   104   103    1
    85    15    12    1
    86   124   125    1
    87   124   123    1
    88   139   141   am
    89   139   140    2
    90   117   118    1
    91   100   103    1
    92   100   101    1
    93   122   123    1
    94   122   121    1
    95   118   121    1
    96   118   119    1
    97   105   106    1
    98    64    63    2
    99    12    13    1
   100    12    11    1
   101    14    13    2
   102     1     2    1
   103   101   102    2
   104   108   109    1
   105     2     3    1
   106   120   119    2
   107   106   107    1
   108     4     3    2
   109     3     5   am
   110   109   110    1
   111   109   112    1
   112     5     6    1
   113   110   111    2
   114   115   114    2
   115     6     7    1
   116     6     9    1
   117    10     9    1
   118   114   116   am
   119   114   113    1
   120   113   112    1
   121     8     7    2
   122    57    58    1
   123    57    54    1
   124    59    58   ar
   125    58    60   ar
   126    56    55    2
   127    79    77   ar
   128    27    25    1
   129    55    54    1
   130    76    77    1
   131    76    73    1
   132    77    78   ar
   133    54    53    1
   134    26    25    1
   135    25    24    1
   136    75    74    2
   137    52    50   ar
   138    74    73    1
   139    73    72    1
   140    20    21    1
   141    49    50    1
   142    49    46    1
   143    44    43    1
   144    50    51   ar
   145    24    21    1
   146    21    22    1
   147    43    40    1
   148    45    46    1
   149    45    41   am
   150    46    47    1
   151    48    47    2
   152    40    41    1
   153    40    39    1
   154    31    30    2
   155    41    42    2
   156    22    23    2
   157    30    39   am
   158    30    29    1
   159    32    29    1
   160    32    33    1
   161    34    33    1
   162    34    35    1
   163    29    28    1
   164    35    36    2
   165    36    37    1
   166    36    38    1
