@<TRIPOS>MOLECULE
tmp/4ig9E00.pdb
 114 111 0 0 0
SMALL
GASTEIGER

@<TRIPOS>ATOM
      1  N        -16.4160   68.3820  -32.2250 N.3     5  LYS5       -0.1245
      2  CA       -15.9140   69.2340  -33.2970 C.3     5  LYS5        0.1561
      3  C        -16.9320   70.2880  -33.7190 C.2     5  LYS5        0.2260
      4  O        -18.1100   69.9860  -33.9100 O.2     5  LYS5       -0.2867
      5  CB       -15.5100   68.3900  -34.5100 C.3     5  LYS5        0.0271
      6  CG       -15.3240   69.1960  -35.7900 C.3     5  LYS5        0.0035
      7  CD       -14.9410   68.3110  -36.9650 C.3     5  LYS5        0.0206
      8  CE       -15.1890   69.0140  -38.2930 C.3     5  LYS5        0.1093
      9  NZ       -14.4960   70.3290  -38.3780 N.3     5  LYS5       -0.1314
     10  N        -13.8070   74.2420  -40.6010 N.3    10  ASN10      -0.1225
     11  CA       -13.3740   73.0530  -41.3320 C.3    10  ASN10       0.1785
     12  C        -12.1770   73.2800  -42.2540 C.2    10  ASN10       0.2598
     13  O        -11.2160   72.5110  -42.2350 O.2    10  ASN10      -0.2718
     14  CB       -14.5360   72.4790  -42.1470 C.3    10  ASN10       0.1169
     15  CG       -15.7480   72.1680  -41.2970 C.2    10  ASN10       0.2627
     16  OD1      -15.8500   71.0900  -40.7110 O.2    10  ASN10      -0.2716
     17  ND2      -16.6770   73.1120  -41.2260 N.am   10  ASN10      -0.0877
     18  N        -12.2450   74.3300  -43.0650 N.am   11  THR11      -0.1939
     19  CA       -11.2320   74.5730  -44.0880 C.3    11  THR11       0.2028
     20  C         -9.9660   75.2130  -43.5280 C.2    11  THR11       0.2642
     21  O         -9.9650   75.7470  -42.4190 O.2    11  THR11      -0.2714
     22  CB       -11.7790   75.4580  -45.2270 C.3    11  THR11       0.1808
     23  OG1      -12.1340   76.7460  -44.7110 O.3    11  THR11      -0.2208
     24  CG2      -13.0020   74.8150  -45.8600 C.3    11  THR11       0.0379
     25  N         -8.8890   75.1530  -44.3060 N.am   12  ILE12      -0.1963
     26  CA        -7.6320   75.7870  -43.9250 C.3    12  ILE12       0.1727
     27  C         -7.7950   77.3060  -43.9310 C.2    12  ILE12       0.2616
     28  O         -7.1260   78.0180  -43.1800 O.2    12  ILE12      -0.2715
     29  CB        -6.4690   75.3580  -44.8540 C.3    12  ILE12       0.0290
     30  CG1       -5.1500   75.9900  -44.4010 C.3    12  ILE12       0.0022
     31  CG2       -6.7730   75.7120  -46.3000 C.3    12  ILE12       0.0023
     32  CD1       -3.9670   75.6200  -45.2630 C.3    12  ILE12       0.0001
     33  N         -8.7050   77.7910  -44.7700 N.am   13  GLU13      -0.1977
     34  CA        -9.0260   79.2120  -44.8200 C.3    13  GLU13       0.1602
     35  C         -9.6230   79.6720  -43.4940 C.2    13  GLU13       0.2287
     36  O         -9.3650   80.7870  -43.0420 O.2    13  GLU13      -0.2864
     37  CB        -9.9900   79.5130  -45.9700 C.3    13  GLU13       0.0415
     38  CG        -9.3650   79.4300  -47.3600 C.3    13  GLU13       0.1163
     39  CD        -9.1360   78.0040  -47.8260 C.2    13  GLU13       0.3649
     40  OE1       -9.8610   77.0980  -47.3620 O.co2  13  GLU13      -0.2457
     41  OE2       -8.2300   77.7880  -48.6580 O.co2  13  GLU13      -0.2457
     42  N        -10.4620   64.6230  -32.1270 N.3   242  HIS242     -0.1226
     43  CA       -11.1210   65.0720  -33.3430 C.3   242  HIS242      0.1752
     44  C        -11.0540   66.5910  -33.4510 C.2   242  HIS242      0.2596
     45  O        -11.9960   67.2910  -33.0790 O.2   242  HIS242     -0.2718
     46  CB       -12.5750   64.5970  -33.3570 C.3   242  HIS242      0.0759
     47  CG       -13.2430   64.7280  -34.6890 C.ar  242  HIS242      0.0818
     48  ND1      -12.5640   65.0960  -35.8310 N.ar  242  HIS242     -0.2268
     49  CD2      -14.5300   64.5370  -35.0620 C.ar  242  HIS242      0.1154
     50  CE1      -13.4050   65.1270  -36.8490 C.ar  242  HIS242      0.1986
     51  NE2      -14.6040   64.7920  -36.4100 N.ar  242  HIS242     -0.2212
     52  N         -9.9330   67.0960  -33.9580 N.am  243  PHE243     -0.1962
     53  CA        -9.7350   68.5330  -34.1090 C.3   243  PHE243      0.1771
     54  C        -10.6690   69.1300  -35.1560 C.2   243  PHE243      0.2620
     55  O        -11.1730   68.4240  -36.0280 O.2   243  PHE243     -0.2715
     56  CB        -8.2840   68.8380  -34.4740 C.3   243  PHE243      0.0574
     57  CG        -7.3000   68.4560  -33.4100 C.ar  243  PHE243     -0.0200
     58  CD1       -6.7540   67.1840  -33.3760 C.ar  243  PHE243     -0.0042
     59  CD2       -6.9190   69.3700  -32.4430 C.ar  243  PHE243     -0.0042
     60  CE1       -5.8450   66.8310  -32.3990 C.ar  243  PHE243     -0.0003
     61  CE2       -6.0130   69.0230  -31.4620 C.ar  243  PHE243     -0.0003
     62  CZ        -5.4750   67.7520  -31.4400 C.ar  243  PHE243     -0.0000
     63  N        -10.8940   70.4370  -35.0610 N.am  244  ASP244     -0.1957
     64  CA       -11.7700   71.1410  -35.9900 C.3   244  ASP244      0.1840
     65  C        -11.1540   71.1900  -37.3850 C.2   244  ASP244      0.2622
     66  O        -11.8410   70.9940  -38.3870 O.2   244  ASP244     -0.2715
     67  CB       -12.0480   72.5590  -35.4870 C.3   244  ASP244      0.1450
     68  CG       -12.6090   72.5780  -34.0770 C.2   244  ASP244      0.3671
     69  OD1      -13.6130   71.8800  -33.8200 O.co2 244  ASP244     -0.2456
     70  OD2      -12.0390   73.2860  -33.2210 O.co2 244  ASP244     -0.2456
     71  N         -9.8540   71.4630  -37.4410 N.am  245  VAL245     -0.1963
     72  CA        -9.1160   71.4530  -38.6980 C.3   245  VAL245      0.1727
     73  C         -7.8380   70.6420  -38.5300 C.2   245  VAL245      0.2616
     74  O         -7.0310   70.9170  -37.6430 O.2   245  VAL245     -0.2715
     75  CB        -8.7530   72.8770  -39.1680 C.3   245  VAL245      0.0290
     76  CG1       -7.9020   72.8180  -40.4290 C.3   245  VAL245      0.0023
     77  CG2      -10.0080   73.6980  -39.4100 C.3   245  VAL245      0.0023
     78  N         -7.6610   69.6400  -39.3830 N.am  246  GLU246     -0.1963
     79  CA        -6.4940   68.7710  -39.3010 C.3   246  GLU246      0.1733
     80  C         -5.5810   68.9440  -40.5080 C.2   246  GLU246      0.2616
     81  O         -5.8730   68.4570  -41.5990 O.2   246  GLU246     -0.2715
     82  CB        -6.9250   67.3090  -39.1620 C.3   246  GLU246      0.0429
     83  CG        -7.7280   67.0280  -37.9020 C.3   246  GLU246      0.1163
     84  CD        -8.2310   65.6000  -37.8300 C.2   246  GLU246      0.3649
     85  OE1       -8.8260   65.2310  -36.7950 O.co2 246  GLU246     -0.2457
     86  OE2       -8.0360   64.8470  -38.8080 O.co2 246  GLU246     -0.2457
     87  N         -4.4760   69.6510  -40.3020 N.am  247  LEU247     -0.1977
     88  CA        -3.4780   69.8360  -41.3440 C.3   247  LEU247      0.1596
     89  C         -2.3680   68.8130  -41.1470 C.2   247  LEU247      0.2287
     90  O         -1.5990   68.8990  -40.1900 O.2   247  LEU247     -0.2864
     91  CB        -2.9100   71.2530  -41.2860 C.3   247  LEU247      0.0297
     92  CG        -3.9450   72.3810  -41.2850 C.3   247  LEU247      0.0022
     93  CD1       -3.2660   73.7370  -41.1870 C.3   247  LEU247      0.0001
     94  CD2       -4.8200   72.3060  -42.5250 C.3   247  LEU247      0.0001
     95  N          3.1230   77.3390  -45.4720 N.3   257  GLU257     -0.1245
     96  CA         1.9200   77.6850  -46.2240 C.3   257  GLU257      0.1567
     97  C          1.0350   78.6450  -45.4360 C.2   257  GLU257      0.2260
     98  O          0.4550   79.5730  -46.0010 O.2   257  GLU257     -0.2867
     99  CB         1.1320   76.4250  -46.5930 C.3   257  GLU257      0.0388
    100  CG        -0.1980   76.6980  -47.2850 C.3   257  GLU257      0.1160
    101  CD        -0.0310   77.2480  -48.6900 C.2   257  GLU257      0.3649
    102  OE1        1.0640   77.0890  -49.2690 O.co2 257  GLU257     -0.2457
    103  OE2       -0.9980   77.8390  -49.2180 O.co2 257  GLU257     -0.2457
    104  N         -0.1340   82.6550  -46.3890 N.3   261  ARG261     -0.1245
    105  CA        -1.5390   83.0440  -46.3710 C.3   261  ARG261      0.1563
    106  C         -1.7960   84.1820  -45.3870 C.2   261  ARG261      0.2260
    107  O         -2.7160   84.9790  -45.5720 O.2   261  ARG261     -0.2867
    108  CB        -2.4230   81.8410  -46.0410 C.3   261  ARG261      0.0307
    109  CG        -2.4430   80.7780  -47.1270 C.3   261  ARG261      0.0489
    110  CD        -3.1230   79.5110  -46.6410 C.3   261  ARG261      0.2205
    111  NE        -3.1710   78.4800  -47.6730 N.pl3 261  ARG261     -0.0865
    112  CZ        -4.2560   78.1790  -48.3780 C.cat 261  ARG261      0.5346
    113  NH1       -5.3920   78.8280  -48.1620 N.pl3 261  ARG261      0.1354
    114  NH2       -4.2070   77.2240  -49.2970 N.pl3 261  ARG261      0.1354
@<TRIPOS>BOND
     1   114   112    1
     2   102   101   ar
     3   103   101   ar
     4   101   100    1
     5    41    39   ar
     6   112   113    1
     7   112   111    2
     8    39    40   ar
     9    39    38    1
    10   111   110    1
    11    38    37    1
    12   100    99    1
    13   109   110    1
    14   109   108    1
    15    99    96    1
    16   104   105    1
    17   105   108    1
    18   105   106    1
    19    31    29    1
    20    96    95    1
    21    96    97    1
    22    98    97    2
    23    37    34    1
    24    24    22    1
    25   107   106    2
    26    32    30    1
    27    22    23    1
    28    22    19    1
    29    29    30    1
    30    29    26    1
    31    34    33    1
    32    34    35    1
    33    33    27   am
    34    25    26    1
    35    25    20   am
    36    19    20    1
    37    19    18    1
    38    27    26    1
    39    27    28    2
    40    20    21    2
    41    35    36    2
    42    18    12   am
    43    94    92    1
    44    12    13    2
    45    12    11    1
    46    14    11    1
    47    14    15    1
    48    81    80    2
    49    88    91    1
    50    88    89    1
    51    88    87    1
    52    11    10    1
    53    15    17   am
    54    15    16    2
    55    91    92    1
    56    92    93    1
    57    89    90    2
    58    80    87   am
    59    80    79    1
    60    76    75    1
    61    77    75    1
    62    78    79    1
    63    78    73   am
    64    79    82    1
    65    75    72    1
    66    82    83    1
    67    86    84   ar
    68    72    73    1
    69    72    71    1
    70    73    74    2
    71    66    65    2
    72     9     8    1
    73     8     7    1
    74    83    84    1
    75    84    85   ar
    76    71    65   am
    77    65    64    1
    78     7     6    1
    79    50    51   ar
    80    50    48   ar
    81    51    49   ar
    82    55    54    2
    83    64    67    1
    84    64    63    1
    85    48    47   ar
    86     6     5    1
    87    67    68    1
    88    54    63   am
    89    54    53    1
    90    49    47   ar
    91    47    46    1
    92     5     2    1
    93    56    53    1
    94    56    57    1
    95    53    52    1
    96    68    69   ar
    97    68    70   ar
    98    52    44   am
    99     4     3    2
   100     3     2    1
   101    44    43    1
   102    44    45    2
   103    57    58   ar
   104    57    59   ar
   105    58    60   ar
   106    46    43    1
   107    43    42    1
   108     2     1    1
   109    59    61   ar
   110    60    62   ar
   111    61    62   ar
