@<TRIPOS>MOLECULE
tmp/4igeB00.pdb
 159 152 0 0 0
SMALL
GASTEIGER

@<TRIPOS>ATOM
      1  N          4.8690  107.3700   36.9490 N.3    35  TRP35      -0.1241
      2  CA         4.2900  108.2400   35.9270 C.3    35  TRP35       0.1605
      3  C          2.8090  108.5590   36.2130 C.2    35  TRP35       0.2264
      4  O          2.0070  107.6500   36.4510 O.2    35  TRP35      -0.2867
      5  CB         4.4340  107.5560   34.5690 C.3    35  TRP35       0.0550
      6  CG         4.4770  108.4740   33.3940 C.ar   35  TRP35       0.0003
      7  CD1        4.8920  109.7840   33.3720 C.ar   35  TRP35       0.0946
      8  CD2        4.1050  108.1490   32.0460 C.ar   35  TRP35       0.0152
      9  NE1        4.7920  110.2930   32.0870 N.ar   35  TRP35      -0.2442
     10  CE2        4.3110  109.3110   31.2590 C.ar   35  TRP35       0.0810
     11  CE3        3.6050  106.9930   31.4270 C.ar   35  TRP35       0.0012
     12  CZ2        4.0410  109.3430   29.8860 C.ar   35  TRP35       0.0191
     13  CZ3        3.3430  107.0270   30.0470 C.ar   35  TRP35       0.0001
     14  CH2        3.5580  108.1960   29.3030 C.ar   35  TRP35       0.0015
     15  N         11.6020  104.6470   29.7620 N.3   121  ALA121     -0.1231
     16  CA        11.8420  104.8720   28.3580 C.3   121  ALA121      0.1694
     17  C         10.4930  105.2750   27.8330 C.2   121  ALA121      0.2592
     18  O          9.4740  104.8900   28.3950 O.2   121  ALA121     -0.2718
     19  CB        12.3010  103.5970   27.6780 C.3   121  ALA121      0.0304
     20  N         10.4910  106.0750   26.7770 N.am  122  ASN122     -0.1960
     21  CA         9.2740  106.3700   26.0540 C.3   122  ASN122      0.1819
     22  C          9.6090  106.8850   24.6820 C.2   122  ASN122      0.2621
     23  O         10.6750  107.4720   24.4700 O.2   122  ASN122     -0.2715
     24  CB         8.3730  107.3690   26.7810 C.3   122  ASN122      0.1195
     25  CG         6.9210  106.9050   26.7890 C.2   122  ASN122      0.2630
     26  OD1        6.4440  106.3280   25.8070 O.2   122  ASN122     -0.2716
     27  ND2        6.2370  107.0940   27.9040 N.am  122  ASN122     -0.0877
     28  N          8.6930  106.6550   23.7530 N.am  123  ALA123     -0.1977
     29  CA         8.8900  107.0320   22.3520 C.3   123  ALA123      0.1597
     30  C          7.5540  106.9450   21.5920 C.2   123  ALA123      0.2287
     31  O          7.0020  105.8690   21.4140 O.2   123  ALA123     -0.2864
     32  CB         9.9170  106.1160   21.7130 C.3   123  ALA123      0.0319
     33  N          7.5700  104.4680   18.3860 N.3   126  VAL126     -0.1245
     34  CA         8.3440  103.2330   18.5170 C.3   126  VAL126      0.1561
     35  C          7.9430  102.2020   17.4610 C.2   126  VAL126      0.2260
     36  O          8.7540  101.3740   17.0760 O.2   126  VAL126     -0.2867
     37  CB         8.2440  102.6090   19.9500 C.3   126  VAL126      0.0252
     38  CG1        6.8430  102.0560   20.2160 C.3   126  VAL126      0.0019
     39  CG2        9.2920  101.4990   20.1400 C.3   126  VAL126      0.0019
     40  N         19.6200   99.9450   29.4890 N.3   170  THR170     -0.1203
     41  CA        19.6830  100.1310   28.0450 C.3   170  THR170      0.1994
     42  C         19.4100   98.8150   27.3090 C.2   170  THR170      0.2617
     43  O         19.1030   97.7870   27.9310 O.2   170  THR170     -0.2717
     44  CB        21.0450  100.7630   27.6030 C.3   170  THR170      0.1784
     45  OG1       21.0150  101.0460   26.1950 O.3   170  THR170     -0.2211
     46  CG2       22.2210   99.8430   27.9510 C.3   170  THR170      0.0376
     47  N         19.5190   98.8580   25.9850 N.am  171  TYR171     -0.1975
     48  CA        19.3120   97.6800   25.1680 C.3   171  TYR171      0.1639
     49  C         20.3190   97.6150   23.9890 C.2   171  TYR171      0.2290
     50  O         20.6950   98.6310   23.4330 O.2   171  TYR171     -0.2864
     51  CB        17.8420   97.6360   24.7130 C.3   171  TYR171      0.0560
     52  CG        17.4930   96.4310   23.8920 C.ar  171  TYR171     -0.0198
     53  CD1       17.6160   95.1550   24.4130 C.ar  171  TYR171     -0.0009
     54  CD2       17.0340   96.5730   22.5870 C.ar  171  TYR171     -0.0009
     55  CE1       17.3060   94.0440   23.6470 C.ar  171  TYR171      0.0417
     56  CE2       16.7250   95.4860   21.8230 C.ar  171  TYR171      0.0417
     57  CZ        16.8510   94.2110   22.3490 C.ar  171  TYR171      0.1957
     58  OH        16.5250   93.1030   21.5600 O.3   171  TYR171     -0.2866
     59  N         12.9110   97.6700   16.8180 N.3   181  TYR181     -0.1241
     60  CA        13.1570   98.6110   17.8980 C.3   181  TYR181      0.1605
     61  C         13.1680  100.0330   17.3480 C.2   181  TYR181      0.2264
     62  O         14.2320  100.6390   17.1690 O.2   181  TYR181     -0.2867
     63  CB        14.4800   98.2690   18.5790 C.3   181  TYR181      0.0534
     64  CG        14.6050   98.8000   19.9950 C.ar  181  TYR181     -0.0201
     65  CD1       13.7850   98.3290   21.0160 C.ar  181  TYR181     -0.0009
     66  CD2       15.5450   99.7630   20.3140 C.ar  181  TYR181     -0.0009
     67  CE1       13.9010   98.8110   22.3120 C.ar  181  TYR181      0.0417
     68  CE2       15.6740  100.2420   21.6190 C.ar  181  TYR181      0.0417
     69  CZ        14.8540   99.7650   22.6010 C.ar  181  TYR181      0.1957
     70  OH        14.9940  100.2470   23.8750 O.3   181  TYR181     -0.2866
     71  N         14.2180  104.8300   19.4610 N.3   185  MET185     -0.1245
     72  CA        14.5840  104.1300   20.6900 C.3   185  MET185      0.1570
     73  C         16.0260  103.6220   20.5870 C.2   185  MET185      0.2261
     74  O         16.7780  103.7270   21.5460 O.2   185  MET185     -0.2867
     75  CB        13.6200  102.9750   21.0090 C.3   185  MET185      0.0387
     76  CG        12.3950  103.3790   21.8420 C.3   185  MET185      0.0595
     77  SD        12.7670  104.4470   23.2870 S.3   185  MET185     -0.1393
     78  CE        13.9220  103.4550   24.2080 C.3   185  MET185      0.0692
     79  N         18.9700  104.8780   23.1280 N.3   189  LYS189     -0.1245
     80  CA        19.8410  103.9880   23.8930 C.3   189  LYS189      0.1561
     81  C         21.3280  104.2140   23.5830 C.2   189  LYS189      0.2260
     82  O         22.1510  104.1520   24.4760 O.2   189  LYS189     -0.2867
     83  CB        19.4600  102.5360   23.6040 C.3   189  LYS189      0.0271
     84  CG        18.0620  102.1670   24.1590 C.3   189  LYS189      0.0035
     85  CD        17.9200  102.5200   25.6550 C.3   189  LYS189      0.0206
     86  CE        16.6500  101.9140   26.2520 C.3   189  LYS189      0.1093
     87  NZ        16.3980  102.3040   27.6840 N.3   189  LYS189     -0.1314
     88  N         18.5710   91.8020   28.6740 N.3   217  GLY217     -0.1210
     89  CA        17.9420   90.9860   27.6380 C.3   217  GLY217      0.1940
     90  C         16.4360   91.2190   27.6680 C.2   217  GLY217      0.2454
     91  O         15.9520   92.0340   28.4620 O.2   217  GLY217     -0.2732
     92  N         15.6790   90.5180   26.8110 N.am  218  PRO218     -0.2717
     93  CA        14.2490   90.8440   26.7060 C.3   218  PRO218      0.1535
     94  C         13.3730   90.3510   27.8650 C.2   218  PRO218      0.2598
     95  O         13.5540   89.2510   28.4080 O.2   218  PRO218     -0.2715
     96  CB        13.8280   90.1630   25.4030 C.3   218  PRO218      0.0310
     97  CG        14.7420   88.9990   25.2780 C.3   218  PRO218      0.0237
     98  CD        16.0720   89.4390   25.8960 C.3   218  PRO218      0.0939
     99  N         12.3950   91.1770   28.2150 N.am  219  LEU219     -0.1978
    100  CA        11.4800   90.8930   29.3150 C.3   219  LEU219      0.1596
    101  C         10.0930   91.3120   28.8630 C.2   219  LEU219      0.2287
    102  O          9.9290   92.4120   28.3210 O.2   219  LEU219     -0.2864
    103  CB        11.8620   91.7340   30.5350 C.3   219  LEU219      0.0297
    104  CG        11.0030   91.6410   31.8040 C.3   219  LEU219      0.0022
    105  CD1       11.2830   90.3330   32.5260 C.3   219  LEU219      0.0001
    106  CD2       11.2280   92.8250   32.7560 C.3   219  LEU219      0.0001
    107  N          7.4690   93.0470   29.5470 N.3   221  SER221     -0.1217
    108  CA         6.9080   94.0870   30.3870 C.3   221  SER221      0.1889
    109  C          5.7630   94.6780   29.6220 C.2   221  SER221      0.2288
    110  O          5.6440   94.4420   28.4230 O.2   221  SER221     -0.2866
    111  CB         7.9280   95.1850   30.6470 C.3   221  SER221      0.2089
    112  OG         8.3980   95.7440   29.4240 O.3   221  SER221     -0.2183
    113  N          5.3100   97.6900   28.7300 N.3   223  ALA223     -0.1231
    114  CA         5.8690   98.5260   27.6760 C.3   223  ALA223      0.1694
    115  C          6.4220   97.7570   26.4540 C.2   223  ALA223      0.2591
    116  O          6.2090   98.1700   25.3020 O.2   223  ALA223     -0.2718
    117  CB         6.9100   99.3990   28.2520 C.3   223  ALA223      0.0304
    118  N          7.1290   96.6530   26.7060 N.am  224  ALA224     -0.1980
    119  CA         7.6500   95.8080   25.6340 C.3   224  ALA224      0.1597
    120  C          6.5480   95.3420   24.6660 C.2   224  ALA224      0.2287
    121  O          6.7790   95.2040   23.4610 O.2   224  ALA224     -0.2864
    122  CB         8.3870   94.6050   26.2200 C.3   224  ALA224      0.0319
    123  N          3.7910   96.9840   23.9010 N.3   226  ALA226     -0.1231
    124  CA         3.3770   98.1000   23.0670 C.3   226  ALA226      0.1694
    125  C          4.2290   98.2710   21.8090 C.2   226  ALA226      0.2591
    126  O          3.8780   99.0590   20.9360 O.2   226  ALA226     -0.2718
    127  CB         3.3780   99.3940   23.8860 C.3   226  ALA226      0.0304
    128  N          5.3480   97.5560   21.7120 N.am  227  ILE227     -0.1980
    129  CA         6.2140   97.6930   20.5400 C.3   227  ILE227      0.1595
    130  C          5.5900   97.1320   19.2550 C.2   227  ILE227      0.2287
    131  O          5.6530   97.7740   18.2060 O.2   227  ILE227     -0.2864
    132  CB         7.6200   97.0940   20.7630 C.3   227  ILE227      0.0276
    133  CG1        8.3420   97.8420   21.8860 C.3   227  ILE227      0.0022
    134  CG2        8.4510   97.1680   19.4860 C.3   227  ILE227      0.0022
    135  CD1        9.8430   97.5840   21.9510 C.3   227  ILE227      0.0001
    136  N          6.8180   91.5810   18.7570 N.3   231  PHE231     -0.1227
    137  CA         8.2470   91.8200   18.7440 C.3   231  PHE231      0.1736
    138  C          8.9160   91.1980   19.9800 C.2   231  PHE231      0.2595
    139  O          9.9520   90.5470   19.8760 O.2   231  PHE231     -0.2718
    140  CB         8.5620   93.3180   18.6670 C.3   231  PHE231      0.0547
    141  CG         9.9720   93.6440   19.0940 C.ar  231  PHE231     -0.0202
    142  CD1       11.0400   93.4280   18.2300 C.ar  231  PHE231     -0.0042
    143  CD2       10.2390   94.1160   20.3820 C.ar  231  PHE231     -0.0042
    144  CE1       12.3510   93.7130   18.6280 C.ar  231  PHE231     -0.0003
    145  CE2       11.5540   94.3940   20.7930 C.ar  231  PHE231     -0.0003
    146  CZ        12.6100   94.1960   19.9180 C.ar  231  PHE231     -0.0000
    147  N          8.3100   91.3890   21.1480 N.am  232  ILE232     -0.1980
    148  CA         8.9520   90.9630   22.3810 C.3   232  ILE232      0.1595
    149  C          8.8750   89.4480   22.5050 C.2   232  ILE232      0.2287
    150  O          9.7840   88.8440   23.0300 O.2   232  ILE232     -0.2864
    151  CB         8.4090   91.6960   23.6450 C.3   232  ILE232      0.0276
    152  CG1        9.3290   91.4510   24.8510 C.3   232  ILE232      0.0022
    153  CG2        6.9710   91.2840   23.9770 C.3   232  ILE232      0.0022
    154  CD1       10.7230   91.9650   24.6430 C.3   232  ILE232      0.0001
    155  N         11.6740   88.1990   20.3690 N.3   235  ALA235     -0.1245
    156  CA        12.9500   88.4620   21.0480 C.3   235  ALA235      0.1562
    157  C         13.2000   87.4580   22.1870 C.2   235  ALA235      0.2260
    158  O         14.2990   86.9110   22.3050 O.2   235  ALA235     -0.2867
    159  CB        13.0160   89.9220   21.5620 C.3   235  ALA235      0.0290
@<TRIPOS>BOND
     1    59    60    1
     2    36    35    2
     3    62    61    2
     4    61    60    1
     5    35    34    1
     6    60    63    1
     7   131   130    2
     8   142   144   ar
     9   142   141   ar
    10    33    34    1
    11    34    37    1
    12    63    64    1
    13   144   146   ar
    14   140   137    1
    15   140   141    1
    16   137   136    1
    17   137   138    1
    18   141   143   ar
    19   130   129    1
    20    71    72    1
    21   134   132    1
    22   139   138    2
    23   146   145   ar
    24    37    39    1
    25    37    38    1
    26   138   147   am
    27    64    66   ar
    28    64    65   ar
    29    66    68   ar
    30   155   156    1
    31   143   145   ar
    32   129   132    1
    33   129   128    1
    34    73    72    1
    35    73    74    2
    36    72    75    1
    37   132   133    1
    38   126   125    2
    39    75    76    1
    40    65    67   ar
    41   156   159    1
    42   156   157    1
    43   147   148    1
    44    31    30    2
    45    58    57    1
    46    30    29    1
    47    68    69   ar
    48   128   125   am
    49    32    29    1
    50   125   124    1
    51    56    57   ar
    52    56    54   ar
    53    76    77    1
    54   133   135    1
    55   157   158    2
    56    67    69   ar
    57    57    55   ar
    58    29    28    1
    59   148   149    1
    60   148   151    1
    61   149   150    2
    62    54    52   ar
    63    69    70    1
    64   124   127    1
    65   124   123    1
    66    79    80    1
    67    77    78    1
    68    50    49    2
    69   121   120    2
    70    81    80    1
    71    81    82    2
    72    83    80    1
    73    83    84    1
    74   151   153    1
    75   151   152    1
    76    55    53   ar
    77    28    22   am
    78    52    53   ar
    79    52    51    1
    80    49    48    1
    81    84    85    1
    82    23    22    2
    83   154   152    1
    84   120   119    1
    85    22    21    1
    86    51    48    1
    87    48    47    1
    88    97    96    1
    89    97    98    1
    90   116   115    2
    91    96    93    1
    92   119   122    1
    93   119   118    1
    94    85    86    1
    95    26    25    2
    96    98    92    1
    97    47    42   am
    98    21    20    1
    99    21    24    1
   100    45    44    1
   101    86    87    1
   102   115   118   am
   103   115   114    1
   104    93    92    1
   105    93    94    1
   106    20    17   am
   107    24    25    1
   108    25    27   am
   109    92    90   am
   110    42    43    2
   111    42    41    1
   112    44    46    1
   113    44    41    1
   114    89    90    1
   115    89    88    1
   116    90    91    2
   117   114   117    1
   118   114   113    1
   119    19    16    1
   120    17    16    1
   121    17    18    2
   122    94    99   am
   123    94    95    2
   124    41    40    1
   125    99   100    1
   126   102   101    2
   127    16    15    1
   128   110   109    2
   129   101   100    1
   130    14    12   ar
   131    14    13   ar
   132   100   103    1
   133   112   111    1
   134   107   108    1
   135   109   108    1
   136    12    10   ar
   137    13    11   ar
   138   108   111    1
   139   103   104    1
   140    10     8   ar
   141    10     9   ar
   142    11     8   ar
   143   104   105    1
   144   104   106    1
   145     8     6   ar
   146     9     7   ar
   147     7     6   ar
   148     6     5    1
   149     5     2    1
   150     2     3    1
   151     2     1    1
   152     3     4    2
