@<TRIPOS>MOLECULE
tmp/4igfA00.pdb
 140 134 0 0 0
SMALL
GASTEIGER

@<TRIPOS>ATOM
      1  N         46.2390   90.6400   42.4560 N.3    15  TYR15      -0.1241
      2  CA        44.8050   90.4530   42.3120 C.3    15  TYR15       0.1605
      3  C         44.2590   89.1800   42.9580 C.2    15  TYR15       0.2264
      4  O         43.1860   89.2100   43.5590 O.2    15  TYR15      -0.2867
      5  CB        44.4430   90.4830   40.8300 C.3    15  TYR15       0.0534
      6  CG        44.6150   91.8560   40.2440 C.ar   15  TYR15      -0.0201
      7  CD1       43.9750   92.9490   40.8030 C.ar   15  TYR15      -0.0009
      8  CD2       45.4170   92.0650   39.1460 C.ar   15  TYR15      -0.0009
      9  CE1       44.1340   94.2000   40.2870 C.ar   15  TYR15       0.0417
     10  CE2       45.5730   93.3150   38.6300 C.ar   15  TYR15       0.0417
     11  CZ        44.9390   94.3730   39.1960 C.ar   15  TYR15       0.1957
     12  OH        45.1140   95.6170   38.6480 O.3    15  TYR15      -0.2866
     13  N         46.6950   84.5440   36.0160 N.3   119  LEU119     -0.1231
     14  CA        48.0950   84.4060   35.6930 C.3   119  LEU119      0.1693
     15  C         48.4110   85.0160   34.3510 C.2   119  LEU119      0.2592
     16  O         47.5870   85.0560   33.4420 O.2   119  LEU119     -0.2718
     17  CB        48.5300   82.9550   35.7940 C.3   119  LEU119      0.0284
     18  CG        47.5770   82.0280   35.0650 C.3   119  LEU119      0.0019
     19  CD1       48.2420   81.7170   33.7890 C.3   119  LEU119      0.0001
     20  CD2       47.3160   80.7670   35.8740 C.3   119  LEU119      0.0001
     21  N         49.6140   85.5450   34.2730 N.am  120  ALA120     -0.1966
     22  CA        50.0750   86.2430   33.1030 C.3   120  ALA120      0.1728
     23  C         51.5750   86.0700   33.1360 C.2   120  ALA120      0.2616
     24  O         52.1950   86.1550   34.1950 O.2   120  ALA120     -0.2715
     25  CB        49.7020   87.7010   33.1780 C.3   120  ALA120      0.0334
     26  N         52.1480   85.7860   31.9800 N.am  121  ASN121     -0.1958
     27  CA        53.5770   85.5780   31.8800 C.3   121  ASN121      0.1819
     28  C         54.0150   85.7820   30.4460 C.2   121  ASN121      0.2621
     29  O         53.4810   85.1670   29.5360 O.2   121  ASN121     -0.2715
     30  CB        53.9560   84.1770   32.3480 C.3   121  ASN121      0.1195
     31  CG        55.4570   83.9900   32.4660 C.2   121  ASN121      0.2630
     32  OD1       56.1310   83.5640   31.5150 O.2   121  ASN121     -0.2716
     33  ND2       55.9930   84.3130   33.6390 N.am  121  ASN121     -0.0877
     34  N         54.9720   86.6760   30.2580 N.am  122  ALA122     -0.1963
     35  CA        55.5630   86.9090   28.9540 C.3   122  ALA122      0.1728
     36  C         57.0450   87.1400   29.1950 C.2   122  ALA122      0.2616
     37  O         57.4110   88.1170   29.8550 O.2   122  ALA122     -0.2715
     38  CB        54.9460   88.1280   28.3180 C.3   122  ALA122      0.0334
     39  N         57.9010   86.2500   28.6920 N.am  123  LYS123     -0.1977
     40  CA        59.3330   86.4300   28.9410 C.3   123  LYS123      0.1596
     41  C         59.9060   87.6830   28.2680 C.2   123  LYS123      0.2287
     42  O         60.8970   88.2280   28.7340 O.2   123  LYS123     -0.2864
     43  CB        60.1600   85.1660   28.6560 C.3   123  LYS123      0.0298
     44  CG        59.7260   84.3850   27.4280 C.3   123  LYS123      0.0038
     45  CD        60.3830   83.0030   27.3720 C.3   123  LYS123      0.0206
     46  CE        60.0510   82.2780   26.0660 C.3   123  LYS123      0.1093
     47  NZ        60.3620   80.8110   26.1150 N.3   123  LYS123     -0.1314
     48  N         58.2840   90.7500   27.8050 N.3   125  VAL125     -0.1245
     49  CA        57.3740   91.8810   28.0680 C.3   125  VAL125      0.1561
     50  C         58.0570   93.2320   27.8860 C.2   125  VAL125      0.2260
     51  O         57.4220   94.2390   27.5590 O.2   125  VAL125     -0.2867
     52  CB        56.7410   91.7780   29.4950 C.3   125  VAL125      0.0252
     53  CG1       57.8030   91.8730   30.5650 C.3   125  VAL125      0.0019
     54  CG2       55.6680   92.8320   29.7030 C.3   125  VAL125      0.0019
     55  N         43.4960   93.1190   30.6610 N.3   170  TYR170     -0.1241
     56  CA        43.9630   94.4720   30.7270 C.3   170  TYR170      0.1605
     57  C         43.6790   95.1700   29.3980 C.2   170  TYR170      0.2264
     58  O         43.7510   94.5520   28.3350 O.2   170  TYR170     -0.2867
     59  CB        45.4530   94.5110   31.1170 C.3   170  TYR170      0.0534
     60  CG        46.0100   95.9230   31.1840 C.ar  170  TYR170     -0.0201
     61  CD1       45.4960   96.8410   32.0880 C.ar  170  TYR170     -0.0009
     62  CD2       47.0530   96.3350   30.3490 C.ar  170  TYR170     -0.0009
     63  CE1       45.9800   98.1440   32.1560 C.ar  170  TYR170      0.0417
     64  CE2       47.5500   97.6390   30.4090 C.ar  170  TYR170      0.0417
     65  CZ        47.0080   98.5480   31.3200 C.ar  170  TYR170      0.1957
     66  OH        47.4730   99.8590   31.3940 O.3   170  TYR170     -0.2866
     67  N         53.5070   97.6500   27.2700 N.3   180  TYR180     -0.1241
     68  CA        52.9320   96.3350   27.5360 C.3   180  TYR180      0.1605
     69  C         53.3380   95.4250   26.3840 C.2   180  TYR180      0.2264
     70  O         52.5220   95.1170   25.5270 O.2   180  TYR180     -0.2867
     71  CB        51.4150   96.4530   27.6180 C.3   180  TYR180      0.0534
     72  CG        50.7200   95.3720   28.4070 C.ar  180  TYR180     -0.0201
     73  CD1       50.8740   95.2720   29.7890 C.ar  180  TYR180     -0.0009
     74  CD2       49.8880   94.4610   27.7720 C.ar  180  TYR180     -0.0009
     75  CE1       50.2230   94.2830   30.5030 C.ar  180  TYR180      0.0417
     76  CE2       49.2190   93.4860   28.4660 C.ar  180  TYR180      0.0417
     77  CZ        49.3760   93.3890   29.8300 C.ar  180  TYR180      0.1957
     78  OH        48.6980   92.3820   30.5020 O.3   180  TYR180     -0.2866
     79  N         52.0860   90.3000   25.4720 N.3   184  MET184     -0.1245
     80  CA        51.0510   90.3830   26.5340 C.3   184  MET184      0.1570
     81  C         49.7310   91.0060   26.0590 C.2   184  MET184      0.2261
     82  O         48.6450   90.5480   26.4420 O.2   184  MET184     -0.2867
     83  CB        51.5310   91.1240   27.7780 C.3   184  MET184      0.0387
     84  CG        52.1890   90.2510   28.7940 C.3   184  MET184      0.0595
     85  SD        51.3000   88.7540   29.2320 S.3   184  MET184     -0.1393
     86  CE        49.7530   89.3860   29.8320 C.3   184  MET184      0.0692
     87  N         46.1670   89.1080   25.9760 N.3   188  LYS188     -0.1245
     88  CA        44.9400   89.6160   26.5750 C.3   188  LYS188      0.1561
     89  C         43.7900   89.6700   25.5550 C.2   188  LYS188      0.2260
     90  O         42.6430   89.3600   25.8870 O.2   188  LYS188     -0.2867
     91  CB        45.1710   90.9930   27.1980 C.3   188  LYS188      0.0271
     92  CG        46.0070   90.9540   28.4190 C.3   188  LYS188      0.0035
     93  CD        45.5910   89.8220   29.3540 C.3   188  LYS188      0.0206
     94  CE        46.2700   90.0080   30.7230 C.3   188  LYS188      0.1093
     95  NZ        45.9640   88.9360   31.7210 N.3   188  LYS188     -0.1314
     96  N         45.7760   99.3910   36.9620 N.3   217  PRO217     -0.2102
     97  CA        47.0780   98.9560   37.4670 C.3   217  PRO217      0.1504
     98  C         47.1380   98.9210   38.9990 C.2   217  PRO217      0.2575
     99  O         46.4720   99.6890   39.6910 O.2   217  PRO217     -0.2718
    100  CB        48.0250  100.0080   36.9010 C.3   217  PRO217      0.0282
    101  CG        47.1790  101.2630   36.8770 C.3   217  PRO217      0.0208
    102  CD        45.7590  100.8180   36.6010 C.3   217  PRO217      0.0893
    103  N         47.9380   97.9980   39.5060 N.am  218  LEU218     -0.1980
    104  CA        48.1260   97.7780   40.9330 C.3   218  LEU218      0.1596
    105  C         49.6020   97.4230   40.7740 C.2   218  LEU218      0.2287
    106  O         49.9710   96.7280   39.8160 O.2   218  LEU218     -0.2864
    107  CB        47.5090   96.4460   41.3570 C.3   218  LEU218      0.0297
    108  CG        46.6490   96.3180   42.6010 C.3   218  LEU218      0.0022
    109  CD1       45.2510   96.8320   42.2910 C.3   218  LEU218      0.0001
    110  CD2       46.6140   94.8600   43.0350 C.3   218  LEU218      0.0001
    111  N         52.0670   95.1050   41.8890 N.3   220  SER220     -0.1217
    112  CA        52.0680   93.8060   42.5470 C.3   220  SER220      0.1889
    113  C         53.4110   93.1030   42.3800 C.2   220  SER220      0.2288
    114  O         54.1990   93.4560   41.5010 O.2   220  SER220     -0.2866
    115  CB        50.9600   92.9320   41.9640 C.3   220  SER220      0.2089
    116  OG        51.0230   92.9110   40.5480 O.3   220  SER220     -0.2183
    117  N         56.9790  101.6450   34.4610 N.3   221  PHE221     -0.1227
    118  CA        55.8070  101.4150   33.6100 C.3   221  PHE221      0.1736
    119  C         54.5370  101.3970   34.4390 C.2   221  PHE221      0.2595
    120  O         53.5980  102.1570   34.1910 O.2   221  PHE221     -0.2718
    121  CB        55.8920  100.0820   32.8440 C.3   221  PHE221      0.0547
    122  CG        54.5360   99.5140   32.4600 C.ar  221  PHE221     -0.0202
    123  CD1       53.8260  100.0300   31.3880 C.ar  221  PHE221     -0.0042
    124  CD2       53.9650   98.4730   33.1810 C.ar  221  PHE221     -0.0042
    125  CE1       52.5760   99.5210   31.0420 C.ar  221  PHE221     -0.0003
    126  CE2       52.7110   97.9640   32.8380 C.ar  221  PHE221     -0.0003
    127  CZ        52.0210   98.4910   31.7680 C.ar  221  PHE221     -0.0000
    128  N         54.5130  100.4890   35.4060 N.am  222  ILE222     -0.1980
    129  CA        53.3750  100.3230   36.2840 C.3   222  ILE222      0.1595
    130  C         53.2740  101.5820   37.1310 C.2   222  ILE222      0.2287
    131  O         52.1930  101.9720   37.5620 O.2   222  ILE222     -0.2864
    132  CB        53.5350   99.0550   37.1670 C.3   222  ILE222      0.0276
    133  CG1       52.2430   98.7430   37.9320 C.3   222  ILE222      0.0022
    134  CG2       54.7520   99.1810   38.0920 C.3   222  ILE222      0.0022
    135  CD1       51.1110   98.1980   37.0510 C.3   222  ILE222      0.0001
    136  N         51.5480  104.0190   34.7410 N.3   225  ALA225     -0.1245
    137  CA        50.1390  103.6770   34.5840 C.3   225  ALA225      0.1562
    138  C         49.3470  104.0750   35.8360 C.2   225  ALA225      0.2260
    139  O         48.2520  104.6350   35.7400 O.2   225  ALA225     -0.2867
    140  CB        49.9810  102.1920   34.2870 C.3   225  ALA225      0.0290
@<TRIPOS>BOND
     1    79    80    1
     2    70    69    2
     3    89    90    2
     4    89    88    1
     5    87    88    1
     6    81    82    2
     7    81    80    1
     8    46    47    1
     9    46    45    1
    10    69    68    1
    11    80    83    1
    12    88    91    1
    13    91    92    1
    14    67    68    1
    15    45    44    1
    16    44    43    1
    17    68    71    1
    18    51    50    2
    19    71    72    1
    20    74    72   ar
    21    74    76   ar
    22    83    84    1
    23    48    49    1
    24    50    49    1
    25    49    52    1
    26    41    42    2
    27    41    40    1
    28    38    35    1
    29    58    57    2
    30    72    73   ar
    31    92    93    1
    32    76    77   ar
    33    43    40    1
    34    39    40    1
    35    39    36   am
    36    84    85    1
    37    35    36    1
    38    35    34    1
    39    36    37    2
    40    85    86    1
    41    93    94    1
    42    57    56    1
    43    52    54    1
    44    52    53    1
    45    29    28    2
    46    73    75   ar
    47    77    78    1
    48    77    75   ar
    49    34    28   am
    50    62    64   ar
    51    62    60   ar
    52    64    65   ar
    53    28    27    1
    54    55    56    1
    55    94    95    1
    56    56    59    1
    57   125   123   ar
    58   125   127   ar
    59    59    60    1
    60    60    61   ar
    61    65    66    1
    62    65    63   ar
    63   123   122   ar
    64    32    31    2
    65   127   126   ar
    66    27    26    1
    67    27    30    1
    68    26    23   am
    69    61    63   ar
    70    30    31    1
    71   122   121    1
    72   122   124   ar
    73    31    33   am
    74   126   124   ar
    75   121   118    1
    76    22    23    1
    77    22    25    1
    78    22    21    1
    79    23    24    2
    80    16    15    2
    81   118   119    1
    82   118   117    1
    83    19    18    1
    84   120   119    2
    85    21    15   am
    86   140   137    1
    87    15    14    1
    88   119   128   am
    89   137   136    1
    90   137   138    1
    91    18    17    1
    92    18    20    1
    93   128   129    1
    94    14    17    1
    95    14    13    1
    96   139   138    2
    97   129   130    1
    98   129   132    1
    99   102   101    1
   100   102    96    1
   101   101   100    1
   102   100    97    1
   103    96    97    1
   104   135   133    1
   105   130   131    2
   106   132   133    1
   107   132   134    1
   108    97    98    1
   109    10     8   ar
   110    10    11   ar
   111    12    11    1
   112    98   103   am
   113    98    99    2
   114     8     6   ar
   115    11     9   ar
   116   103   104    1
   117   106   105    2
   118     6     7   ar
   119     6     5    1
   120     9     7   ar
   121   116   115    1
   122   105   104    1
   123     5     2    1
   124   104   107    1
   125   107   108    1
   126   114   113    2
   127   111   112    1
   128   115   112    1
   129   109   108    1
   130     2     1    1
   131     2     3    1
   132   113   112    1
   133   108   110    1
   134     3     4    2
