@<TRIPOS>MOLECULE
tmp/4ighA02.pdb
 220 209 0 0 0
SMALL
GASTEIGER

@<TRIPOS>ATOM
      1  N         -5.7470   24.0510   -7.4390 N.3     5  TYR5       -0.1241
      2  CA        -5.5530   25.4640   -7.0810 C.3     5  TYR5        0.1605
      3  C         -4.2940   26.0970   -7.6720 C.2     5  TYR5        0.2264
      4  O         -4.3030   27.1490   -8.1960 O.2     5  TYR5       -0.2867
      5  CB        -5.5270   25.6410   -5.5560 C.3     5  TYR5        0.0534
      6  CG        -6.8310   25.9560   -4.9190 C.ar    5  TYR5       -0.0201
      7  CD1       -7.6560   24.9670   -4.4840 C.ar    5  TYR5       -0.0009
      8  CD2       -7.2250   27.2430   -4.7410 C.ar    5  TYR5       -0.0009
      9  CE1       -8.8600   25.2500   -3.8960 C.ar    5  TYR5        0.0417
     10  CE2       -8.4210   27.5450   -4.1620 C.ar    5  TYR5        0.0417
     11  CZ        -9.2240   26.5500   -3.7440 C.ar    5  TYR5        0.1957
     12  OH       -10.3880   26.8980   -3.1740 O.3     5  TYR5       -0.2866
     13  N         -6.8250   27.2300  -10.8720 N.3     9  LEU9       -0.1231
     14  CA        -7.6470   28.2840  -10.3020 C.3     9  LEU9        0.1693
     15  C         -6.9320   29.5690   -9.9090 C.2     9  LEU9        0.2591
     16  O         -7.3440   30.6300  -10.2330 O.2     9  LEU9       -0.2718
     17  CB        -8.4080   27.7020   -9.1220 C.3     9  LEU9        0.0284
     18  CG        -9.3610   28.5720   -8.3540 C.3     9  LEU9        0.0019
     19  CD1      -10.3850   29.2060   -9.2880 C.3     9  LEU9        0.0001
     20  CD2      -10.0160   27.7390   -7.2630 C.3     9  LEU9        0.0001
     21  N         -5.8130   29.4420   -9.2240 N.am   10  MET10      -0.1979
     22  CA        -5.0560   30.6030   -8.8130 C.3    10  MET10       0.1605
     23  C         -4.4250   31.3520   -9.9760 C.2    10  MET10       0.2287
     24  O         -4.5320   32.5110  -10.0020 O.2    10  MET10      -0.2864
     25  CB        -4.0410   30.3090   -7.6780 C.3    10  MET10       0.0413
     26  CG        -4.6450   29.7640   -6.3830 C.3    10  MET10       0.0598
     27  SD        -5.9070   30.7100   -5.4920 S.3    10  MET10      -0.1393
     28  CE        -4.9680   32.0800   -4.9040 C.3    10  MET10       0.0692
     29  N         -7.3420   33.1400  -11.6800 N.3    13  LEU13      -0.1231
     30  CA        -7.7860   34.2620  -10.8420 C.3    13  LEU13       0.1693
     31  C         -6.7930   35.4170  -10.8910 C.2    13  LEU13       0.2591
     32  O         -7.1940   36.5270  -10.8830 O.2    13  LEU13      -0.2718
     33  CB        -8.1070   33.8810   -9.3980 C.3    13  LEU13       0.0284
     34  CG        -9.2960   32.9210   -9.0860 C.3    13  LEU13       0.0019
     35  CD1       -9.4530   32.4840   -7.6250 C.3    13  LEU13       0.0001
     36  CD2      -10.5790   33.6080   -9.5740 C.3    13  LEU13       0.0001
     37  N         -5.4890   35.1360  -10.9790 N.am   14  GLN14      -0.1979
     38  CA        -4.4860   36.1850  -11.0810 C.3    14  GLN14       0.1601
     39  C         -4.7950   36.9800  -12.3100 C.2    14  GLN14       0.2287
     40  O         -4.5940   38.1430  -12.3470 O.2    14  GLN14      -0.2864
     41  CB        -3.0170   35.7320  -11.2810 C.3    14  GLN14       0.0394
     42  CG        -2.3000   34.7000  -10.3980 C.3    14  GLN14       0.0908
     43  CD        -2.3820   34.9440   -8.9120 C.2    14  GLN14       0.2608
     44  OE1       -3.4580   35.1450   -8.4280 O.2    14  GLN14      -0.2717
     45  NE2       -1.2600   34.8260   -8.1760 N.am   14  GLN14      -0.0878
     46  N         -8.1550   39.5330  -11.7740 N.3    17  LEU17      -0.1245
     47  CA        -8.2190   40.4810  -10.6910 C.3    17  LEU17       0.1561
     48  C         -6.8560   41.0330  -10.3520 C.2    17  LEU17       0.2260
     49  O         -5.9160   40.3210  -10.3670 O.2    17  LEU17      -0.2867
     50  CB        -8.7420   39.7740   -9.4490 C.3    17  LEU17       0.0270
     51  CG       -10.1820   39.3190   -9.4330 C.3    17  LEU17       0.0019
     52  CD1      -10.5160   38.5920   -8.1770 C.3    17  LEU17       0.0001
     53  CD2      -11.0640   40.5090   -9.5560 C.3    17  LEU17       0.0001
     54  N         -4.2190   42.2510   -7.4690 N.3    19  PRO19      -0.2116
     55  CA        -3.9760   41.5110   -6.2290 C.3    19  PRO19       0.1372
     56  C         -4.7390   42.0490   -5.0150 C.2    19  PRO19       0.2244
     57  O         -5.1550   41.2580   -4.2570 O.2    19  PRO19      -0.2868
     58  CB        -2.4410   41.5640   -6.0560 C.3    19  PRO19       0.0268
     59  CG        -2.0220   42.6820   -6.9370 C.3    19  PRO19       0.0207
     60  CD        -2.9470   42.6160   -8.1080 C.3    19  PRO19       0.0892
     61  N         -8.2240   40.7500   -5.2350 N.3    22  ALA22      -0.1231
     62  CA        -8.1490   39.3560   -4.8970 C.3    22  ALA22       0.1694
     63  C         -8.0380   39.1220   -3.3520 C.2    22  ALA22       0.2592
     64  O         -8.6670   38.2490   -2.8310 O.2    22  ALA22      -0.2718
     65  CB        -7.0020   38.6790   -5.6280 C.3    22  ALA22       0.0304
     66  N         -7.2320   39.9530   -2.7060 N.am   23  HIS23      -0.1976
     67  CA        -7.0490   39.8800   -1.2510 C.3    23  HIS23       0.1656
     68  C         -8.3830   40.1280   -0.5190 C.2    23  HIS23       0.2291
     69  O         -8.7840   39.3700    0.3150 O.2    23  HIS23      -0.2864
     70  CB        -5.9660   40.9100   -0.9110 C.3    23  HIS23       0.0771
     71  CG        -5.6040   41.0980    0.5450 C.ar   23  HIS23       0.0820
     72  ND1       -5.9590   40.3150    1.5630 N.ar   23  HIS23      -0.2267
     73  CD2       -4.8220   42.0460    1.0570 C.ar   23  HIS23       0.1154
     74  CE1       -5.4250   40.8110    2.6790 C.ar   23  HIS23       0.1986
     75  NE2       -4.7460   41.8690    2.3530 N.ar   23  HIS23      -0.2212
     76  N        -11.4020   39.8340   -1.7320 N.3    25  LEU25      -0.1231
     77  CA       -12.2730   38.7020   -1.9690 C.3    25  LEU25       0.1693
     78  C        -11.9460   37.4900   -1.1140 C.2    25  LEU25       0.2591
     79  O        -12.7600   36.8630   -0.5990 O.2    25  LEU25      -0.2718
     80  CB       -12.2510   38.3340   -3.4490 C.3    25  LEU25       0.0284
     81  CG       -13.3470   37.4400   -3.9610 C.3    25  LEU25       0.0019
     82  CD1      -14.6820   38.1040   -3.7210 C.3    25  LEU25       0.0001
     83  CD2      -13.1180   37.2340   -5.4280 C.3    25  LEU25       0.0001
     84  N        -10.6610   37.2310   -0.9650 N.am   26  ALA26      -0.1980
     85  CA       -10.1860   36.1500   -0.1520 C.3    26  ALA26       0.1597
     86  C        -10.5720   36.3230    1.3080 C.2    26  ALA26       0.2287
     87  O        -10.9540   35.4160    1.8990 O.2    26  ALA26      -0.2864
     88  CB        -8.6820   35.9800   -0.2790 C.3    26  ALA26       0.0319
     89  N        -14.3610   35.5330    1.4020 N.3    29  PHE29      -0.1227
     90  CA       -14.5400   33.9570    1.2020 C.3    29  PHE29       0.1736
     91  C        -14.1580   33.2670    2.5060 C.2    29  PHE29       0.2596
     92  O        -14.7930   32.3510    2.9180 O.2    29  PHE29      -0.2718
     93  CB       -13.8200   33.3650    0.0020 C.3    29  PHE29       0.0547
     94  CG       -14.4300   33.6990   -1.3210 C.ar   29  PHE29      -0.0202
     95  CD1      -15.5020   34.5180   -1.4410 C.ar   29  PHE29      -0.0042
     96  CD2      -13.8800   33.1840   -2.4490 C.ar   29  PHE29      -0.0042
     97  CE1      -16.0530   34.7860   -2.6790 C.ar   29  PHE29      -0.0003
     98  CE2      -14.4050   33.4590   -3.6870 C.ar   29  PHE29      -0.0003
     99  CZ       -15.4870   34.2680   -3.7950 C.ar   29  PHE29      -0.0000
    100  N        -13.0520   33.6930    3.1180 N.am   30  THR30      -0.1953
    101  CA       -12.5330   33.0180    4.2870 C.3    30  THR30       0.1897
    102  C        -13.4760   33.2550    5.4170 C.2    30  THR30       0.2313
    103  O        -13.8290   32.3750    6.1510 O.2    30  THR30      -0.2863
    104  CB       -11.1680   33.5750    4.6640 C.3    30  THR30       0.1794
    105  OG1      -10.2640   33.3440    3.5960 O.3    30  THR30      -0.2208
    106  CG2      -10.6640   32.9170    5.8830 C.3    30  THR30       0.0378
    107  N        -16.0410   29.4490    3.2670 N.3    34  LEU34      -0.1231
    108  CA       -16.1280   28.7300    2.0110 C.3    34  LEU34       0.1693
    109  C        -14.8850   27.9580    1.7310 C.2    34  LEU34       0.2591
    110  O        -14.1520   28.2480    0.8490 O.2    34  LEU34      -0.2718
    111  CB       -16.3820   29.6850    0.8820 C.3    34  LEU34       0.0284
    112  CG       -17.6030   30.5460    1.0960 C.3    34  LEU34       0.0019
    113  CD1      -17.7730   31.4790   -0.0900 C.3    34  LEU34       0.0001
    114  CD2      -18.8460   29.6810    1.2650 C.3    34  LEU34       0.0001
    115  N        -14.7550   26.9040    2.4780 N.am   35  LEU35      -0.1980
    116  CA       -13.6260   26.0520    2.5690 C.3    35  LEU35       0.1596
    117  C        -14.0670   24.6870    3.0330 C.2    35  LEU35       0.2287
    118  O        -14.9840   24.5290    3.7960 O.2    35  LEU35      -0.2864
    119  CB       -12.6970   26.5370    3.6870 C.3    35  LEU35       0.0297
    120  CG       -12.0820   27.9040    3.6090 C.3    35  LEU35       0.0022
    121  CD1      -11.7420   28.4480    4.9910 C.3    35  LEU35       0.0001
    122  CD2      -10.8370   27.7260    2.7410 C.3    35  LEU35       0.0001
    123  N         -2.7890   39.6360    6.2870 N.3    62  PHE62      -0.1241
    124  CA        -3.8510   38.9960    5.5000 C.3    62  PHE62       0.1605
    125  C         -5.2090   39.4410    6.0560 C.2    62  PHE62       0.2264
    126  O         -5.9680   40.0180    5.3950 O.2    62  PHE62      -0.2867
    127  CB        -3.7360   37.4740    5.4480 C.3    62  PHE62       0.0534
    128  CG        -4.8600   36.8580    4.7010 C.ar   62  PHE62      -0.0203
    129  CD1       -4.9170   36.9580    3.3350 C.ar   62  PHE62      -0.0042
    130  CD2       -5.9060   36.3220    5.3580 C.ar   62  PHE62      -0.0042
    131  CE1       -5.9620   36.4420    2.6440 C.ar   62  PHE62      -0.0003
    132  CE2       -6.9790   35.8200    4.6460 C.ar   62  PHE62      -0.0003
    133  CZ        -6.9820   35.8920    3.2940 C.ar   62  PHE62      -0.0000
    134  N         -9.2200   26.7930    7.7850 N.3    75  MET75      -0.1245
    135  CA        -8.2240   26.5780    6.7530 C.3    75  MET75       0.1570
    136  C         -7.0650   25.7080    7.2190 C.2    75  MET75       0.2261
    137  O         -6.3440   25.2450    6.4080 O.2    75  MET75      -0.2867
    138  CB        -7.7260   27.9330    6.2250 C.3    75  MET75       0.0387
    139  CG        -7.1270   27.9470    4.8430 C.3    75  MET75       0.0595
    140  SD        -6.7410   29.5930    4.1930 S.3    75  MET75      -0.1393
    141  CE        -8.3140   30.3480    4.0610 C.3    75  MET75       0.0692
    142  N         -0.1750   47.0050   -4.2450 N.3    98  VAL98      -0.1245
    143  CA         0.2410   45.5970   -4.1360 C.3    98  VAL98       0.1561
    144  C          0.5680   45.1710   -5.5510 C.2    98  VAL98       0.2260
    145  O         -0.1880   45.4660   -6.4800 O.2    98  VAL98      -0.2867
    146  CB        -0.9010   44.6970   -3.5210 C.3    98  VAL98       0.0252
    147  CG1       -0.3220   43.3190   -3.2480 C.3    98  VAL98       0.0019
    148  CG2       -1.5260   45.2950   -2.2660 C.3    98  VAL98       0.0019
    149  N          2.2380   41.8170   -7.9830 N.3   100  ARG100     -0.1245
    150  CA         2.7080   40.4530   -8.1080 C.3   100  ARG100      0.1563
    151  C          3.9990   40.3700   -8.8880 C.2   100  ARG100      0.2260
    152  O          4.1750   41.0790   -9.9000 O.2   100  ARG100     -0.2867
    153  CB         1.6600   39.6330   -8.8430 C.3   100  ARG100      0.0307
    154  CG         0.2940   39.5850   -8.2330 C.3   100  ARG100      0.0489
    155  CD        -0.5490   38.5420   -8.9090 C.3   100  ARG100      0.2205
    156  NE        -1.9050   38.4950   -8.4530 N.pl3 100  ARG100     -0.0865
    157  CZ        -2.9650   38.9320   -9.1080 C.cat 100  ARG100      0.5346
    158  NH1       -2.8190   39.5990  -10.2260 N.pl3 100  ARG100      0.1354
    159  NH2       -4.1660   38.7680   -8.5780 N.pl3 100  ARG100      0.1354
    160  N          5.6790   38.8420   -3.9350 N.3   107  VAL107     -0.1245
    161  CA         4.8060   40.0150   -3.9330 C.3   107  VAL107      0.1561
    162  C          5.6030   41.1730   -3.3990 C.2   107  VAL107      0.2260
    163  O          6.5120   41.0150   -2.5780 O.2   107  VAL107     -0.2867
    164  CB         3.5190   39.7550   -3.1050 C.3   107  VAL107      0.0252
    165  CG1        2.7000   41.0070   -2.8100 C.3   107  VAL107      0.0019
    166  CG2        2.6960   38.6740   -3.7500 C.3   107  VAL107      0.0019
    167  N          4.4680   44.8270   -1.5980 N.3   109  ASN109     -0.1240
    168  CA         3.3570   45.6130   -1.1210 C.3   109  ASN109      0.1653
    169  C          3.8140   46.8510   -0.4550 C.2   109  ASN109      0.2266
    170  O          4.8440   46.9260    0.2400 O.2   109  ASN109     -0.2867
    171  CB         2.4230   44.8140   -0.1420 C.3   109  ASN109      0.1155
    172  CG         2.9210   44.8290    1.2760 C.2   109  ASN109      0.2627
    173  OD1        2.5730   45.7630    2.0160 O.2   109  ASN109     -0.2716
    174  ND2        3.7510   43.8620    1.6390 N.am  109  ASN109     -0.0877
    175  N          1.0490   48.7060    1.3150 N.3   111  TYR111     -0.1241
    176  CA        -0.2640   49.0550    1.8260 C.3   111  TYR111      0.1605
    177  C         -0.2330   50.3320    2.6420 C.2   111  TYR111      0.2264
    178  O         -1.1740   51.1320    2.5430 O.2   111  TYR111     -0.2867
    179  CB        -0.9080   47.8880    2.5940 C.3   111  TYR111      0.0534
    180  CG        -1.7770   46.9730    1.8070 C.ar  111  TYR111     -0.0201
    181  CD1       -2.9770   47.4290    1.3190 C.ar  111  TYR111     -0.0009
    182  CD2       -1.5460   45.6250    1.6440 C.ar  111  TYR111     -0.0009
    183  CE1       -3.8400   46.5990    0.6140 C.ar  111  TYR111      0.0417
    184  CE2       -2.4540   44.7440    1.0420 C.ar  111  TYR111      0.0417
    185  CZ        -3.6080   45.2720    0.5510 C.ar  111  TYR111      0.1957
    186  OH        -4.5320   44.4630   -0.1180 O.3   111  TYR111     -0.2866
    187  N          2.2510   33.5970    4.4160 N.3   316  TYR316     -0.1241
    188  CA         1.2730   34.4500    3.7740 C.3   316  TYR316      0.1605
    189  C          1.3680   34.3250    2.2590 C.2   316  TYR316      0.2264
    190  O          0.4960   33.7800    1.6340 O.2   316  TYR316     -0.2867
    191  CB         1.4330   35.8800    4.2840 C.3   316  TYR316      0.0534
    192  CG         0.4360   36.9420    3.8280 C.ar  316  TYR316     -0.0201
    193  CD1       -0.4830   36.7230    2.8300 C.ar  316  TYR316     -0.0009
    194  CD2        0.4740   38.1820    4.4090 C.ar  316  TYR316     -0.0009
    195  CE1       -1.3340   37.7320    2.4400 C.ar  316  TYR316      0.0417
    196  CE2       -0.3570   39.1810    4.0260 C.ar  316  TYR316      0.0417
    197  CZ        -1.2820   38.9410    3.0570 C.ar  316  TYR316      0.1957
    198  OH        -2.1780   39.8620    2.6470 O.3   316  TYR316     -0.2866
    199  N          0.1110   31.4330    0.0730 N.3   319  LEU319     -0.1231
    200  CA        -1.3230   31.3260   -0.1130 C.3   319  LEU319      0.1693
    201  C         -1.7890   31.9930   -1.3640 C.2   319  LEU319      0.2592
    202  O         -2.7280   31.5890   -1.9360 O.2   319  LEU319     -0.2718
    203  CB        -2.0580   32.0360    0.9650 C.3   319  LEU319      0.0284
    204  CG        -2.2180   31.4300    2.2760 C.3   319  LEU319      0.0019
    205  CD1       -2.8310   32.4700    3.1940 C.3   319  LEU319      0.0001
    206  CD2       -3.1720   30.2470    2.2030 C.3   319  LEU319      0.0001
    207  N         -1.1600   33.0740   -1.7210 N.am  320  THR320     -0.1953
    208  CA        -1.5200   33.8700   -2.8570 C.3   320  THR320      0.1897
    209  C         -1.2450   33.1450   -4.1590 C.2   320  THR320      0.2313
    210  O         -1.8580   33.4140   -5.1330 O.2   320  THR320     -0.2863
    211  CB        -0.9200   35.2930   -2.8510 C.3   320  THR320      0.1794
    212  OG1        0.4120   35.2190   -3.2840 O.3   320  THR320     -0.2208
    213  CG2       -0.9980   35.9450   -1.5300 C.3   320  THR320      0.0378
    214  N         -5.5650   28.0500   -0.4570 N.3   324  PRO324     -0.2116
    215  CA        -5.7240   27.4300    0.8520 C.3   324  PRO324      0.1372
    216  C         -5.1090   26.0360    1.0190 C.2   324  PRO324      0.2244
    217  O         -4.6670   25.7660    2.0780 O.2   324  PRO324     -0.2868
    218  CB        -7.2460   27.3920    1.0180 C.3   324  PRO324      0.0268
    219  CG        -7.6920   28.6060    0.3360 C.3   324  PRO324      0.0207
    220  CD        -6.8530   28.6020   -0.9160 C.3   324  PRO324      0.0892
@<TRIPOS>BOND
     1    40    39    2
     2    39    38    1
     3    46    47    1
     4    29    30    1
     5    41    38    1
     6    41    42    1
     7    38    37    1
     8    37    31   am
     9    31    32    2
    10    31    30    1
    11    13    14    1
    12    30    33    1
    13    47    48    1
    14    47    50    1
    15    42    43    1
    16    49    48    2
    17    14    15    1
    18    14    17    1
    19    16    15    2
    20   158   157    1
    21    24    23    2
    22    23    22    1
    23    15    21   am
    24   152   151    2
    25    36    34    1
    26    53    51    1
    27    50    51    1
    28    51    52    1
    29    33    34    1
    30    19    18    1
    31    21    22    1
    32    17    18    1
    33   157   159    1
    34   157   156    2
    35    34    35    1
    36    43    44    2
    37    43    45   am
    38   155   156    1
    39   155   154    1
    40   151   150    1
    41   153   154    1
    42   153   150    1
    43    22    25    1
    44    18    20    1
    45     4     3    2
    46    60    54    1
    47    60    59    1
    48   150   149    1
    49    25    26    1
    50     3     2    1
    51    54    55    1
    52     1     2    1
    53     2     5    1
    54    59    58    1
    55   145   144    2
    56    26    27    1
    57    55    58    1
    58    55    56    1
    59    65    62    1
    60     5     6    1
    61   144   143    1
    62    27    28    1
    63    83    81    1
    64    61    62    1
    65   210   209    2
    66    56    57    2
    67     6     8   ar
    68     6     7   ar
    69    62    63    1
    70     8    10   ar
    71     7     9   ar
    72   142   143    1
    73    10    11   ar
    74   209   208    1
    75   143   146    1
    76    81    82    1
    77    81    80    1
    78   160   161    1
    79   161   162    1
    80   161   164    1
    81     9    11   ar
    82    99    98   ar
    83    99    97   ar
    84   166   164    1
    85    11    12    1
    86    98    96   ar
    87   146   147    1
    88   146   148    1
    89    80    77    1
    90   162   163    2
    91    63    64    2
    92    63    66   am
    93   212   211    1
    94   164   165    1
    95   208   211    1
    96   208   207    1
    97   211   213    1
    98    66    67    1
    99    97    95   ar
   100    96    94   ar
   101    77    76    1
   102    77    78    1
   103   202   201    2
   104   207   201   am
   105   167   168    1
   106    95    94   ar
   107   201   200    1
   108    94    93    1
   109    67    70    1
   110    67    68    1
   111   168   169    1
   112   168   171    1
   113    78    84   am
   114    78    79    2
   115    84    85    1
   116   220   214    1
   117   220   219    1
   118    70    71    1
   119    68    69    2
   120   214   215    1
   121   169   170    2
   122    88    85    1
   123    85    86    1
   124   171   172    1
   125   186   185    1
   126   200   199    1
   127   200   203    1
   128   113   112    1
   129    93    90    1
   130   219   218    1
   131    71    73   ar
   132    71    72   ar
   133   185   183   ar
   134   185   184   ar
   135   183   181   ar
   136   110   109    2
   137   215   218    1
   138   215   216    1
   139   111   112    1
   140   111   108    1
   141   203   204    1
   142   216   217    2
   143   184   182   ar
   144    73    75   ar
   145   112   114    1
   146    90    89    1
   147    90    91    1
   148   172   174   am
   149   172   173    2
   150    86    87    2
   151   175   176    1
   152   181   180   ar
   153    72    74   ar
   154   190   189    2
   155   182   180   ar
   156   109   108    1
   157   109   115   am
   158   180   179    1
   159   176   179    1
   160   176   177    1
   161   108   107    1
   162   206   204    1
   163   189   188    1
   164   204   205    1
   165    75    74   ar
   166   195   193   ar
   167   195   197   ar
   168   115   116    1
   169    91    92    2
   170    91   100   am
   171   178   177    2
   172   116   117    1
   173   116   119    1
   174   131   133   ar
   175   131   129   ar
   176   198   197    1
   177   122   120    1
   178   193   192   ar
   179   117   118    2
   180   197   196   ar
   181   100   101    1
   182   133   132   ar
   183   129   128   ar
   184   105   104    1
   185   120   119    1
   186   120   121    1
   187   188   191    1
   188   188   187    1
   189   192   191    1
   190   192   194   ar
   191   196   194   ar
   192   141   140    1
   193   140   139    1
   194   101   104    1
   195   101   102    1
   196   132   130   ar
   197   104   106    1
   198   128   130   ar
   199   128   127    1
   200   139   138    1
   201   126   125    2
   202   102   103    2
   203   127   124    1
   204   124   125    1
   205   124   123    1
   206   138   135    1
   207   137   136    2
   208   135   136    1
   209   135   134    1
