@<TRIPOS>MOLECULE
tmp/4ighA03.pdb
 165 160 0 0 0
SMALL
GASTEIGER

@<TRIPOS>ATOM
      1  N          4.6170   26.5090   23.5850 N.3    47  VAL47      -0.1231
      2  CA         5.5030   27.6020   23.5310 C.3    47  VAL47       0.1692
      3  C          5.0930   28.4710   24.6390 C.2    47  VAL47       0.2591
      4  O          3.9570   28.8640   24.6810 O.2    47  VAL47      -0.2718
      5  CB         5.4610   28.3610   22.1930 C.3    47  VAL47       0.0266
      6  CG1        6.5790   29.3340   22.1870 C.3    47  VAL47       0.0020
      7  CG2        5.5200   27.4410   21.0170 C.3    47  VAL47       0.0020
      8  N          6.0360   28.7190   25.5390 N.am   48  LEU48      -0.1980
      9  CA         5.8010   29.3600   26.8350 C.3    48  LEU48       0.1596
     10  C          4.7590   28.6170   27.6150 C.2    48  LEU48       0.2287
     11  O          4.0230   29.2280   28.3350 O.2    48  LEU48      -0.2864
     12  CB         5.3930   30.7960   26.6000 C.3    48  LEU48       0.0297
     13  CG         6.4760   31.5570   25.8540 C.3    48  LEU48       0.0022
     14  CD1        6.2170   33.0310   25.9740 C.3    48  LEU48       0.0001
     15  CD2        7.8330   31.2160   26.3900 C.3    48  LEU48       0.0001
     16  N          2.1120   26.9720   26.4920 N.3    50  HIS50      -0.1241
     17  CA         0.8280   27.0650   25.8750 C.3    50  HIS50       0.1621
     18  C          0.7460   26.3110   24.6160 C.2    50  HIS50       0.2264
     19  O          1.6200   26.3940   23.8460 O.2    50  HIS50      -0.2867
     20  CB         0.5760   28.4810   25.5390 C.3    50  HIS50       0.0745
     21  CG         0.5300   29.3570   26.7340 C.ar   50  HIS50       0.0817
     22  ND1       -0.5250   29.4200   27.4980 N.ar   50  HIS50      -0.2268
     23  CD2        1.4580   30.1570   27.2990 C.ar   50  HIS50       0.1154
     24  CE1       -0.3230   30.2760   28.4610 C.ar   50  HIS50       0.1986
     25  NE2        0.8850   30.7200   28.3530 N.ar   50  HIS50      -0.2212
     26  N         -0.0960   24.8160   20.9410 N.3    52  PHE52      -0.1241
     27  CA        -0.3930   25.0970   19.5750 C.3    52  PHE52       0.1605
     28  C         -0.6520   23.7420   18.8880 C.2    52  PHE52       0.2264
     29  O          0.2360   22.9200   18.8490 O.2    52  PHE52      -0.2867
     30  CB         0.7710   25.8450   18.9260 C.3    52  PHE52       0.0534
     31  CG         0.9430   27.2670   19.3730 C.ar   52  PHE52      -0.0203
     32  CD1        1.4810   27.5550   20.5720 C.ar   52  PHE52      -0.0042
     33  CD2        0.5740   28.2980   18.5540 C.ar   52  PHE52      -0.0042
     34  CE1        1.6490   28.8390   20.9820 C.ar   52  PHE52      -0.0003
     35  CE2        0.7340   29.5880   18.9450 C.ar   52  PHE52      -0.0003
     36  CZ         1.2950   29.8760   20.1630 C.ar   52  PHE52      -0.0000
     37  N         -8.3610   28.7940   22.0330 N.3   136  THR136     -0.1218
     38  CA        -7.0570   28.9170   22.6030 C.3   136  THR136      0.1862
     39  C         -6.8210   27.7770   23.5340 C.2   136  THR136      0.2287
     40  O         -5.8040   27.1640   23.5120 O.2   136  THR136     -0.2866
     41  CB        -6.8890   30.2450   23.3340 C.3   136  THR136      0.1770
     42  OG1       -6.9560   31.3170   22.3940 O.3   136  THR136     -0.2211
     43  CG2       -5.5790   30.2910   24.0410 C.3   136  THR136      0.0375
     44  N         -4.3460   29.5060   19.2230 N.3   141  PRO141     -0.2116
     45  CA        -4.2110   30.8500   19.8020 C.3   141  PRO141      0.1372
     46  C         -4.3750   31.9730   18.7540 C.2   141  PRO141      0.2244
     47  O         -4.2620   31.7360   17.5420 O.2   141  PRO141     -0.2868
     48  CB        -2.8410   30.8770   20.3990 C.3   141  PRO141      0.0268
     49  CG        -2.4520   29.4550   20.5650 C.3   141  PRO141      0.0207
     50  CD        -3.0980   28.7510   19.4130 C.3   141  PRO141      0.0892
     51  N         -6.1860   39.2000   23.1890 N.3   170  ALA170     -0.1231
     52  CA        -5.0970   38.5410   22.4600 C.3   170  ALA170      0.1694
     53  C         -4.3960   37.4990   23.2910 C.2   170  ALA170      0.2592
     54  O         -4.1520   37.7180   24.4840 O.2   170  ALA170     -0.2718
     55  CB        -4.0860   39.5930   21.9860 C.3   170  ALA170      0.0304
     56  N         -3.8980   36.4400   22.6800 N.am  171  ASP171     -0.1960
     57  CA        -2.9000   35.5950   23.3210 C.3   171  ASP171      0.1840
     58  C         -1.5540   36.1610   23.2920 C.2   171  ASP171      0.2622
     59  O         -0.7730   36.0730   24.2550 O.2   171  ASP171     -0.2715
     60  CB        -2.9880   34.1800   22.7680 C.3   171  ASP171      0.1450
     61  CG        -4.3000   33.5830   23.0720 C.2   171  ASP171      0.3671
     62  OD1       -4.6700   33.6090   24.3190 O.co2 171  ASP171     -0.2456
     63  OD2       -4.9910   33.0690   22.1540 O.co2 171  ASP171     -0.2456
     64  N         -1.1770   36.8030   22.1780 N.am  172  TYR172     -0.1974
     65  CA         0.0700   37.5380   22.0550 C.3   172  TYR172      0.1639
     66  C         -0.1660   38.7940   21.2600 C.2   172  TYR172      0.2290
     67  O         -1.0560   38.8470   20.4100 O.2   172  TYR172     -0.2864
     68  CB         1.2070   36.6980   21.4880 C.3   172  TYR172      0.0560
     69  CG         1.1340   36.3270   20.0380 C.ar  172  TYR172     -0.0198
     70  CD1        1.5820   37.1660   19.0730 C.ar  172  TYR172     -0.0009
     71  CD2        0.6620   35.0770   19.6230 C.ar  172  TYR172     -0.0009
     72  CE1        1.5660   36.8180   17.7150 C.ar  172  TYR172      0.0417
     73  CE2        0.6230   34.7100   18.2500 C.ar  172  TYR172      0.0417
     74  CZ         1.0970   35.6070   17.3300 C.ar  172  TYR172      0.1957
     75  OH         1.0670   35.2680   15.9980 O.3   172  TYR172     -0.2866
     76  N         -4.7410   39.2720   34.8270 N.3   206  ARG206     -0.1231
     77  CA        -3.9960   38.0730   34.4030 C.3   206  ARG206      0.1694
     78  C         -4.6430   37.2470   33.2910 C.2   206  ARG206      0.2592
     79  O         -3.9780   36.8580   32.3880 O.2   206  ARG206     -0.2718
     80  CB        -3.7630   37.1480   35.6050 C.3   206  ARG206      0.0321
     81  CG        -2.9660   35.8970   35.2650 C.3   206  ARG206      0.0489
     82  CD        -2.8090   34.9810   36.4680 C.3   206  ARG206      0.2205
     83  NE        -4.1680   34.7450   36.9890 N.pl3 206  ARG206     -0.0865
     84  CZ        -5.0610   33.8290   36.5660 C.cat 206  ARG206      0.5346
     85  NH1       -4.7620   32.9020   35.6650 N.pl3 206  ARG206      0.1354
     86  NH2       -6.2760   33.8160   37.0910 N.pl3 206  ARG206      0.1354
     87  N         -5.9300   37.0490   33.3390 N.am  207  VAL207     -0.1966
     88  CA        -6.6590   36.3170   32.2920 C.3   207  VAL207      0.1727
     89  C         -6.6070   36.9990   30.9180 C.2   207  VAL207      0.2616
     90  O         -6.8030   36.4210   29.9190 O.2   207  VAL207     -0.2715
     91  CB        -8.1360   36.0610   32.7630 C.3   207  VAL207      0.0290
     92  CG1       -9.0920   35.6760   31.6590 C.3   207  VAL207      0.0023
     93  CG2       -8.0860   35.0070   33.8580 C.3   207  VAL207      0.0023
     94  N         -6.4380   38.2800   30.9750 N.am  208  HIS208     -0.1959
     95  CA        -6.3270   39.2100   29.8550 C.3   208  HIS208      0.1787
     96  C         -4.9290   39.7100   29.5340 C.2   208  HIS208      0.2620
     97  O         -4.7940   40.7130   28.8880 O.2   208  HIS208     -0.2715
     98  CB        -7.2710   40.3740   30.1140 C.3   208  HIS208      0.0785
     99  CG        -8.6970   39.9600   30.1380 C.ar  208  HIS208      0.0821
    100  ND1       -9.3660   39.6320   29.0490 N.ar  208  HIS208     -0.2267
    101  CD2       -9.5510   39.7420   31.1840 C.ar  208  HIS208      0.1154
    102  CE1      -10.5680   39.2770   29.3690 C.ar  208  HIS208      0.1986
    103  NE2      -10.6760   39.3370   30.6700 N.ar  208  HIS208     -0.2212
    104  N         -3.9260   39.0110   30.0280 N.am  209  ARG209     -0.1964
    105  CA        -2.5580   39.4580   29.8890 C.3   209  ARG209      0.1714
    106  C         -1.7790   38.6730   28.8080 C.2   209  ARG209      0.2458
    107  O         -1.4630   37.5590   28.9910 O.2   209  ARG209     -0.2730
    108  CB        -1.8770   39.3740   31.2630 C.3   209  ARG209      0.0347
    109  CG        -0.5730   40.1120   31.3350 C.3   209  ARG209      0.0492
    110  CD         0.0930   39.9400   32.6870 C.3   209  ARG209      0.2205
    111  NE        -0.6930   40.5060   33.7720 N.pl3 209  ARG209     -0.0865
    112  CZ        -0.7960   40.0700   35.0220 C.cat 209  ARG209      0.5346
    113  NH1       -0.1430   39.0150   35.4740 N.pl3 209  ARG209      0.1354
    114  NH2       -1.5650   40.7100   35.8670 N.pl3 209  ARG209      0.1354
    115  N         -1.5400   39.3160   27.6710 N.am  210  PRO210     -0.2716
    116  CA        -0.8700   38.6200   26.5560 C.3   210  PRO210      0.1536
    117  C          0.6490   38.5960   26.6750 C.2   210  PRO210      0.2598
    118  O          1.2320   39.3880   27.3010 O.2   210  PRO210     -0.2715
    119  CB        -1.3170   39.4270   25.3360 C.3   210  PRO210      0.0310
    120  CG        -1.2940   40.8220   25.8650 C.3   210  PRO210      0.0237
    121  CD        -1.8920   40.6870   27.2680 C.3   210  PRO210      0.0939
    122  N          1.2270   37.6590   25.9500 N.am  211  ALA211     -0.1978
    123  CA         2.6310   37.7180   25.6050 C.3   211  ALA211      0.1597
    124  C          2.8980   38.8920   24.6720 C.2   211  ALA211      0.2287
    125  O          2.0490   39.3440   23.9930 O.2   211  ALA211     -0.2864
    126  CB         3.0870   36.4410   24.9480 C.3   211  ALA211      0.0319
    127  N          5.6450   40.1130   21.7140 N.3   213  LEU213     -0.1245
    128  CA         6.7040   39.7960   20.7700 C.3   213  LEU213      0.1561
    129  C          7.0600   41.0350   19.9630 C.2   213  LEU213      0.2260
    130  O          6.2680   41.9000   19.7540 O.2   213  LEU213     -0.2867
    131  CB         6.2520   38.6910   19.8250 C.3   213  LEU213      0.0270
    132  CG         6.0600   37.3080   20.4260 C.3   213  LEU213      0.0019
    133  CD1        4.7640   37.1740   21.1380 C.3   213  LEU213      0.0001
    134  CD2        6.1780   36.2250   19.3690 C.3   213  LEU213      0.0001
    135  N          8.9400   38.4470   25.4310 N.3   238  ASP238     -0.1239
    136  CA         8.5200   37.0620   25.3440 C.3   238  ASP238      0.1674
    137  C          8.9910   36.2570   24.0970 C.2   238  ASP238      0.2266
    138  O          9.1510   35.1070   24.1560 O.2   238  ASP238     -0.2867
    139  CB         7.0100   36.9600   25.5280 C.3   238  ASP238      0.1410
    140  CG         6.5380   37.5120   26.8700 C.2   238  ASP238      0.3668
    141  OD1        7.0050   37.0090   27.8980 O.co2 238  ASP238     -0.2456
    142  OD2        5.8240   38.4610   26.8540 O.co2 238  ASP238     -0.2456
    143  N         11.6700   32.4520   22.3830 N.3   289  PRO289     -0.2116
    144  CA        10.9410   31.8320   21.2930 C.3   289  PRO289      0.1372
    145  C         10.8800   32.7530   20.0680 C.2   289  PRO289      0.2244
    146  O         10.6950   33.8900   20.1620 O.2   289  PRO289     -0.2868
    147  CB         9.5320   31.6720   21.8440 C.3   289  PRO289      0.0268
    148  CG         9.7400   31.5840   23.3170 C.3   289  PRO289      0.0207
    149  CD        10.8640   32.5030   23.6060 C.3   289  PRO289      0.0892
    150  N          9.1050   33.0150   16.1950 N.3   291  ILE291     -0.1245
    151  CA         8.1870   32.7140   15.1270 C.3   291  ILE291      0.1561
    152  C          8.8920   33.1120   13.8050 C.2   291  ILE291      0.2260
    153  O          9.1930   34.2130   13.5840 O.2   291  ILE291     -0.2867
    154  CB         6.8460   33.4640   15.2720 C.3   291  ILE291      0.0252
    155  CG1        6.2510   33.2420   16.6680 C.3   291  ILE291      0.0019
    156  CG2        5.9430   33.0290   14.1370 C.3   291  ILE291      0.0019
    157  CD1        4.8170   33.7190   16.8290 C.3   291  ILE291      0.0001
    158  N          7.7520   28.1310   15.9460 N.3   312  LEU312     -0.1245
    159  CA         6.5620   28.2510   15.1350 C.3   312  LEU312      0.1561
    160  C          6.9490   28.9160   13.8220 C.2   312  LEU312      0.2260
    161  O          7.9180   29.5820   13.7660 O.2   312  LEU312     -0.2867
    162  CB         5.5030   29.1120   15.8700 C.3   312  LEU312      0.0270
    163  CG         5.0090   28.6260   17.2250 C.3   312  LEU312      0.0019
    164  CD1        4.1920   29.7170   17.8600 C.3   312  LEU312      0.0001
    165  CD2        4.1540   27.3850   17.1430 C.3   312  LEU312      0.0001
@<TRIPOS>BOND
     1   153   152    2
     2   161   160    2
     3   152   151    1
     4   160   159    1
     5   156   154    1
     6   151   154    1
     7   151   150    1
     8   159   162    1
     9   159   158    1
    10   154   155    1
    11   162   163    1
    12    75    74    1
    13   155   157    1
    14   165   163    1
    15   163   164    1
    16    74    72   ar
    17    74    73   ar
    18    47    46    2
    19    72    70   ar
    20    73    71   ar
    21    33    35   ar
    22    33    31   ar
    23    46    45    1
    24    29    28    2
    25    28    27    1
    26    30    31    1
    27    30    27    1
    28    35    36   ar
    29    70    69   ar
    30    44    50    1
    31    44    45    1
    32   134   132    1
    33    31    32   ar
    34    50    49    1
    35    27    26    1
    36    71    69   ar
    37   130   129    2
    38    45    48    1
    39   131   132    1
    40   131   128    1
    41   129   128    1
    42    69    68    1
    43   145   146    2
    44   145   144    1
    45    36    34   ar
    46    48    49    1
    47    67    66    2
    48   132   133    1
    49    32    34   ar
    50   128   127    1
    51     7     5    1
    52    66    65    1
    53   144   147    1
    54   144   143    1
    55    68    65    1
    56   147   148    1
    57    55    52    1
    58    37    38    1
    59    65    64    1
    60    63    61   ar
    61    64    58   am
    62     6     5    1
    63     5     2    1
    64   143   149    1
    65    42    41    1
    66    52    51    1
    67    52    53    1
    68    38    41    1
    69    38    39    1
    70    56    53   am
    71    56    57    1
    72    60    61    1
    73    60    57    1
    74    61    62   ar
    75    53    54    2
    76    58    57    1
    77    58    59    2
    78   148   149    1
    79    41    43    1
    80    40    39    2
    81     2     1    1
    82     2     3    1
    83    19    18    2
    84   125   124    2
    85   137   138    2
    86   137   136    1
    87    18    17    1
    88     3     4    2
    89     3     8   am
    90   124   123    1
    91   126   123    1
    92   119   120    1
    93   119   116    1
    94   136   135    1
    95   136   139    1
    96   139   140    1
    97    20    17    1
    98    20    21    1
    99     8     9    1
   100   123   122    1
   101    13    14    1
   102    13    15    1
   103    13    12    1
   104   120   121    1
   105    17    16    1
   106   122   117   am
   107   116   117    1
   108   116   115    1
   109    12     9    1
   110   117   118    2
   111    21    23   ar
   112    21    22   ar
   113     9    10    1
   114   142   140   ar
   115   140   141   ar
   116   121   115    1
   117    23    25   ar
   118    22    24   ar
   119    10    11    2
   120   115   106   am
   121    25    24   ar
   122   106   107    2
   123   106   105    1
   124    97    96    2
   125   100   102   ar
   126   100    99   ar
   127   102   103   ar
   128    96    95    1
   129    96   104   am
   130    95    98    1
   131    95    94    1
   132   105   104    1
   133   105   108    1
   134    90    89    2
   135    98    99    1
   136    99   101   ar
   137   103   101   ar
   138    89    94   am
   139    89    88    1
   140   108   109    1
   141   109   110    1
   142    92    91    1
   143    88    91    1
   144    88    87    1
   145    79    78    2
   146   110   111    1
   147    91    93    1
   148    78    87   am
   149    78    77    1
   150   111   112    2
   151    77    76    1
   152    77    80    1
   153   112   113    1
   154   112   114    1
   155    81    80    1
   156    81    82    1
   157    85    84    1
   158    82    83    1
   159    84    83    2
   160    84    86    1
