@<TRIPOS>MOLECULE
tmp/4igoA00.pdb
 125 119 0 0 0
SMALL
GASTEIGER

@<TRIPOS>ATOM
      1  N         18.9860   33.3390    2.8440 N.3   132  TYR132     -0.1241
      2  CA        18.7270   32.1260    3.5930 C.3   132  TYR132      0.1605
      3  C         17.2410   31.9590    3.8000 C.2   132  TYR132      0.2264
      4  O         16.4890   32.9350    3.7720 O.2   132  TYR132     -0.2867
      5  CB        19.4190   32.1950    4.9470 C.3   132  TYR132      0.0534
      6  CG        18.8020   33.2420    5.8110 C.ar  132  TYR132     -0.0201
      7  CD1       17.9350   32.9010    6.8400 C.ar  132  TYR132     -0.0009
      8  CD2       19.0290   34.5810    5.5560 C.ar  132  TYR132     -0.0009
      9  CE1       17.3480   33.8710    7.6180 C.ar  132  TYR132      0.0417
     10  CE2       18.4460   35.5540    6.3220 C.ar  132  TYR132      0.0417
     11  CZ        17.6100   35.1990    7.3500 C.ar  132  TYR132      0.1957
     12  OH        17.0380   36.1910    8.1050 O.3   132  TYR132     -0.2866
     13  N         14.4820   30.6310    6.5060 N.3   134  ALA134     -0.1245
     14  CA        14.4050   30.3250    7.9340 C.3   134  ALA134      0.1562
     15  C         12.9700   30.1290    8.4110 C.2   134  ALA134      0.2260
     16  O         12.0420   30.7270    7.8620 O.2   134  ALA134     -0.2867
     17  CB        15.1000   31.4060    8.7550 C.3   134  ALA134      0.0290
     18  N         15.7550   25.2100    8.4300 N.3   155  TYR155     -0.1241
     19  CA        16.6470   26.2900    8.0170 C.3   155  TYR155      0.1605
     20  C         17.5240   25.9200    6.8370 C.2   155  TYR155      0.2264
     21  O         18.2370   24.9210    6.8620 O.2   155  TYR155     -0.2867
     22  CB        17.5310   26.7290    9.1790 C.3   155  TYR155      0.0534
     23  CG        16.7530   27.1170   10.4140 C.ar  155  TYR155     -0.0201
     24  CD1       16.3500   26.1520   11.3400 C.ar  155  TYR155     -0.0009
     25  CD2       16.4150   28.4450   10.6590 C.ar  155  TYR155     -0.0009
     26  CE1       15.6350   26.5000   12.4790 C.ar  155  TYR155      0.0417
     27  CE2       15.7080   28.8080   11.8000 C.ar  155  TYR155      0.0417
     28  CZ        15.3170   27.8330   12.7090 C.ar  155  TYR155      0.1957
     29  OH        14.6100   28.1820   13.8440 O.3   155  TYR155     -0.2866
     30  N         23.8130   33.7710    8.1970 N.3   162  SER162     -0.1202
     31  CA        24.1340   33.8860    9.6060 C.3   162  SER162      0.2020
     32  C         22.9100   33.7550   10.4960 C.2   162  SER162      0.2618
     33  O         21.7970   34.0890   10.0940 O.2   162  SER162     -0.2717
     34  CB        24.8070   35.2300    9.8920 C.3   162  SER162      0.2103
     35  OG        26.0570   35.3610    9.2290 O.3   162  SER162     -0.2182
     36  N         23.1260   33.2430   11.7030 N.am  163  PHE163     -0.1975
     37  CA        22.1690   33.4140   12.7880 C.3   163  PHE163      0.1639
     38  C         22.9120   34.2240   13.8430 C.2   163  PHE163      0.2290
     39  O         23.9380   33.7930   14.3490 O.2   163  PHE163     -0.2864
     40  CB        21.6240   32.0690   13.3010 C.3   163  PHE163      0.0560
     41  CG        22.6740   30.9950   13.4790 C.ar  163  PHE163     -0.0200
     42  CD1       23.0400   30.5670   14.7470 C.ar  163  PHE163     -0.0042
     43  CD2       23.2750   30.4010   12.3810 C.ar  163  PHE163     -0.0042
     44  CE1       23.9910   29.5700   14.9210 C.ar  163  PHE163     -0.0003
     45  CE2       24.2280   29.4070   12.5400 C.ar  163  PHE163     -0.0003
     46  CZ        24.5880   28.9920   13.8180 C.ar  163  PHE163     -0.0000
     47  N         21.9370   35.5360   20.0680 N.3   166  HIS166     -0.1241
     48  CA        20.7400   35.6060   20.9120 C.3   166  HIS166      0.1621
     49  C         20.6580   34.4770   21.9490 C.2   166  HIS166      0.2264
     50  O         21.4580   33.5360   21.9440 O.2   166  HIS166     -0.2867
     51  CB        19.4760   35.5740   20.0630 C.3   166  HIS166      0.0745
     52  CG        19.1210   34.2060   19.5790 C.ar  166  HIS166      0.0817
     53  ND1       17.8810   33.6400   19.7880 N.ar  166  HIS166     -0.2268
     54  CD2       19.8480   33.2860   18.8990 C.ar  166  HIS166      0.1154
     55  CE1       17.8600   32.4280   19.2610 C.ar  166  HIS166      0.1986
     56  NE2       19.0400   32.1910   18.7140 N.ar  166  HIS166     -0.2212
     57  N         17.7170   31.7200   23.6270 N.3   168  GLU168     -0.1245
     58  CA        16.4150   31.1300   23.3190 C.3   168  GLU168      0.1567
     59  C         15.2630   31.7200   24.1370 C.2   168  GLU168      0.2260
     60  O         15.4470   32.1630   25.2720 O.2   168  GLU168     -0.2867
     61  CB        16.4570   29.6120   23.4360 C.3   168  GLU168      0.0388
     62  CG        17.3580   28.9800   22.4010 C.3   168  GLU168      0.1160
     63  CD        17.0880   29.4760   20.9710 C.2   168  GLU168      0.3649
     64  OE1       15.9430   29.8680   20.6460 O.co2 168  GLU168     -0.2457
     65  OE2       18.0330   29.4620   20.1610 O.co2 168  GLU168     -0.2457
     66  N         17.8030   24.4860   22.8890 N.3   174  SER174     -0.1217
     67  CA        17.3900   24.1570   21.5300 C.3   174  SER174      0.1889
     68  C         18.2490   22.9900   21.0660 C.2   174  SER174      0.2288
     69  O         19.4380   22.8980   21.4040 O.2   174  SER174     -0.2866
     70  CB        17.5080   25.3550   20.5840 C.3   174  SER174      0.2089
     71  OG        18.8260   25.8840   20.5290 O.3   174  SER174     -0.2183
     72  N         19.5950   20.9990   17.6500 N.3   176  ASN176     -0.1240
     73  CA        19.7510   21.2690   16.2180 C.3   176  ASN176      0.1653
     74  C         20.3990   20.1210   15.4720 C.2   176  ASN176      0.2266
     75  O         21.4760   19.6450   15.8370 O.2   176  ASN176     -0.2867
     76  CB        20.5880   22.5160   15.9980 C.3   176  ASN176      0.1155
     77  CG        20.1370   23.6750   16.8530 C.2   176  ASN176      0.2627
     78  OD1       19.6030   24.6650   16.3350 O.2   176  ASN176     -0.2716
     79  ND2       20.3580   23.5730   18.1790 N.am  176  ASN176     -0.0877
     80  N         28.1900   23.9150    9.6440 N.3   184  LYS184     -0.1245
     81  CA        27.6800   25.0920   10.3210 C.3   184  LYS184      0.1561
     82  C         28.5990   25.3840   11.5070 C.2   184  LYS184      0.2260
     83  O         28.8380   24.5070   12.3250 O.2   184  LYS184     -0.2867
     84  CB        26.2540   24.8260   10.8050 C.3   184  LYS184      0.0271
     85  CG        25.5960   25.9820   11.5090 C.3   184  LYS184      0.0035
     86  CD        24.2220   25.5700   11.9640 C.3   184  LYS184      0.0206
     87  CE        23.1300   26.2880   11.1750 C.3   184  LYS184      0.1093
     88  NZ        22.7630   25.5880    9.9120 N.3   184  LYS184     -0.1314
     89  N         29.4070   27.2510   14.9620 N.3   186  TRP186     -0.1241
     90  CA        28.6350   27.7990   16.0910 C.3   186  TRP186      0.1605
     91  C         29.5400   28.5000   17.0740 C.2   186  TRP186      0.2264
     92  O         30.6710   28.0940   17.2720 O.2   186  TRP186     -0.2867
     93  CB        27.8950   26.6930   16.8420 C.3   186  TRP186      0.0550
     94  CG        26.8060   26.0400   16.0890 C.ar  186  TRP186      0.0003
     95  CD1       26.9360   25.1890   15.0300 C.ar  186  TRP186      0.0946
     96  CD2       25.4010   26.1490   16.3480 C.ar  186  TRP186      0.0152
     97  NE1       25.6960   24.7720   14.6010 N.ar  186  TRP186     -0.2442
     98  CE2       24.7360   25.3520   15.3900 C.ar  186  TRP186      0.0810
     99  CE3       24.6370   26.8450   17.2990 C.ar  186  TRP186      0.0012
    100  CZ2       23.3470   25.2280   15.3550 C.ar  186  TRP186      0.0191
    101  CZ3       23.2530   26.7220   17.2570 C.ar  186  TRP186      0.0001
    102  CH2       22.6260   25.9170   16.2880 C.ar  186  TRP186      0.0015
    103  N         17.8040   39.7450   16.6040 N.3   219  LEU219     -0.1245
    104  CA        18.4830   38.7210   15.7940 C.3   219  LEU219      0.1561
    105  C         19.1580   39.2850   14.5490 C.2   219  LEU219      0.2260
    106  O         19.1840   38.6460   13.4990 O.2   219  LEU219     -0.2867
    107  CB        17.4980   37.6120   15.4010 C.3   219  LEU219      0.0270
    108  CG        16.9830   36.7720   16.5800 C.3   219  LEU219      0.0019
    109  CD1       15.4540   36.6890   16.6090 C.3   219  LEU219      0.0001
    110  CD2       17.6120   35.3750   16.5720 C.3   219  LEU219      0.0001
    111  N         24.2940   32.2930   21.6880 N.3   254  HIS254     -0.1241
    112  CA        24.8280   31.5590   20.5440 C.3   254  HIS254      0.1621
    113  C         24.5830   32.3100   19.2160 C.2   254  HIS254      0.2264
    114  O         23.6210   33.0750   19.0610 O.2   254  HIS254     -0.2867
    115  CB        24.2730   30.1260   20.5090 C.3   254  HIS254      0.0745
    116  CG        22.7760   30.0570   20.4230 C.ar  254  HIS254      0.0817
    117  ND1       21.9560   30.1750   21.5290 N.ar  254  HIS254     -0.2268
    118  CD2       21.9490   29.9000   19.3610 C.ar  254  HIS254      0.1154
    119  CE1       20.6940   30.0880   21.1510 C.ar  254  HIS254      0.1986
    120  NE2       20.6630   29.9180   19.8410 N.ar  254  HIS254     -0.2212
    121  N         15.6520   22.4490   13.8400 N.3   266  ALA266     -0.1245
    122  CA        15.8550   22.7320   15.2610 C.3   266  ALA266      0.1562
    123  C         14.5340   22.8120   16.0340 C.2   266  ALA266      0.2260
    124  O         13.5310   23.2800   15.4920 O.2   266  ALA266     -0.2867
    125  CB        16.6300   24.0370   15.4210 C.3   266  ALA266      0.0290
@<TRIPOS>BOND
     1     1     2    1
     2     2     3    1
     3     2     5    1
     4     4     3    2
     5     5     6    1
     6     8     6   ar
     7     8    10   ar
     8     6     7   ar
     9    10    11   ar
    10    13    14    1
    11    20    21    2
    12    20    19    1
    13     7     9   ar
    14    11     9   ar
    15    11    12    1
    16    16    15    2
    17    14    15    1
    18    14    17    1
    19    19    18    1
    20    19    22    1
    21    30    31    1
    22    22    23    1
    23    35    34    1
    24    31    34    1
    25    31    32    1
    26    80    81    1
    27    88    87    1
    28    33    32    2
    29    81    84    1
    30    81    82    1
    31    23    25   ar
    32    23    24   ar
    33    32    36   am
    34    25    27   ar
    35    84    85    1
    36    87    86    1
    37    24    26   ar
    38    82    83    2
    39    85    86    1
    40    36    37    1
    41    27    28   ar
    42    43    45   ar
    43    43    41   ar
    44    26    28   ar
    45    45    46   ar
    46    28    29    1
    47    37    40    1
    48    37    38    1
    49    40    41    1
    50    41    42   ar
    51   106   105    2
    52    46    44   ar
    53   121   122    1
    54    38    39    2
    55   105   104    1
    56    97    95   ar
    57    97    98   ar
    58    42    44   ar
    59    89    90    1
    60    95    94   ar
    61   122   125    1
    62   122   123    1
    63   100    98   ar
    64   100   102   ar
    65    98    96   ar
    66   107   104    1
    67   107   108    1
    68    74    75    2
    69    74    73    1
    70   124   123    2
    71   104   103    1
    72    76    73    1
    73    76    77    1
    74    94    96   ar
    75    94    93    1
    76    90    93    1
    77    90    91    1
    78    73    72    1
    79   102   101   ar
    80    78    77    2
    81    96    99   ar
    82   110   108    1
    83   108   109    1
    84    77    79   am
    85    91    92    2
    86   101    99   ar
    87    56    54   ar
    88    56    55   ar
    89    54    52   ar
    90   114   113    2
    91   113   112    1
    92    55    53   ar
    93   118   120   ar
    94   118   116   ar
    95    52    53   ar
    96    52    51    1
    97   120   119   ar
    98    51    48    1
    99    47    48    1
   100    65    63   ar
   101   116   115    1
   102   116   117   ar
   103   115   112    1
   104    71    70    1
   105   112   111    1
   106    70    67    1
   107    64    63   ar
   108    48    49    1
   109    63    62    1
   110    68    69    2
   111    68    67    1
   112   119   117   ar
   113    67    66    1
   114    50    49    2
   115    62    61    1
   116    58    61    1
   117    58    57    1
   118    58    59    1
   119    59    60    2
