@<TRIPOS>MOLECULE
tmp/4igqA00.pdb
 102 97 0 0 0
SMALL
GASTEIGER

@<TRIPOS>ATOM
      1  N         30.4150    1.2710   -9.4470 N.3   158  TYR158     -0.1241
      2  CA        31.7790    1.5890   -9.0210 C.3   158  TYR158      0.1605
      3  C         31.8040    2.4840   -7.7830 C.2   158  TYR158      0.2264
      4  O         31.2120    3.5710   -7.7730 O.2   158  TYR158     -0.2867
      5  CB        32.5550    2.2540  -10.1450 C.3   158  TYR158      0.0534
      6  CG        32.7140    1.4170  -11.3950 C.ar  158  TYR158     -0.0201
      7  CD1       31.8650    1.5940  -12.4870 C.ar  158  TYR158     -0.0009
      8  CD2       33.7100    0.4530  -11.4880 C.ar  158  TYR158     -0.0009
      9  CE1       32.0170    0.8420  -13.6390 C.ar  158  TYR158      0.0417
     10  CE2       33.8700   -0.3060  -12.6330 C.ar  158  TYR158      0.0417
     11  CZ        33.0220   -0.1070  -13.7070 C.ar  158  TYR158      0.1957
     12  OH        33.1820   -0.8570  -14.8530 O.3   158  TYR158     -0.2866
     13  N         41.0450    3.6410  -12.4430 N.3   166  PHE166     -0.1241
     14  CA        40.7250    2.6970  -13.4960 C.3   166  PHE166      0.1605
     15  C         41.7540    2.9080  -14.5910 C.2   166  PHE166      0.2264
     16  O         41.8130    3.9650  -15.2160 O.2   166  PHE166     -0.2867
     17  CB        39.2620    2.8160  -13.9890 C.3   166  PHE166      0.0534
     18  CG        38.7930    4.2320  -14.2430 C.ar  166  PHE166     -0.0203
     19  CD1       38.5830    4.6910  -15.5390 C.ar  166  PHE166     -0.0042
     20  CD2       38.5230    5.0890  -13.1850 C.ar  166  PHE166     -0.0042
     21  CE1       38.1260    5.9720  -15.7770 C.ar  166  PHE166     -0.0003
     22  CE2       38.0650    6.3800  -13.4140 C.ar  166  PHE166     -0.0003
     23  CZ        37.8670    6.8250  -14.7080 C.ar  166  PHE166     -0.0000
     24  N         42.0010    1.3660  -20.7400 N.3   169  HIS169     -0.1241
     25  CA        41.3470    0.2590  -21.4360 C.3   169  HIS169      0.1621
     26  C         40.3490    0.7680  -22.4710 C.2   169  HIS169      0.2264
     27  O         39.8680    1.9010  -22.3810 O.2   169  HIS169     -0.2867
     28  CB        40.6150   -0.6530  -20.4440 C.3   169  HIS169      0.0745
     29  CG        39.4650    0.0180  -19.7520 C.ar  169  HIS169      0.0817
     30  ND1       39.6300    0.8140  -18.6390 N.ar  169  HIS169     -0.2268
     31  CD2       38.1400    0.0440  -20.0340 C.ar  169  HIS169      0.1154
     32  CE1       38.4570    1.2840  -18.2550 C.ar  169  HIS169      0.1986
     33  NE2       37.5360    0.8300  -19.0840 N.ar  169  HIS169     -0.2212
     34  N         36.5470   -0.4470  -24.2650 N.3   171  GLU171     -0.1245
     35  CA        35.3860   -1.2950  -23.9860 C.3   171  GLU171      0.1567
     36  C         35.3560   -2.4860  -24.9370 C.2   171  GLU171      0.2260
     37  O         35.8670   -2.4060  -26.0550 O.2   171  GLU171     -0.2867
     38  CB        34.0860   -0.5100  -24.1150 C.3   171  GLU171      0.0388
     39  CG        34.0370    0.7280  -23.2430 C.3   171  GLU171      0.1160
     40  CD        34.4900    0.4480  -21.8210 C.2   171  GLU171      0.3649
     41  OE1       34.2240   -0.6710  -21.3150 O.co2 171  GLU171     -0.2457
     42  OE2       35.1240    1.3440  -21.2170 O.co2 171  GLU171     -0.2457
     43  N         30.5200    3.5070  -23.7850 N.3   177  SER177     -0.1217
     44  CA        30.2830    3.4060  -22.3580 C.3   177  SER177      0.1889
     45  C         29.6140    4.6990  -21.9070 C.2   177  SER177      0.2288
     46  O         30.0560    5.7970  -22.2680 O.2   177  SER177     -0.2866
     47  CB        31.5960    3.1840  -21.6020 C.3   177  SER177      0.2089
     48  OG        31.4150    3.4220  -20.2180 O.3   177  SER177     -0.2183
     49  N         28.5150    6.5480  -18.3270 N.3   179  ASN179     -0.1240
     50  CA        28.7930    6.5180  -16.8940 C.3   179  ASN179      0.1653
     51  C         28.0860    7.6710  -16.1910 C.2   179  ASN179      0.2266
     52  O         28.2100    8.8350  -16.5900 O.2   179  ASN179     -0.2867
     53  CB        30.3070    6.6310  -16.6530 C.3   179  ASN179      0.1155
     54  CG        30.6940    6.4540  -15.1850 C.2   179  ASN179      0.2627
     55  OD1       30.3550    7.2830  -14.3330 O.2   179  ASN179     -0.2716
     56  ND2       31.4300    5.3770  -14.8870 N.am  179  ASN179     -0.0877
     57  N         35.4320   12.6210  -10.2730 N.3   187  LYS187     -0.1245
     58  CA        36.2500   11.6160  -10.9430 C.3   187  LYS187      0.1561
     59  C         36.9450   12.2610  -12.1530 C.2   187  LYS187      0.2260
     60  O         36.3130   12.9380  -12.9640 O.2   187  LYS187     -0.2867
     61  CB        35.3740   10.4520  -11.3930 C.3   187  LYS187      0.0271
     62  CG        36.0730    9.4020  -12.2600 C.3   187  LYS187      0.0035
     63  CD        35.1260    8.2430  -12.5220 C.3   187  LYS187      0.0206
     64  CE        34.8830    7.4810  -11.2210 C.3   187  LYS187      0.1093
     65  NZ        33.6910    6.6130  -11.2670 N.3   187  LYS187     -0.1314
     66  N         38.8070   12.0020  -15.6630 N.3   189  TRP189     -0.1241
     67  CA        38.7980   11.1100  -16.8180 C.3   189  TRP189      0.1605
     68  C         39.8300   11.5750  -17.8190 C.2   189  TRP189      0.2264
     69  O         39.9760   12.7710  -18.0590 O.2   189  TRP189     -0.2867
     70  CB        37.4330   11.1080  -17.5040 C.3   189  TRP189      0.0550
     71  CG        36.3330   10.4680  -16.7360 C.ar  189  TRP189      0.0003
     72  CD1       35.6650   10.9890  -15.6570 C.ar  189  TRP189      0.0946
     73  CD2       35.7250    9.2030  -17.0140 C.ar  189  TRP189      0.0152
     74  NE1       34.6950   10.1120  -15.2340 N.ar  189  TRP189     -0.2442
     75  CE2       34.7040    9.0100  -16.0550 C.ar  189  TRP189      0.0810
     76  CE3       35.9490    8.2060  -17.9780 C.ar  189  TRP189      0.0012
     77  CZ2       33.9080    7.8560  -16.0270 C.ar  189  TRP189      0.0191
     78  CZ3       35.1530    7.0630  -17.9490 C.ar  189  TRP189      0.0001
     79  CH2       34.1460    6.9000  -16.9740 C.ar  189  TRP189      0.0015
     80  N         40.1220    4.9630  -22.3420 N.3   257  HIS257     -0.1241
     81  CA        40.0400    5.8740  -21.2030 C.3   257  HIS257      0.1621
     82  C         40.6600    5.3100  -19.9190 C.2   257  HIS257      0.2264
     83  O         40.8850    4.0960  -19.7900 O.2   257  HIS257     -0.2867
     84  CB        38.6260    6.4310  -20.9810 C.3   257  HIS257      0.0745
     85  CG        37.6070    5.3920  -20.6380 C.ar  257  HIS257      0.0817
     86  ND1       36.2590    5.5720  -20.8620 N.ar  257  HIS257     -0.2268
     87  CD2       37.7350    4.1650  -20.0840 C.ar  257  HIS257      0.1154
     88  CE1       35.6020    4.4930  -20.4740 C.ar  257  HIS257      0.1986
     89  NE2       36.4760    3.6240  -20.0020 N.ar  257  HIS257     -0.2212
     90  N         39.7960    8.7740   -8.7500 N.3   261  ASN261     -0.1240
     91  CA        38.8280    9.5050   -7.9360 C.3   261  ASN261      0.1653
     92  C         39.4670   10.4840   -6.9580 C.2   261  ASN261      0.2266
     93  O         40.5690   10.2630   -6.4730 O.2   261  ASN261     -0.2867
     94  CB        37.9340    8.5170   -7.1780 C.3   261  ASN261      0.1155
     95  CG        37.1910    7.6020   -8.1120 C.2   261  ASN261      0.2627
     96  OD1       36.3100    8.0440   -8.8310 O.2   261  ASN261     -0.2716
     97  ND2       37.5650    6.3260   -8.1340 N.am  261  ASN261     -0.0877
     98  N         27.7190    2.5220  -14.5850 N.3   269  ALA269     -0.1245
     99  CA        27.9770    2.6330  -16.0200 C.3   269  ALA269      0.1562
    100  C         27.4080    1.4320  -16.7830 C.2   269  ALA269      0.2260
    101  O         27.3300    0.3350  -16.2390 O.2   269  ALA269     -0.2867
    102  CB        29.4720    2.7660  -16.2740 C.3   269  ALA269      0.0290
@<TRIPOS>BOND
     1    37    36    2
     2    36    35    1
     3    34    35    1
     4    38    35    1
     5    38    39    1
     6    43    44    1
     7    39    40    1
     8    26    27    2
     9    26    25    1
    10    44    45    1
    11    44    47    1
    12    80    81    1
    13    46    45    2
    14    40    41   ar
    15    40    42   ar
    16    47    48    1
    17    25    24    1
    18    25    28    1
    19    81    84    1
    20    81    82    1
    21    84    85    1
    22    86    85   ar
    23    86    88   ar
    24    85    87   ar
    25    88    89   ar
    26    28    29    1
    27    87    89   ar
    28    31    29   ar
    29    31    33   ar
    30    82    83    2
    31    29    30   ar
    32    33    32   ar
    33    30    32   ar
    34    49    50    1
    35    69    68    2
    36    76    78   ar
    37    76    73   ar
    38    78    79   ar
    39    68    67    1
    40    70    67    1
    41    70    71    1
    42    73    71   ar
    43    73    75   ar
    44    79    77   ar
    45    50    53    1
    46    50    51    1
    47    67    66    1
    48   100   101    2
    49   100    99    1
    50    71    72   ar
    51    53    54    1
    52    52    51    2
    53   102    99    1
    54    75    77   ar
    55    75    74   ar
    56    99    98    1
    57    21    19   ar
    58    21    23   ar
    59    72    74   ar
    60    19    18   ar
    61    16    15    2
    62    54    56   am
    63    54    55    2
    64    12    11    1
    65    23    22   ar
    66    15    14    1
    67    18    17    1
    68    18    20   ar
    69    17    14    1
    70    11     9   ar
    71    11    10   ar
    72     9     7   ar
    73    14    13    1
    74    22    20   ar
    75    60    59    2
    76    10     8   ar
    77    63    62    1
    78    63    64    1
    79     7     6   ar
    80    62    61    1
    81    59    58    1
    82     8     6   ar
    83     6     5    1
    84    61    58    1
    85    65    64    1
    86    58    57    1
    87     5     2    1
    88     1     2    1
    89     2     3    1
    90    96    95    2
    91    90    91    1
    92    97    95   am
    93    95    94    1
    94    91    94    1
    95    91    92    1
    96     3     4    2
    97    92    93    2
