@<TRIPOS>MOLECULE
tmp/4igsA01.pdb
 158 160 0 0 0
SMALL
GASTEIGER

@<TRIPOS>ATOM
      1  N         15.6030   -8.7060   25.5510 N.3    21  TRP21      -0.1241
      2  CA        16.0760   -9.4250   24.3700 C.3    21  TRP21       0.1605
      3  C         17.1060  -10.4710   24.8030 C.2    21  TRP21       0.2264
      4  O         18.0420  -10.1500   25.5440 O.2    21  TRP21      -0.2867
      5  CB        16.7060   -8.4820   23.3410 C.3    21  TRP21       0.0550
      6  CG        17.3090   -9.2340   22.1680 C.ar   21  TRP21       0.0003
      7  CD1       16.7090  -10.2170   21.4250 C.ar   21  TRP21       0.0946
      8  CD2       18.6160   -9.0810   21.6260 C.ar   21  TRP21       0.0152
      9  NE1       17.5630  -10.6800   20.4520 N.ar   21  TRP21      -0.2442
     10  CE2       18.7410  -10.0000   20.5580 C.ar   21  TRP21       0.0810
     11  CE3       19.6840   -8.2360   21.9080 C.ar   21  TRP21       0.0012
     12  CZ2       19.9030  -10.1150   19.8000 C.ar   21  TRP21       0.0191
     13  CZ3       20.8380   -8.3550   21.1530 C.ar   21  TRP21       0.0001
     14  CH2       20.9370   -9.2890   20.1190 C.ar   21  TRP21       0.0015
     15  N          8.9140  -10.0220   19.0060 N.3    48  VAL48      -0.1231
     16  CA         9.9510  -10.7560   18.2910 C.3    48  VAL48       0.1692
     17  C         10.9360  -11.4430   19.2560 C.2    48  VAL48       0.2592
     18  O         11.6800  -12.3190   18.8400 O.2    48  VAL48      -0.2718
     19  CB        10.6590   -9.8190   17.2660 C.3    48  VAL48       0.0266
     20  CG1       11.6650   -8.9270   17.9450 C.3    48  VAL48       0.0020
     21  CG2       11.3070  -10.6050   16.1290 C.3    48  VAL48       0.0020
     22  N         10.9360  -11.0540   20.5380 N.am   49  TYR49      -0.1976
     23  CA        11.8300  -11.6840   21.5100 C.3    49  TYR49       0.1639
     24  C         11.3460  -13.0820   21.9260 C.2    49  TYR49       0.2290
     25  O         12.1110  -13.8380   22.5170 O.2    49  TYR49      -0.2864
     26  CB        12.0260  -10.8160   22.7640 C.3    49  TYR49       0.0560
     27  CG        12.6200   -9.4480   22.4940 C.ar   49  TYR49      -0.0198
     28  CD1       13.2150   -9.1330   21.2710 C.ar   49  TYR49      -0.0009
     29  CD2       12.5750   -8.4620   23.4730 C.ar   49  TYR49      -0.0009
     30  CE1       13.7260   -7.8640   21.0260 C.ar   49  TYR49       0.0417
     31  CE2       13.0880   -7.1860   23.2400 C.ar   49  TYR49       0.0417
     32  CZ        13.6530   -6.8880   22.0120 C.ar   49  TYR49       0.1957
     33  OH        14.1360   -5.6110   21.7890 O.3    49  TYR49      -0.2866
     34  N          6.7250   -3.6420   21.2630 N.3    78  LYS78      -0.1245
     35  CA         7.0940   -3.1720   19.9400 C.3    78  LYS78       0.1561
     36  C          6.3890   -4.0060   18.8790 C.2    78  LYS78       0.2260
     37  O          6.3030   -5.2400   18.9880 O.2    78  LYS78      -0.2867
     38  CB         8.6130   -3.2270   19.7190 C.3    78  LYS78       0.0271
     39  CG         9.4270   -2.7470   20.9220 C.3    78  LYS78       0.0035
     40  CD        10.9130   -2.6250   20.6280 C.3    78  LYS78       0.0206
     41  CE        11.7460   -2.4070   21.8890 C.3    78  LYS78       0.1093
     42  NZ        11.9350   -3.6660   22.6680 N.3    78  LYS78      -0.1314
     43  N          6.3500   -5.6880   15.4290 N.3    80  TRP80      -0.1241
     44  CA         7.3610   -6.2600   14.5610 C.3    80  TRP80       0.1605
     45  C          7.1120   -5.8710   13.0800 C.2    80  TRP80       0.2264
     46  O          6.0070   -5.4810   12.6760 O.2    80  TRP80      -0.2867
     47  CB         7.5000   -7.7980   14.7810 C.3    80  TRP80       0.0550
     48  CG         8.6420   -8.3310   13.9750 C.ar   80  TRP80       0.0003
     49  CD1        8.5700   -9.1870   12.9040 C.ar   80  TRP80       0.0946
     50  CD2       10.0070   -7.9040   14.0550 C.ar   80  TRP80       0.0152
     51  NE1        9.8060   -9.3230   12.3230 N.ar   80  TRP80      -0.2442
     52  CE2       10.7060   -8.5480   13.0080 C.ar   80  TRP80       0.0810
     53  CE3       10.7100   -7.0400   14.9100 C.ar   80  TRP80       0.0012
     54  CZ2       12.0710   -8.3620   12.8040 C.ar   80  TRP80       0.0191
     55  CZ3       12.0560   -6.8520   14.7010 C.ar   80  TRP80       0.0001
     56  CH2       12.7270   -7.5160   13.6600 C.ar   80  TRP80       0.0015
     57  N          8.9890   -1.1260   15.8050 N.3   111  HIS111     -0.1226
     58  CA        10.2850   -1.6890   16.1800 C.3   111  HIS111      0.1752
     59  C         11.4160   -1.2400   15.2360 C.2   111  HIS111      0.2596
     60  O         12.5290   -0.9660   15.6920 O.2   111  HIS111     -0.2718
     61  CB        10.1610   -3.2200   16.2370 C.3   111  HIS111      0.0759
     62  CG        11.1450   -3.8990   17.1330 C.ar  111  HIS111      0.0818
     63  ND1       10.8360   -5.0830   17.7740 N.ar  111  HIS111     -0.2268
     64  CD2       12.4250   -3.5890   17.4570 C.ar  111  HIS111      0.1154
     65  CE1       11.8960   -5.4530   18.4730 C.ar  111  HIS111      0.1986
     66  NE2       12.8680   -4.5690   18.3080 N.ar  111  HIS111     -0.2212
     67  N         11.1090   -1.2010   13.9330 N.am  112  TRP112     -0.1976
     68  CA        12.0240   -0.7020   12.9060 C.3   112  TRP112      0.1640
     69  C         11.1950    0.0260   11.8590 C.2   112  TRP112      0.2290
     70  O         10.0210   -0.2830   11.6730 O.2   112  TRP112     -0.2864
     71  CB        12.7410   -1.8660   12.1670 C.3   112  TRP112      0.0576
     72  CG        13.7080   -2.6190   13.0250 C.ar  112  TRP112      0.0006
     73  CD1       13.4060   -3.6050   13.9180 C.ar  112  TRP112      0.0946
     74  CD2       15.1220   -2.4230   13.1030 C.ar  112  TRP112      0.0152
     75  NE1       14.5450   -4.0290   14.5570 N.ar  112  TRP112     -0.2442
     76  CE2       15.6110   -3.3170   14.0740 C.ar  112  TRP112      0.0810
     77  CE3       16.0230   -1.5780   12.4460 C.ar  112  TRP112      0.0012
     78  CZ2       16.9540   -3.3830   14.4130 C.ar  112  TRP112      0.0191
     79  CZ3       17.3550   -1.6480   12.7800 C.ar  112  TRP112      0.0001
     80  CH2       17.8070   -2.5390   13.7570 C.ar  112  TRP112      0.0015
     81  N         11.5980  -12.8280    9.4260 N.3   123  PHE123     -0.1241
     82  CA        12.4270  -12.2950    8.3440 C.3   123  PHE123      0.1605
     83  C         12.1140  -13.0880    7.0710 C.2   123  PHE123      0.2264
     84  O         12.8260  -14.0270    6.7300 O.2   123  PHE123     -0.2867
     85  CB        13.9210  -12.3940    8.6730 C.3   123  PHE123      0.0534
     86  CG        14.3870  -11.3890    9.6920 C.ar  123  PHE123     -0.0203
     87  CD1       14.2450  -11.6400   11.0460 C.ar  123  PHE123     -0.0042
     88  CD2       14.9690  -10.1990    9.2960 C.ar  123  PHE123     -0.0042
     89  CE1       14.6770  -10.7270   11.9860 C.ar  123  PHE123     -0.0003
     90  CE2       15.3980   -9.2760   10.2350 C.ar  123  PHE123     -0.0003
     91  CZ        15.2510   -9.5420   11.5840 C.ar  123  PHE123     -0.0000
     92  N         14.8140    2.7460   16.1150 N.3   161  ASN161     -0.1240
     93  CA        15.7230    2.6130   14.9780 C.3   161  ASN161      0.1653
     94  C         15.3310    3.5060   13.8020 C.2   161  ASN161      0.2266
     95  O         15.6020    3.1730   12.6500 O.2   161  ASN161     -0.2867
     96  CB        15.8420    1.1600   14.5120 C.3   161  ASN161      0.1155
     97  CG        16.3260    0.2510   15.6050 C.2   161  ASN161      0.2627
     98  OD1       17.4570    0.3940   16.0740 O.2   161  ASN161     -0.2716
     99  ND2       15.4860   -0.6870   16.0210 N.am  161  ASN161     -0.0877
    100  N         19.3670    1.7530   23.9680 N.3   210  TYR210     -0.1241
    101  CA        19.4800    0.3170   24.0270 C.3   210  TYR210      0.1605
    102  C         20.9440   -0.1130   23.8480 C.2   210  TYR210      0.2264
    103  O         21.8240    0.6420   23.4640 O.2   210  TYR210     -0.2867
    104  CB        18.5290   -0.3430   23.0640 C.3   210  TYR210      0.0534
    105  CG        18.7990   -0.3880   21.5520 C.ar  210  TYR210     -0.0201
    106  CD1       19.8800   -1.0860   21.0350 C.ar  210  TYR210     -0.0009
    107  CD2       17.8440    0.0690   20.6540 C.ar  210  TYR210     -0.0009
    108  CE1       20.0450   -1.2410   19.6760 C.ar  210  TYR210      0.0417
    109  CE2       17.9820   -0.0790   19.2780 C.ar  210  TYR210      0.0417
    110  CZ        19.0660   -0.7910   18.7980 C.ar  210  TYR210      0.1957
    111  OH        19.2490   -1.0660   17.4900 O.3   210  TYR210     -0.2866
    112  N         26.2290  -12.4000   17.0960 N.3   220  TRP220     -0.1241
    113  CA        27.1720  -12.1320   16.0160 C.3   220  TRP220      0.1605
    114  C         28.4780  -11.5080   16.5010 C.2   220  TRP220      0.2264
    115  O         29.2970  -11.0680   15.6950 O.2   220  TRP220     -0.2867
    116  CB        26.5180  -11.2510   14.9500 C.3   220  TRP220      0.0550
    117  CG        26.0100   -9.9650   15.4990 C.ar  220  TRP220      0.0003
    118  CD1       26.7060   -8.7990   15.6090 C.ar  220  TRP220      0.0946
    119  CD2       24.7060   -9.7050   16.0370 C.ar  220  TRP220      0.0152
    120  NE1       25.9240   -7.8320   16.1770 N.ar  220  TRP220     -0.2442
    121  CE2       24.6900   -8.3580   16.4440 C.ar  220  TRP220      0.0810
    122  CE3       23.5500  -10.4720   16.2060 C.ar  220  TRP220      0.0012
    123  CZ2       23.5740   -7.7640   17.0180 C.ar  220  TRP220      0.0191
    124  CZ3       22.4370   -9.8710   16.7780 C.ar  220  TRP220      0.0001
    125  CH2       22.4620   -8.5310   17.1730 C.ar  220  TRP220      0.0015
    126  N         24.1580   -3.1920   16.5850 N.3   299  CYS299     -0.1221
    127  CA        22.8740   -3.6210   16.0290 C.3   299  CYS299      0.1808
    128  C         22.6470   -2.9860   14.6730 C.2   299  CYS299      0.2601
    129  O         21.8690   -2.0460   14.5530 O.2   299  CYS299     -0.2717
    130  CB        21.7230   -3.2110   16.9630 C.3   299  CYS299      0.0970
    131  SG        21.1480   -4.4460   18.1740 S.3   299  CYS299     -0.0800
    132  N         23.3290   -3.4970   13.6500 N.am  300  ALA300     -0.1965
    133  CA        23.2620   -2.9060   12.3190 C.3   300  ALA300      0.1728
    134  C         22.2910   -3.6030   11.3740 C.2   300  ALA300      0.2616
    135  O         22.0680   -3.1280   10.2600 O.2   300  ALA300     -0.2715
    136  CB        24.6430   -2.8550   11.6990 C.3   300  ALA300      0.0334
    137  N         21.7270   -4.7260   11.8180 N.am  301  LEU301     -0.1963
    138  CA        20.7370   -5.4730   11.0400 C.3   301  LEU301      0.1728
    139  C         21.2030   -5.6710    9.5960 C.2   301  LEU301      0.2616
    140  O         20.5210   -5.2920    8.6310 O.2   301  LEU301     -0.2715
    141  CB        19.3740   -4.7830   11.0950 C.3   301  LEU301      0.0311
    142  CG        18.1830   -5.6870   10.7660 C.3   301  LEU301      0.0022
    143  CD1       18.0110   -6.7670   11.8220 C.3   301  LEU301      0.0001
    144  CD2       16.9140   -4.8770   10.6220 C.3   301  LEU301      0.0001
    145  N         22.3770   -6.2750    9.4640 N.am  302  LEU302     -0.1963
    146  CA        23.0560   -6.3330    8.1830 C.3   302  LEU302      0.1728
    147  C         22.2860   -7.1130    7.1290 C.2   302  LEU302      0.2616
    148  O         22.4860   -6.8950    5.9440 O.2   302  LEU302     -0.2715
    149  CB        24.4630   -6.9070    8.3440 C.3   302  LEU302      0.0311
    150  CG        25.4470   -6.0380    9.1270 C.3   302  LEU302      0.0022
    151  CD1       26.8000   -6.7180    9.2030 C.3   302  LEU302      0.0001
    152  CD2       25.5720   -4.6570    8.4970 C.3   302  LEU302      0.0001
    153  N         21.4010   -8.0070    7.5540 N.am  303  SER303     -0.1950
    154  CA        20.6240   -8.8050    6.6110 C.3   303  SER303      0.1924
    155  C         19.6040   -7.9710    5.8530 C.2   303  SER303      0.2314
    156  O         19.0320   -8.4270    4.8600 O.2   303  SER303     -0.2863
    157  CB        19.8820   -9.9180    7.3460 C.3   303  SER303      0.2116
    158  OG        18.9010   -9.3700    8.2130 O.3   303  SER303     -0.2180
@<TRIPOS>BOND
     1   156   155    2
     2   155   154    1
     3   148   147    2
     4   154   157    1
     5   154   153    1
     6    84    83    2
     7    83    82    1
     8   147   153   am
     9   147   146    1
    10   157   158    1
    11   146   149    1
    12   146   145    1
    13   149   150    1
    14    82    85    1
    15    82    81    1
    16   152   150    1
    17   140   139    2
    18    85    86    1
    19   150   151    1
    20    88    86   ar
    21    88    90   ar
    22   145   139   am
    23   139   138    1
    24    86    87   ar
    25    90    91   ar
    26   135   134    2
    27   144   142    1
    28   142   141    1
    29   142   143    1
    30   138   141    1
    31   138   137    1
    32    87    89   ar
    33   134   137   am
    34   134   133    1
    35    91    89   ar
    36    70    69    2
    37   136   133    1
    38    69    68    1
    39    71    68    1
    40    71    72    1
    41   133   132    1
    42    51    49   ar
    43    51    52   ar
    44    77    79   ar
    45    77    74   ar
    46    95    94    2
    47    46    45    2
    48    79    80   ar
    49    54    52   ar
    50    54    56   ar
    51    49    48   ar
    52    68    67    1
    53    52    50   ar
    54    72    74   ar
    55    72    73   ar
    56    45    44    1
    57    74    76   ar
    58   132   128   am
    59    56    55   ar
    60    80    78   ar
    61    94    93    1
    62    73    75   ar
    63    67    59   am
    64    48    50   ar
    65    48    47    1
    66    50    53   ar
    67    76    78   ar
    68    76    75   ar
    69    96    93    1
    70    96    97    1
    71   129   128    2
    72    44    47    1
    73    44    43    1
    74   128   127    1
    75    55    53   ar
    76   116   117    1
    77   116   113    1
    78    93    92    1
    79    59    60    2
    80    59    58    1
    81   117   118   ar
    82   117   119   ar
    83    97    99   am
    84    97    98    2
    85   118   120   ar
    86   115   114    2
    87    57    58    1
    88   113   114    1
    89   113   112    1
    90   127   126    1
    91   127   130    1
    92   119   122   ar
    93   119   121   ar
    94    21    19    1
    95   120   121   ar
    96    58    61    1
    97   122   124   ar
    98    61    62    1
    99   121   123   ar
   100   124   125   ar
   101   130   131    1
   102   123   125   ar
   103    62    64   ar
   104    62    63   ar
   105    19    20    1
   106    19    16    1
   107    64    66   ar
   108   111   110    1
   109    63    65   ar
   110    16    15    1
   111    16    17    1
   112    66    65   ar
   113   110   109   ar
   114   110   108   ar
   115    18    17    2
   116    36    37    2
   117    36    35    1
   118    17    22   am
   119   109   107   ar
   120   108   106   ar
   121    38    35    1
   122    38    39    1
   123    12    14   ar
   124    12    10   ar
   125    35    34    1
   126    14    13   ar
   127     9    10   ar
   128     9     7   ar
   129    22    23    1
   130    10     8   ar
   131    40    39    1
   132    40    41    1
   133   107   105   ar
   134    30    28   ar
   135    30    32   ar
   136   106   105   ar
   137    13    11   ar
   138    28    27   ar
   139     7     6   ar
   140    23    24    1
   141    23    26    1
   142   105   104    1
   143     8    11   ar
   144     8     6   ar
   145    33    32    1
   146    41    42    1
   147    24    25    2
   148    32    31   ar
   149     6     5    1
   150    27    26    1
   151    27    29   ar
   152   104   101    1
   153    31    29   ar
   154     5     2    1
   155   103   102    2
   156   102   101    1
   157   100   101    1
   158     2     3    1
   159     2     1    1
   160     3     4    2
