@<TRIPOS>MOLECULE
tmp/4igtA00.pdb
 157 150 0 0 0
SMALL
GASTEIGER

@<TRIPOS>ATOM
      1  N         11.3780   12.5520   23.6390 N.3    13  GLU13      -0.1245
      2  CA        12.3090   12.6220   22.5050 C.3    13  GLU13       0.1567
      3  C         11.9780   11.3980   21.6530 C.2    13  GLU13       0.2260
      4  O         12.1610   10.2900   22.1160 O.2    13  GLU13      -0.2867
      5  CB        13.7540   12.5150   23.0410 C.3    13  GLU13       0.0388
      6  CG        14.8890   12.7590   22.0710 C.3    13  GLU13       0.1160
      7  CD        15.2720   14.2160   22.0350 C.2    13  GLU13       0.3649
      8  OE1       15.9840   14.7150   22.9500 O.co2  13  GLU13      -0.2457
      9  OE2       14.8130   14.8820   21.0990 O.co2  13  GLU13      -0.2457
     10  N         12.3550    7.5580   21.4760 N.3    16  TYR16      -0.1241
     11  CA        12.5920    7.0050   22.8100 C.3    16  TYR16       0.1605
     12  C         11.3650    7.0490   23.7080 C.2    16  TYR16       0.2264
     13  O         11.0040    6.0410   24.3270 O.2    16  TYR16      -0.2867
     14  CB        13.7660    7.7350   23.4680 C.3    16  TYR16       0.0534
     15  CG        15.0450    7.5300   22.7070 C.ar   16  TYR16      -0.0201
     16  CD1       15.7840    6.3660   22.8770 C.ar   16  TYR16      -0.0009
     17  CD2       15.5150    8.4850   21.8260 C.ar   16  TYR16      -0.0009
     18  CE1       16.9400    6.1520   22.1890 C.ar   16  TYR16       0.0417
     19  CE2       16.6980    8.2760   21.1310 C.ar   16  TYR16       0.0417
     20  CZ        17.3900    7.1080   21.3240 C.ar   16  TYR16       0.1957
     21  OH        18.5640    6.8800   20.6320 O.3    16  TYR16      -0.2866
     22  N         19.3780   16.9660   29.9130 N.3    61  TYR61      -0.1241
     23  CA        20.0000   15.6770   30.1650 C.3    61  TYR61       0.1605
     24  C         20.8410   15.6990   31.4400 C.2    61  TYR61       0.2264
     25  O         20.5890   14.9200   32.3440 O.2    61  TYR61      -0.2867
     26  CB        20.7850   15.2340   28.9200 C.3    61  TYR61       0.0534
     27  CG        19.8550   14.7650   27.8160 C.ar   61  TYR61      -0.0201
     28  CD1       19.1840   15.6660   27.0040 C.ar   61  TYR61      -0.0009
     29  CD2       19.6240   13.4180   27.6140 C.ar   61  TYR61      -0.0009
     30  CE1       18.2930   15.2270   26.0370 C.ar   61  TYR61       0.0417
     31  CE2       18.7400   12.9730   26.6440 C.ar   61  TYR61       0.0417
     32  CZ        18.0830   13.8790   25.8560 C.ar   61  TYR61       0.1957
     33  OH        17.2140   13.4080   24.8940 O.3    61  TYR61      -0.2866
     34  N         17.9830    8.2630   26.5730 N.3    89  PRO89      -0.2102
     35  CA        19.2330    8.2640   25.7930 C.3    89  PRO89       0.1504
     36  C         20.2640    9.2100   26.4540 C.2    89  PRO89       0.2576
     37  O         20.5780   10.2960   25.9490 O.2    89  PRO89      -0.2718
     38  CB        18.7700    8.7370   24.4090 C.3    89  PRO89       0.0282
     39  CG        17.5520    9.5830   24.7000 C.3    89  PRO89       0.0208
     40  CD        16.8670    8.8960   25.8440 C.3    89  PRO89       0.0893
     41  N         20.7430    8.7840   27.6190 N.am   90  LEU90      -0.1966
     42  CA        21.6240    9.5760   28.4650 C.3    90  LEU90       0.1728
     43  C         23.0500    9.0730   28.2860 C.2    90  LEU90       0.2616
     44  O         23.3870    7.9430   28.6310 O.2    90  LEU90      -0.2715
     45  CB        21.2130    9.4250   29.9240 C.3    90  LEU90       0.0311
     46  CG        21.9950   10.2550   30.9510 C.3    90  LEU90       0.0022
     47  CD1       21.8240   11.7630   30.7200 C.3    90  LEU90       0.0001
     48  CD2       21.5570    9.8930   32.3700 C.3    90  LEU90       0.0001
     49  N         23.8920    9.9150   27.7200 N.am   91  THR91      -0.1951
     50  CA        25.2530    9.5320   27.3800 C.3    91  THR91       0.1897
     51  C         26.0990    9.3720   28.6320 C.2    91  THR91       0.2313
     52  O         26.1160   10.2180   29.5200 O.2    91  THR91      -0.2863
     53  CB        25.8360   10.5630   26.4410 C.3    91  THR91       0.1794
     54  OG1       24.9530   10.6410   25.3190 O.3    91  THR91      -0.2208
     55  CG2       27.2540   10.1920   26.0150 C.3    91  THR91       0.0378
     56  N         29.6080   13.0430   34.3570 N.3    96  ARG96      -0.1245
     57  CA        28.3970   12.4730   34.9360 C.3    96  ARG96       0.1563
     58  C         28.7020   11.2520   35.7970 C.2    96  ARG96       0.2260
     59  O         28.1050   11.0710   36.8560 O.2    96  ARG96      -0.2867
     60  CB        27.3940   12.1300   33.8400 C.3    96  ARG96       0.0307
     61  CG        26.8320   13.3340   33.1240 C.3    96  ARG96       0.0489
     62  CD        26.0050   12.9100   31.9260 C.3    96  ARG96       0.2205
     63  NE        25.4110   14.0620   31.2530 N.pl3  96  ARG96      -0.0865
     64  CZ        24.8770   14.0120   30.0400 C.cat  96  ARG96       0.5346
     65  NH1       24.8900   12.8840   29.3430 N.pl3  96  ARG96       0.1354
     66  NH2       24.3150   15.0900   29.5190 N.pl3  96  ARG96       0.1354
     67  N         23.1010   21.3070   19.0540 N.3   138  LEU138     -0.1245
     68  CA        22.1970   21.7990   20.0690 C.3   138  LEU138      0.1561
     69  C         22.9150   22.7410   21.0300 C.2   138  LEU138      0.2260
     70  O         24.1400   22.6840   21.2020 O.2   138  LEU138     -0.2867
     71  CB        21.6620   20.6370   20.8770 C.3   138  LEU138      0.0270
     72  CG        20.6490   19.8020   20.1470 C.3   138  LEU138      0.0019
     73  CD1       20.4930   18.4650   20.8350 C.3   138  LEU138      0.0001
     74  CD2       19.3330   20.5440   20.1030 C.3   138  LEU138      0.0001
     75  N         22.6380   22.6210   24.2060 N.3   140  SER140     -0.1202
     76  CA        22.6850   21.9190   25.4840 C.3   140  SER140      0.2020
     77  C         22.9190   20.4300   25.1990 C.2   140  SER140      0.2619
     78  O         22.4500   19.9450   24.1840 O.2   140  SER140     -0.2717
     79  CB        21.3520   22.1090   26.2160 C.3   140  SER140      0.2103
     80  OG        21.3400   21.3990   27.4300 O.3   140  SER140     -0.2182
     81  N         23.6210   19.7090   26.0780 N.am  141  GLY141     -0.1942
     82  CA        23.8180   18.2780   25.9280 C.3   141  GLY141      0.2014
     83  C         25.2550   17.8620   25.6820 C.2   141  GLY141      0.2640
     84  O         26.1540   18.6990   25.5070 O.2   141  GLY141     -0.2714
     85  N         25.4620   16.5580   25.6340 N.am  142  SER142     -0.1935
     86  CA        26.7970   16.0150   25.5250 C.3   142  SER142      0.2055
     87  C         27.4950   16.2790   24.2030 C.2   142  SER142      0.2644
     88  O         28.7190   16.3430   24.1660 O.2   142  SER142     -0.2714
     89  CB        26.8200   14.5140   25.8690 C.3   142  SER142      0.2130
     90  OG        26.0720   13.7200   24.9740 O.3   142  SER142     -0.2179
     91  N         26.7530   16.4430   23.1180 N.am  143  THR143     -0.1936
     92  CA        27.3970   16.7400   21.8390 C.3   143  THR143      0.2028
     93  C         28.0370   18.1320   21.8830 C.2   143  THR143      0.2642
     94  O         29.2080   18.3050   21.5380 O.2   143  THR143     -0.2714
     95  CB        26.4220   16.6010   20.6830 C.3   143  THR143      0.1808
     96  OG1       25.9680   15.2460   20.6260 O.3   143  THR143     -0.2208
     97  CG2       27.0850   16.9680   19.3730 C.3   143  THR143      0.0379
     98  N         27.2850   19.1230   22.3350 N.am  144  LYS144     -0.1977
     99  CA        27.8520   20.4520   22.5050 C.3   144  LYS144      0.1596
    100  C         29.0700   20.4250   23.4200 C.2   144  LYS144      0.2287
    101  O         30.1150   21.0140   23.1280 O.2   144  LYS144     -0.2864
    102  CB        26.7940   21.3980   23.0440 C.3   144  LYS144      0.0298
    103  CG        27.2940   22.8190   23.2120 C.3   144  LYS144      0.0038
    104  CD        26.2680   23.6630   23.9490 C.3   144  LYS144      0.0206
    105  CE        26.8310   24.9950   24.3930 C.3   144  LYS144      0.1093
    106  NZ        25.8360   25.7610   25.1820 N.3   144  LYS144     -0.1314
    107  N         16.1380   18.9820   18.7530 N.3   174  THR174     -0.1218
    108  CA        16.4030   18.1040   17.6260 C.3   174  THR174      0.1862
    109  C         15.5130   18.4560   16.4390 C.2   174  THR174      0.2287
    110  O         15.9780   18.5340   15.2990 O.2   174  THR174     -0.2866
    111  CB        16.1560   16.6260   18.0130 C.3   174  THR174      0.1770
    112  OG1       17.0470   16.2370   19.0670 O.3   174  THR174     -0.2211
    113  CG2       16.3300   15.7240   16.7880 C.3   174  THR174      0.0375
    114  N         24.9580   15.6280   15.5710 N.3   192  LEU192     -0.1231
    115  CA        24.0470   14.9930   16.5180 C.3   192  LEU192      0.1693
    116  C         24.4470   13.5380   16.6930 C.2   192  LEU192      0.2591
    117  O         25.2550   12.9920   15.9300 O.2   192  LEU192     -0.2718
    118  CB        22.5690   15.0970   16.0480 C.3   192  LEU192      0.0284
    119  CG        22.0990   14.1100   14.9800 C.3   192  LEU192      0.0019
    120  CD1       20.5860   14.2180   14.7940 C.3   192  LEU192      0.0001
    121  CD2       22.8060   14.2930   13.6430 C.3   192  LEU192      0.0001
    122  N         23.8490   12.8750   17.6640 N.am  193  GLU193     -0.1979
    123  CA        24.2010   11.4960   17.9260 C.3   193  GLU193      0.1602
    124  C         23.7180   10.5870   16.7960 C.2   193  GLU193      0.2287
    125  O         22.6400   10.7880   16.2170 O.2   193  GLU193     -0.2864
    126  CB        23.6870   11.0630   19.3120 C.3   193  GLU193      0.0415
    127  CG        24.4630   11.8280   20.3860 C.3   193  GLU193      0.1163
    128  CD        24.0020   11.6270   21.8130 C.2   193  GLU193      0.3649
    129  OE1       22.8260   11.2900   22.0460 O.co2 193  GLU193     -0.2457
    130  OE2       24.8630   11.7980   22.7050 O.co2 193  GLU193     -0.2457
    131  N         22.5070    7.6520   16.5820 N.3   195  THR195     -0.1203
    132  CA        21.1990    7.0580   16.8280 C.3   195  THR195      0.1994
    133  C         20.0830    7.9260   16.2720 C.2   195  THR195      0.2617
    134  O         19.1950    7.4480   15.5450 O.2   195  THR195     -0.2717
    135  CB        21.0290    6.9010   18.3640 C.3   195  THR195      0.1784
    136  OG1       21.5390    8.0980   18.9890 O.3   195  THR195     -0.2211
    137  CG2       21.8130    5.6980   18.8720 C.3   195  THR195      0.0376
    138  N         20.0990    9.2010   16.6200 N.am  196  MET196     -0.1979
    139  CA        19.0630   10.1060   16.1440 C.3   196  MET196      0.1605
    140  C         19.1890   10.3070   14.6340 C.2   196  MET196      0.2287
    141  O         18.1900   10.3570   13.9310 O.2   196  MET196     -0.2864
    142  CB        19.1460   11.4450   16.8800 C.3   196  MET196      0.0413
    143  CG        18.0060   12.3890   16.5650 C.3   196  MET196      0.0598
    144  SD        16.3790   11.7300   16.9170 S.3   196  MET196     -0.1393
    145  CE        16.4470   11.8590   18.6860 C.3   196  MET196      0.0692
    146  N         24.8920    4.9760   25.7300 N.3   220  TYR220     -0.1241
    147  CA        23.8650    5.4060   26.6780 C.3   220  TYR220      0.1605
    148  C         23.7930    4.4040   27.8110 C.2   220  TYR220      0.2264
    149  O         23.8750    3.1920   27.5750 O.2   220  TYR220     -0.2867
    150  CB        22.4840    5.4290   26.0210 C.3   220  TYR220      0.0534
    151  CG        22.3180    6.3660   24.8530 C.ar  220  TYR220     -0.0201
    152  CD1       22.9380    7.6100   24.8060 C.ar  220  TYR220     -0.0009
    153  CD2       21.4950    6.0150   23.7900 C.ar  220  TYR220     -0.0009
    154  CE1       22.7540    8.4650   23.7430 C.ar  220  TYR220      0.0417
    155  CE2       21.3000    6.8700   22.7240 C.ar  220  TYR220      0.0417
    156  CZ        21.9320    8.0850   22.7060 C.ar  220  TYR220      0.1957
    157  OH        21.7340    8.9020   21.6240 O.3   220  TYR220     -0.2866
@<TRIPOS>BOND
     1   121   119    1
     2   141   140    2
     3   140   139    1
     4   120   119    1
     5   119   118    1
     6   110   109    2
     7   134   133    2
     8   114   115    1
     9   117   116    2
    10   118   115    1
    11   139   138    1
    12   139   142    1
    13   125   124    2
    14   133   138   am
    15   133   132    1
    16   109   108    1
    17   115   116    1
    18   143   142    1
    19   143   144    1
    20   131   132    1
    21   116   122   am
    22   113   111    1
    23   124   123    1
    24   132   135    1
    25   144   145    1
    26   108   111    1
    27   108   107    1
    28   122   123    1
    29   123   126    1
    30   111   112    1
    31   135   137    1
    32   135   136    1
    33    67    68    1
    34   126   127    1
    35    97    95    1
    36    68    71    1
    37    68    69    1
    38    74    72    1
    39    72    73    1
    40    72    71    1
    41   127   128    1
    42    96    95    1
    43    21    20    1
    44    95    92    1
    45    69    70    2
    46     9     7   ar
    47    19    20   ar
    48    19    17   ar
    49    20    18   ar
    50    10    11    1
    51    94    93    2
    52   157   156    1
    53     3     4    2
    54     3     2    1
    55   128   129   ar
    56   128   130   ar
    57    17    15   ar
    58    92    93    1
    59    92    91    1
    60    93    98   am
    61     7     6    1
    62     7     8   ar
    63     6     5    1
    64    18    16   ar
    65    98    99    1
    66     2     5    1
    67     2     1    1
    68    99   102    1
    69    99   100    1
    70   156   155   ar
    71   156   154   ar
    72    15    16   ar
    73    15    14    1
    74   155   153   ar
    75    11    14    1
    76    11    12    1
    77   102   103    1
    78    91    87   am
    79   101   100    2
    80   103   104    1
    81    12    13    2
    82   154   152   ar
    83   153   151   ar
    84   104   105    1
    85    88    87    2
    86    78    77    2
    87    87    86    1
    88    75    76    1
    89   105   106    1
    90    38    39    1
    91    38    35    1
    92    39    40    1
    93   152   151   ar
    94   151   150    1
    95    33    32    1
    96    90    89    1
    97    77    76    1
    98    77    81   am
    99    54    53    1
   100    76    79    1
   101    84    83    2
   102    86    85    1
   103    86    89    1
   104    85    83   am
   105    83    82    1
   106   146   147    1
   107    35    36    1
   108    35    34    1
   109    40    34    1
   110    32    30   ar
   111    32    31   ar
   112    82    81    1
   113    37    36    2
   114    55    53    1
   115   150   147    1
   116    30    28   ar
   117    79    80    1
   118    53    50    1
   119    36    41   am
   120    31    29   ar
   121   147   148    1
   122    28    27   ar
   123    50    49    1
   124    50    51    1
   125   149   148    2
   126    29    27   ar
   127    41    42    1
   128    49    43   am
   129    27    26    1
   130    43    42    1
   131    43    44    2
   132    42    45    1
   133    51    52    2
   134    26    23    1
   135    65    64    1
   136    66    64    1
   137    22    23    1
   138    45    46    1
   139    64    63    2
   140    23    24    1
   141    47    46    1
   142    46    48    1
   143    63    62    1
   144    24    25    2
   145    62    61    1
   146    61    60    1
   147    60    57    1
   148    56    57    1
   149    57    58    1
   150    58    59    2
