@<TRIPOS>MOLECULE
tmp/4ih2A00.pdb
 153 144 0 0 0
SMALL
GASTEIGER

@<TRIPOS>ATOM
      1  N        -24.9870  -27.2090  -14.6760 N.3    23  PHE23      -0.1241
      2  CA       -24.0650  -26.6000  -15.5680 C.3    23  PHE23       0.1605
      3  C        -24.5680  -26.3100  -16.9700 C.2    23  PHE23       0.2264
      4  O        -24.0400  -25.3990  -17.6270 O.2    23  PHE23      -0.2867
      5  CB       -22.7510  -27.3380  -15.5920 C.3    23  PHE23       0.0534
      6  CG       -21.9040  -26.9830  -14.4530 C.ar   23  PHE23      -0.0203
      7  CD1      -21.9900  -27.6780  -13.2800 C.ar   23  PHE23      -0.0042
      8  CD2      -21.0060  -25.9150  -14.5570 C.ar   23  PHE23      -0.0042
      9  CE1      -21.1590  -27.3700  -12.2060 C.ar   23  PHE23      -0.0003
     10  CE2      -20.2130  -25.5720  -13.4890 C.ar   23  PHE23      -0.0003
     11  CZ       -20.3010  -26.2960  -12.3010 C.ar   23  PHE23      -0.0000
     12  N        -27.5910  -22.8140  -14.4290 N.3    27  LEU27      -0.1245
     13  CA       -26.2800  -22.3930  -13.8920 C.3    27  LEU27       0.1561
     14  C        -26.4100  -21.3830  -12.7350 C.2    27  LEU27       0.2260
     15  O        -25.5980  -21.3640  -11.8330 O.2    27  LEU27      -0.2867
     16  CB       -25.3460  -21.9210  -15.0580 C.3    27  LEU27       0.0270
     17  CG       -23.8310  -21.7490  -14.8080 C.3    27  LEU27       0.0019
     18  CD1      -23.1920  -23.0710  -14.5160 C.3    27  LEU27       0.0001
     19  CD2      -23.0910  -21.1040  -15.9750 C.3    27  LEU27       0.0001
     20  N        -25.8550  -22.0710   -8.9070 N.3    30  ILE30      -0.1245
     21  CA       -24.6080  -22.1130   -8.1590 C.3    30  ILE30       0.1561
     22  C        -24.3880  -20.9980   -7.1740 C.2    30  ILE30       0.2260
     23  O        -23.5880  -21.1920   -6.2470 O.2    30  ILE30      -0.2867
     24  CB       -23.3350  -22.3720   -9.0150 C.3    30  ILE30       0.0252
     25  CG1      -22.9580  -21.2480   -9.8930 C.3    30  ILE30       0.0019
     26  CG2      -23.4530  -23.6530   -9.8790 C.3    30  ILE30       0.0019
     27  CD1      -21.6120  -21.5920  -10.5410 C.3    30  ILE30       0.0001
     28  N        -19.5900  -17.8360   -5.2990 N.3    38  ILE38      -0.1245
     29  CA       -20.2980  -17.2470   -6.4450 C.3    38  ILE38       0.1561
     30  C        -21.3690  -16.2960   -5.9590 C.2    38  ILE38       0.2260
     31  O        -22.3080  -16.7410   -5.3180 O.2    38  ILE38      -0.2867
     32  CB       -20.9770  -18.3390   -7.3050 C.3    38  ILE38       0.0252
     33  CG1      -19.9630  -19.3950   -7.7840 C.3    38  ILE38       0.0019
     34  CG2      -21.7960  -17.7430   -8.4810 C.3    38  ILE38       0.0019
     35  CD1      -18.9890  -18.9730   -8.8520 C.3    38  ILE38       0.0001
     36  N        -20.4640  -13.7080  -14.6610 N.3    57  PHE57      -0.1241
     37  CA       -20.2560  -14.2360  -13.3120 C.3    57  PHE57       0.1605
     38  C        -19.6570  -13.1700  -12.4120 C.2    57  PHE57       0.2264
     39  O        -18.6880  -12.5190  -12.8350 O.2    57  PHE57      -0.2867
     40  CB       -19.2620  -15.3720  -13.3870 C.3    57  PHE57       0.0534
     41  CG       -19.7650  -16.5310  -14.1750 C.ar   57  PHE57      -0.0203
     42  CD1      -20.4750  -17.5150  -13.5650 C.ar   57  PHE57      -0.0042
     43  CD2      -19.5180  -16.6190  -15.5590 C.ar   57  PHE57      -0.0042
     44  CE1      -20.9570  -18.5860  -14.3150 C.ar   57  PHE57      -0.0003
     45  CE2      -19.9890  -17.6700  -16.2970 C.ar   57  PHE57      -0.0003
     46  CZ       -20.7100  -18.6530  -15.6730 C.ar   57  PHE57      -0.0000
     47  N        -17.8380  -13.3710   -8.7840 N.3    59  TYR59      -0.1241
     48  CA       -17.2770  -14.4160   -7.9330 C.3    59  TYR59       0.1605
     49  C        -16.1510  -13.8740   -7.0440 C.2    59  TYR59       0.2264
     50  O        -15.6230  -12.7770   -7.2920 O.2    59  TYR59      -0.2867
     51  CB       -16.8200  -15.6580   -8.7690 C.3    59  TYR59       0.0534
     52  CG       -15.6430  -15.4540   -9.6990 C.ar   59  TYR59      -0.0201
     53  CD1      -15.7940  -14.7960  -10.9090 C.ar   59  TYR59      -0.0009
     54  CD2      -14.3850  -15.9110   -9.3650 C.ar   59  TYR59      -0.0009
     55  CE1      -14.7220  -14.6140  -11.7590 C.ar   59  TYR59       0.0417
     56  CE2      -13.3040  -15.7400  -10.2070 C.ar   59  TYR59       0.0417
     57  CZ       -13.4830  -15.1000  -11.4060 C.ar   59  TYR59       0.1957
     58  OH       -12.4220  -14.9160  -12.2340 O.3    59  TYR59      -0.2866
     59  N        -16.3110  -12.1790  -14.6750 N.3    68  ALA68      -0.1245
     60  CA       -16.0070  -12.7070  -15.9880 C.3    68  ALA68       0.1562
     61  C        -17.2700  -12.7300  -16.8260 C.2    68  ALA68       0.2260
     62  O        -18.3590  -12.9320  -16.2990 O.2    68  ALA68      -0.2867
     63  CB       -15.4650  -14.1080  -15.8540 C.3    68  ALA68       0.0290
     64  N        -18.4840  -14.9510  -20.1070 N.3    70  ASP70      -0.1239
     65  CA       -18.2080  -16.1950  -20.8010 C.3    70  ASP70       0.1674
     66  C        -19.2580  -16.4420  -21.8750 C.2    70  ASP70       0.2266
     67  O        -20.4620  -16.0910  -21.6990 O.2    70  ASP70      -0.2867
     68  CB       -18.3550  -17.4170  -19.8930 C.3    70  ASP70       0.1410
     69  CG       -17.3190  -17.5240  -18.7800 C.2    70  ASP70       0.3668
     70  OD1      -16.5820  -16.5750  -18.4680 O.co2  70  ASP70      -0.2456
     71  OD2      -17.2850  -18.6240  -18.2000 O.co2  70  ASP70      -0.2456
     72  N        -16.9830  -23.4440  -21.9130 N.3    84  PHE84      -0.1241
     73  CA       -17.0890  -22.0260  -21.6350 C.3    84  PHE84       0.1605
     74  C        -15.8170  -21.3590  -22.1010 C.2    84  PHE84       0.2264
     75  O        -14.7080  -21.8660  -21.8530 O.2    84  PHE84      -0.2867
     76  CB       -17.2360  -21.7840  -20.1100 C.3    84  PHE84       0.0534
     77  CG       -18.4650  -22.3760  -19.5110 C.ar   84  PHE84      -0.0203
     78  CD1      -19.6560  -21.6530  -19.4660 C.ar   84  PHE84      -0.0042
     79  CD2      -18.4520  -23.6540  -19.0160 C.ar   84  PHE84      -0.0042
     80  CE1      -20.7890  -22.1780  -18.9540 C.ar   84  PHE84      -0.0003
     81  CE2      -19.6030  -24.2150  -18.4880 C.ar   84  PHE84      -0.0003
     82  CZ       -20.7840  -23.4640  -18.4380 C.ar   84  PHE84      -0.0000
     83  N        -13.8490  -17.6880  -21.7540 N.3    86  ILE86      -0.1245
     84  CA       -13.8920  -16.4480  -21.0230 C.3    86  ILE86       0.1561
     85  C        -13.4610  -15.3650  -21.9910 C.2    86  ILE86       0.2260
     86  O        -12.3870  -15.4340  -22.5690 O.2    86  ILE86      -0.2867
     87  CB       -13.0400  -16.4680  -19.7330 C.3    86  ILE86       0.0252
     88  CG1      -13.4680  -17.6700  -18.8570 C.3    86  ILE86       0.0019
     89  CG2      -13.0940  -15.1020  -19.0130 C.3    86  ILE86       0.0019
     90  CD1      -12.5760  -17.9930  -17.6890 C.3    86  ILE86       0.0001
     91  N         -9.4860  -12.4230  -15.2510 N.3    91  LEU91      -0.1245
     92  CA        -8.6010  -13.4400  -15.8710 C.3    91  LEU91       0.1561
     93  C         -7.9230  -12.9930  -17.1770 C.2    91  LEU91       0.2260
     94  O         -6.7770  -13.3850  -17.4620 O.2    91  LEU91      -0.2867
     95  CB        -9.3670  -14.7710  -16.1160 C.3    91  LEU91       0.0270
     96  CG        -9.5150  -15.7100  -14.9390 C.3    91  LEU91       0.0019
     97  CD1      -10.6710  -16.7070  -15.1320 C.3    91  LEU91       0.0001
     98  CD2       -8.2200  -16.4480  -14.6460 C.3    91  LEU91       0.0001
     99  N        -12.7790  -23.3580  -20.3880 N.3   100  ILE100     -0.1245
    100  CA       -13.0640  -24.2580  -19.3460 C.3   100  ILE100      0.1561
    101  C        -14.0350  -25.2900  -19.8580 C.2   100  ILE100      0.2260
    102  O        -15.1040  -24.9520  -20.2740 O.2   100  ILE100     -0.2867
    103  CB       -13.6720  -23.5500  -18.1000 C.3   100  ILE100      0.0252
    104  CG1      -12.6620  -22.5850  -17.4830 C.3   100  ILE100      0.0019
    105  CG2      -14.0540  -24.5770  -17.0290 C.3   100  ILE100      0.0019
    106  CD1      -13.2290  -21.6590  -16.4350 C.3   100  ILE100      0.0001
    107  N        -12.8920  -31.4070  -14.9050 N.3   115  TRP115     -0.1241
    108  CA       -12.6970  -30.0200  -15.2580 C.3   115  TRP115      0.1605
    109  C        -11.4410  -29.9650  -16.1000 C.2   115  TRP115      0.2264
    110  O        -10.4250  -30.5220  -15.6630 O.2   115  TRP115     -0.2867
    111  CB       -12.4690  -29.1920  -13.9940 C.3   115  TRP115      0.0550
    112  CG       -13.6520  -29.0000  -13.1360 C.ar  115  TRP115      0.0003
    113  CD1      -14.0770  -29.7990  -12.1020 C.ar  115  TRP115      0.0946
    114  CD2      -14.6260  -27.8860  -13.1950 C.ar  115  TRP115      0.0152
    115  NE1      -15.2260  -29.3210  -11.5550 N.ar  115  TRP115     -0.2442
    116  CE2      -15.6020  -28.1510  -12.1530 C.ar  115  TRP115      0.0810
    117  CE3      -14.7710  -26.7740  -13.9810 C.ar  115  TRP115      0.0012
    118  CZ2      -16.6690  -27.3300  -11.9220 C.ar  115  TRP115      0.0191
    119  CZ3      -15.8380  -25.8900  -13.7120 C.ar  115  TRP115      0.0001
    120  CH2      -16.7850  -26.1860  -12.7080 C.ar  115  TRP115      0.0015
    121  N         -7.6650  -21.1490   -9.5160 N.3   132  LEU132     -0.1245
    122  CA        -8.9230  -21.3210  -10.2100 C.3   132  LEU132      0.1561
    123  C         -9.3960  -22.7450  -10.2070 C.2   132  LEU132      0.2260
    124  O        -10.5560  -22.9930  -10.0620 O.2   132  LEU132     -0.2867
    125  CB        -8.7890  -20.8280  -11.6630 C.3   132  LEU132      0.0270
    126  CG       -10.1240  -20.6800  -12.3530 C.3   132  LEU132      0.0019
    127  CD1      -10.9500  -19.6590  -11.6040 C.3   132  LEU132      0.0001
    128  CD2       -9.9370  -20.2650  -13.8160 C.3   132  LEU132      0.0001
    129  N        -10.7670  -23.5040   -6.9380 N.3   135  PHE135     -0.1227
    130  CA       -12.0680  -22.8220   -6.8690 C.3   135  PHE135      0.1736
    131  C        -13.1420  -23.7150   -7.5010 C.2   135  PHE135      0.2595
    132  O        -14.1950  -23.9220   -6.8930 O.2   135  PHE135     -0.2718
    133  CB       -11.9250  -21.4610   -7.5330 C.3   135  PHE135      0.0547
    134  CG       -13.2070  -20.6840   -7.7220 C.ar  135  PHE135     -0.0202
    135  CD1      -13.9560  -20.8340   -8.8630 C.ar  135  PHE135     -0.0042
    136  CD2      -13.5990  -19.7520   -6.8000 C.ar  135  PHE135     -0.0042
    137  CE1      -15.1130  -20.1100   -9.0470 C.ar  135  PHE135     -0.0003
    138  CE2      -14.7600  -19.0230   -6.9650 C.ar  135  PHE135     -0.0003
    139  CZ       -15.4990  -19.1960   -8.0980 C.ar  135  PHE135     -0.0000
    140  N        -12.8730  -24.2310   -8.7200 N.am  136  CYS136     -0.1970
    141  CA       -13.8070  -25.0920   -9.3820 C.3   136  CYS136      0.1712
    142  C        -14.1050  -26.3620   -8.5870 C.2   136  CYS136      0.2296
    143  O        -15.2380  -26.7520   -8.5400 O.2   136  CYS136     -0.2864
    144  CB       -13.4000  -25.4270  -10.8210 C.3   136  CYS136      0.0983
    145  SG       -13.3510  -23.9570  -11.8460 S.3   136  CYS136     -0.0798
    146  N        -16.4570  -25.5420   -5.7040 N.3   139  ILE139     -0.1245
    147  CA       -17.8770  -25.3790   -6.1560 C.3   139  ILE139      0.1561
    148  C        -18.5300  -26.7830   -6.3530 C.2   139  ILE139      0.2260
    149  O        -19.7020  -27.0070   -6.0610 O.2   139  ILE139     -0.2867
    150  CB       -17.9600  -24.5600   -7.4400 C.3   139  ILE139      0.0252
    151  CG1      -17.5110  -23.1140   -7.1520 C.3   139  ILE139      0.0019
    152  CG2      -19.4320  -24.4970   -7.9660 C.3   139  ILE139      0.0019
    153  CD1      -17.3330  -22.3430   -8.4270 C.3   139  ILE139      0.0001
@<TRIPOS>BOND
     1    86    85    2
     2    74    75    2
     3    74    73    1
     4    85    84    1
     5    72    73    1
     6    66    67    2
     7    66    65    1
     8    83    84    1
     9    73    76    1
    10    84    87    1
    11    65    64    1
    12    65    68    1
    13    99   100    1
    14   102   101    2
    15    76    77    1
    16    68    69    1
    17   101   100    1
    18    87    89    1
    19    87    88    1
    20    77    78   ar
    21    77    79   ar
    22    78    80   ar
    23   100   103    1
    24    79    81   ar
    25    80    82   ar
    26    88    90    1
    27    69    70   ar
    28    69    71   ar
    29    81    82   ar
    30   103   104    1
    31   103   105    1
    32     4     3    2
    33   104   106    1
    34    94    93    2
    35    93    92    1
    36     3     2    1
    37    61    62    2
    38    61    60    1
    39    45    46   ar
    40    45    43   ar
    41    95    92    1
    42    95    96    1
    43   109   110    2
    44   109   108    1
    45    60    63    1
    46    60    59    1
    47    19    17    1
    48    92    91    1
    49    46    44   ar
    50     5     2    1
    51     5     6    1
    52     2     1    1
    53    43    41   ar
    54   108   107    1
    55   108   111    1
    56    97    96    1
    57    16    17    1
    58    16    13    1
    59    96    98    1
    60    17    18    1
    61    36    37    1
    62     8     6   ar
    63     8    10   ar
    64     6     7   ar
    65    12    13    1
    66    44    42   ar
    67    41    42   ar
    68    41    40    1
    69   111   112    1
    70   117   119   ar
    71   117   114   ar
    72    13    14    1
    73   128   126    1
    74   119   120   ar
    75    10    11   ar
    76    40    37    1
    77    37    38    1
    78     7     9   ar
    79   114   112   ar
    80   114   116   ar
    81   112   113   ar
    82    39    38    2
    83    14    15    2
    84   120   118   ar
    85   126   125    1
    86   126   127    1
    87    11     9   ar
    88    58    57    1
    89   116   118   ar
    90   116   115   ar
    91   113   115   ar
    92   145   144    1
    93    55    57   ar
    94    55    53   ar
    95   125   122    1
    96    57    56   ar
    97    53    52   ar
    98   144   141    1
    99    27    25    1
   100   122   123    1
   101   122   121    1
   102    56    54   ar
   103   123   124    2
   104    25    24    1
   105    26    24    1
   106    52    54   ar
   107    52    51    1
   108   141   140    1
   109   141   142    1
   110   137   135   ar
   111   137   139   ar
   112    24    21    1
   113    20    21    1
   114   135   134   ar
   115    35    33    1
   116    47    48    1
   117    51    48    1
   118   140   131   am
   119   142   143    2
   120    34    32    1
   121   153   151    1
   122    21    22    1
   123   139   138   ar
   124   152   150    1
   125    48    49    1
   126    33    32    1
   127   134   133    1
   128   134   136   ar
   129   133   130    1
   130   131   132    2
   131   131   130    1
   132   150   151    1
   133   150   147    1
   134    32    29    1
   135    50    49    2
   136    22    23    2
   137   138   136   ar
   138   129   130    1
   139    29    30    1
   140    29    28    1
   141   148   147    1
   142   148   149    2
   143   147   146    1
   144    30    31    2
