@<TRIPOS>MOLECULE
tmp/4ih3A00.pdb
 158 159 0 0 0
SMALL
GASTEIGER

@<TRIPOS>ATOM
      1  N         -4.9300  -14.1380   16.2800 N.3     8  HIS8       -0.1241
      2  CA        -3.7970  -15.0140   16.4860 C.3     8  HIS8        0.1621
      3  C         -3.0930  -14.6710   17.7840 C.2     8  HIS8        0.2264
      4  O         -2.8180  -13.5050   18.0650 O.2     8  HIS8       -0.2867
      5  CB        -2.7950  -14.8570   15.3420 C.3     8  HIS8        0.0745
      6  CG        -3.3440  -15.2040   13.9890 C.ar    8  HIS8        0.0817
      7  ND1       -3.8040  -16.4600   13.6690 N.ar    8  HIS8       -0.2268
      8  CD2       -3.4870  -14.4540   12.8650 C.ar    8  HIS8        0.1154
      9  CE1       -4.2160  -16.4700   12.4120 C.ar    8  HIS8        0.1986
     10  NE2       -4.0300  -15.2650   11.9030 N.ar    8  HIS8       -0.2212
     11  N         11.8670  -13.3270   11.2560 N.3    46  PHE46      -0.1227
     12  CA        10.9370  -13.3390   10.1350 C.3    46  PHE46       0.1736
     13  C          9.7040  -12.4620   10.3900 C.2    46  PHE46       0.2595
     14  O          8.9650  -12.1230    9.4670 O.2    46  PHE46      -0.2718
     15  CB        10.5730  -14.7820    9.7620 C.3    46  PHE46       0.0547
     16  CG         9.1960  -15.1870   10.1760 C.ar   46  PHE46      -0.0202
     17  CD1        8.1160  -14.9930    9.3290 C.ar   46  PHE46      -0.0042
     18  CD2        8.9800  -15.7730   11.3960 C.ar   46  PHE46      -0.0042
     19  CE1        6.8450  -15.3610    9.7020 C.ar   46  PHE46      -0.0003
     20  CE2        7.7160  -16.1420   11.7760 C.ar   46  PHE46      -0.0003
     21  CZ         6.6430  -15.9290   10.9300 C.ar   46  PHE46      -0.0000
     22  N          9.4990  -12.0770   11.6450 N.am   47  ARG47      -0.1980
     23  CA         8.4630  -11.1150   11.9790 C.3    47  ARG47       0.1597
     24  C          8.6640  -10.5880   13.3850 C.2    47  ARG47       0.2287
     25  O          9.1190  -11.3160   14.2750 O.2    47  ARG47      -0.2864
     26  CB         7.0880  -11.7420   11.8350 C.3    47  ARG47       0.0334
     27  CG         5.9540  -10.8620   12.2800 C.3    47  ARG47       0.0492
     28  CD         4.6690  -11.6630   12.2910 C.3    47  ARG47       0.2205
     29  NE         3.9670  -11.6320   11.0080 N.pl3  47  ARG47      -0.0865
     30  CZ         3.2710  -12.6470   10.5120 C.cat  47  ARG47       0.5346
     31  NH1        3.2040  -13.7940   11.1690 N.pl3  47  ARG47       0.1354
     32  NH2        2.6540  -12.5250    9.3420 N.pl3  47  ARG47       0.1354
     33  N         -0.5120  -18.6170   15.4360 N.3    76  VAL76      -0.1231
     34  CA         0.0130  -18.0230   14.2260 C.3    76  VAL76       0.1678
     35  C          0.2450  -19.1920   13.2570 C.2    76  VAL76       0.2434
     36  O          0.7160  -20.2570   13.6750 O.2    76  VAL76      -0.2733
     37  CB         1.3240  -17.2840   14.5030 C.3    76  VAL76       0.0265
     38  CG1        1.9170  -16.7030   13.2140 C.3    76  VAL76       0.0020
     39  CG2        1.1030  -16.2020   15.5340 C.3    76  VAL76       0.0020
     40  N         -0.1200  -19.0110   11.9740 N.am   77  PRO77      -0.2718
     41  CA        -0.1450  -20.1130   11.0060 C.3    77  PRO77       0.1535
     42  C          1.2200  -20.7740   10.8220 C.2    77  PRO77       0.2598
     43  O          1.2770  -21.9760   10.6160 O.2    77  PRO77      -0.2715
     44  CB        -0.6090  -19.4320    9.7210 C.3    77  PRO77       0.0310
     45  CG        -1.4140  -18.2730   10.2120 C.3    77  PRO77       0.0237
     46  CD        -0.6410  -17.7710   11.3880 C.3    77  PRO77       0.0939
     47  N          2.2930  -20.0020   10.9400 N.am   78  VAL78      -0.1978
     48  CA         3.6480  -20.5450   10.8740 C.3    78  VAL78       0.1596
     49  C          3.9390  -21.6330   11.9420 C.2    78  VAL78       0.2287
     50  O          4.9240  -22.3790   11.8300 O.2    78  VAL78      -0.2864
     51  CB         4.6940  -19.4100   10.9590 C.3    78  VAL78       0.0276
     52  CG1        4.7390  -18.8480   12.3690 C.3    78  VAL78       0.0022
     53  CG2        6.0580  -19.9040   10.5340 C.3    78  VAL78       0.0022
     54  N         -7.1060  -21.3790    7.0590 N.3   174  HIS174     -0.1227
     55  CA        -6.2510  -20.1990    6.9350 C.3   174  HIS174      0.1737
     56  C         -5.2270  -20.4510    5.8410 C.2   174  HIS174      0.2438
     57  O         -4.5610  -21.4770    5.8580 O.2   174  HIS174     -0.2733
     58  CB        -5.4870  -19.9670    8.2440 C.3   174  HIS174      0.0758
     59  CG        -5.0170  -18.5570    8.4480 C.ar  174  HIS174      0.0818
     60  ND1       -3.9770  -17.9980    7.7370 N.ar  174  HIS174     -0.2268
     61  CD2       -5.4240  -17.6010    9.3240 C.ar  174  HIS174      0.1154
     62  CE1       -3.7730  -16.7590    8.1480 C.ar  174  HIS174      0.1986
     63  NE2       -4.6370  -16.4960    9.1160 N.ar  174  HIS174     -0.2212
     64  N         -5.0720  -19.5130    4.9000 N.am  175  PRO175     -0.2729
     65  CA        -3.9500  -19.6830    3.9720 C.3   175  PRO175      0.1401
     66  C         -2.6300  -19.6430    4.7280 C.2   175  PRO175      0.2269
     67  O         -2.5090  -18.9060    5.6960 O.2   175  PRO175     -0.2865
     68  CB        -4.0630  -18.4550    3.0610 C.3   175  PRO175      0.0296
     69  CG        -4.8340  -17.4530    3.8690 C.3   175  PRO175      0.0237
     70  CD        -5.8160  -18.2660    4.6500 C.3   175  PRO175      0.0939
     71  N          2.5620  -20.0190    1.5840 N.3   178  MET178     -0.1245
     72  CA         2.5220  -19.5990    0.1940 C.3   178  MET178      0.1570
     73  C          3.8680  -19.9100   -0.4180 C.2   178  MET178      0.2261
     74  O          4.7200  -20.5160    0.2230 O.2   178  MET178     -0.2867
     75  CB         2.2710  -18.0910    0.0880 C.3   178  MET178      0.0387
     76  CG         0.9360  -17.6230    0.6410 C.3   178  MET178      0.0595
     77  SD         0.8540  -17.5300    2.4500 S.3   178  MET178     -0.1393
     78  CE         1.7370  -16.0000    2.7680 C.3   178  MET178      0.0692
     79  N          5.5990   -7.6020   -1.3670 N.3   188  TRP188     -0.1241
     80  CA         4.7180   -8.2830   -0.4030 C.3   188  TRP188      0.1605
     81  C          3.6370   -9.1980   -1.0540 C.2   188  TRP188      0.2264
     82  O          2.6310   -9.5630   -0.4220 O.2   188  TRP188     -0.2867
     83  CB         4.0940   -7.2790    0.5860 C.3   188  TRP188      0.0550
     84  CG         3.9130   -7.8430    1.9900 C.ar  188  TRP188      0.0003
     85  CD1        4.4700   -8.9900    2.4840 C.ar  188  TRP188      0.0946
     86  CD2        3.1260   -7.2860    3.0620 C.ar  188  TRP188      0.0152
     87  NE1        4.0870   -9.1760    3.7860 N.ar  188  TRP188     -0.2442
     88  CE2        3.2610   -8.1500    4.1680 C.ar  188  TRP188      0.0810
     89  CE3        2.3270   -6.1380    3.1940 C.ar  188  TRP188      0.0012
     90  CZ2        2.6180   -7.9100    5.4010 C.ar  188  TRP188      0.0191
     91  CZ3        1.6860   -5.8980    4.4170 C.ar  188  TRP188      0.0001
     92  CH2        1.8410   -6.7830    5.5080 C.ar  188  TRP188      0.0015
     93  N          1.6800  -12.1250    0.3090 N.3   191  TRP191     -0.1241
     94  CA         0.5930  -11.7620    1.2200 C.3   191  TRP191      0.1605
     95  C         -0.5940  -11.0650    0.5290 C.2   191  TRP191      0.2264
     96  O         -1.7490  -11.3980    0.7970 O.2   191  TRP191     -0.2867
     97  CB         1.1230  -10.9010    2.3830 C.3   191  TRP191      0.0550
     98  CG         1.4910  -11.6930    3.6090 C.ar  191  TRP191      0.0003
     99  CD1        0.7140  -11.8960    4.7120 C.ar  191  TRP191      0.0946
    100  CD2        2.7210  -12.3900    3.8530 C.ar  191  TRP191      0.0152
    101  NE1        1.3760  -12.6800    5.6190 N.ar  191  TRP191     -0.2442
    102  CE2        2.6100  -12.9970    5.1190 C.ar  191  TRP191      0.0810
    103  CE3        3.8960  -12.5710    3.1200 C.ar  191  TRP191      0.0012
    104  CZ2        3.6320  -13.7610    5.6730 C.ar  191  TRP191      0.0191
    105  CZ3        4.9100  -13.3330    3.6700 C.ar  191  TRP191      0.0001
    106  CH2        4.7690  -13.9230    4.9360 C.ar  191  TRP191      0.0015
    107  N         -1.8000  -15.1390   -0.8320 N.3   195  MET195     -0.1245
    108  CA        -2.7000  -15.6090    0.2110 C.3   195  MET195      0.1570
    109  C         -4.1300  -15.8350   -0.2760 C.2   195  MET195      0.2261
    110  O         -4.6600  -16.9250   -0.1180 O.2   195  MET195     -0.2867
    111  CB        -2.6530  -14.7120    1.4530 C.3   195  MET195      0.0387
    112  CG        -1.8480  -15.3290    2.5930 C.3   195  MET195      0.0595
    113  SD        -1.8260  -14.4560    4.1820 S.3   195  MET195     -0.1393
    114  CE        -3.5490  -14.0690    4.4000 C.3   195  MET195      0.0692
    115  N        -10.0620  -14.2450    4.8760 N.3   224  HIS224     -0.1241
    116  CA        -9.9440  -13.1700    3.8830 C.3   224  HIS224      0.1621
    117  C        -10.9980  -13.0910    2.7750 C.2   224  HIS224      0.2264
    118  O        -10.6630  -12.9590    1.5970 O.2   224  HIS224     -0.2867
    119  CB        -8.5310  -13.1530    3.2890 C.3   224  HIS224      0.0745
    120  CG        -7.4520  -13.1260    4.3250 C.ar  224  HIS224      0.0817
    121  ND1       -7.3440  -12.1260    5.2670 N.ar  224  HIS224     -0.2268
    122  CD2       -6.4340  -13.9890    4.5760 C.ar  224  HIS224      0.1154
    123  CE1       -6.3050  -12.3650    6.0490 C.ar  224  HIS224      0.1986
    124  NE2       -5.7380  -13.4910    5.6480 N.ar  224  HIS224     -0.2212
    125  N         -7.7400  -10.4240   11.8300 N.3   291  ASP291     -0.1239
    126  CA        -6.3080  -10.7230   11.6920 C.3   291  ASP291      0.1674
    127  C         -5.5080  -10.0280   12.7770 C.2   291  ASP291      0.2266
    128  O         -4.3110   -9.7660   12.6310 O.2   291  ASP291     -0.2867
    129  CB        -5.7680  -10.3590   10.3220 C.3   291  ASP291      0.1410
    130  CG        -5.2120  -11.5660    9.5930 C.2   291  ASP291      0.3668
    131  OD1       -4.8480  -12.5590   10.2790 O.co2 291  ASP291     -0.2456
    132  OD2       -5.1480  -11.5410    8.3360 O.co2 291  ASP291     -0.2456
    133  N         -2.3590   -8.5020   13.6350 N.3   294  PHE294     -0.1228
    134  CA        -1.4660   -8.1840   12.5280 C.3   294  PHE294      0.1721
    135  C         -1.9130   -6.9560   11.7080 C.2   294  PHE294      0.2437
    136  O         -3.0960   -6.6450   11.6320 O.2   294  PHE294     -0.2733
    137  CB        -1.1860   -9.4440   11.6980 C.3   294  PHE294      0.0547
    138  CG        -0.5130  -10.5290   12.5010 C.ar  294  PHE294     -0.0202
    139  CD1       -1.0070  -11.8350   12.5140 C.ar  294  PHE294     -0.0042
    140  CD2        0.6050  -10.2320   13.2720 C.ar  294  PHE294     -0.0042
    141  CE1       -0.3910  -12.8250   13.2770 C.ar  294  PHE294     -0.0003
    142  CE2        1.2290  -11.2280   14.0340 C.ar  294  PHE294     -0.0003
    143  CZ         0.7260  -12.5260   14.0360 C.ar  294  PHE294     -0.0000
    144  N         -0.9460   -6.2290   11.1350 N.am  295  PRO295     -0.2718
    145  CA        -1.2170   -4.9710   10.4170 C.3   295  PRO295      0.1535
    146  C         -2.0740   -5.1270    9.1490 C.2   295  PRO295      0.2598
    147  O         -2.9190   -4.2740    8.8580 O.2   295  PRO295     -0.2715
    148  CB         0.1860   -4.4580   10.0640 C.3   295  PRO295      0.0310
    149  CG         1.0730   -5.6610   10.1290 C.3   295  PRO295      0.0237
    150  CD         0.4970   -6.5170   11.2250 C.3   295  PRO295      0.0939
    151  N         -1.8630   -6.2060    8.4100 N.am  296  LEU296     -0.1978
    152  CA        -2.6390   -6.4640    7.2010 C.3   296  LEU296      0.1596
    153  C         -4.1120   -6.6460    7.5520 C.2   296  LEU296      0.2287
    154  O         -4.9440   -6.8480    6.6610 O.2   296  LEU296     -0.2864
    155  CB        -2.1180   -7.7190    6.5020 C.3   296  LEU296      0.0297
    156  CG        -1.8250   -7.7000    4.9970 C.3   296  LEU296      0.0022
    157  CD1       -2.3950   -8.9580    4.3520 C.3   296  LEU296      0.0001
    158  CD2       -2.3340   -6.4440    4.3000 C.3   296  LEU296      0.0001
@<TRIPOS>BOND
     1    79    80    1
     2    81    82    2
     3    81    80    1
     4   107   108    1
     5    73    72    1
     6    73    74    2
     7    80    83    1
     8   109   110    2
     9   109   108    1
    10    75    72    1
    11    75    76    1
    12    72    71    1
    13   108   111    1
    14    93    94    1
    15    95    96    2
    16    95    94    1
    17    83    84    1
    18    76    77    1
    19    94    97    1
    20   111   112    1
    21   118   117    2
    22    84    85   ar
    23    84    86   ar
    24    97    98    1
    25    77    78    1
    26    85    87   ar
    27   112   113    1
    28   117   116    1
    29    68    69    1
    30    68    65    1
    31    86    89   ar
    32    86    88   ar
    33   103   105   ar
    34   103   100   ar
    35    89    91   ar
    36   119   116    1
    37   119   120    1
    38    98   100   ar
    39    98    99   ar
    40   105   106   ar
    41    87    88   ar
    42   100   102   ar
    43    69    70    1
    44   116   115    1
    45    65    66    1
    46    65    64    1
    47    88    90   ar
    48   113   114    1
    49   158   156    1
    50   120   122   ar
    51   120   121   ar
    52   157   156    1
    53    91    92   ar
    54   122   124   ar
    55    70    64    1
    56    99   101   ar
    57    66    67    2
    58    64    56   am
    59   106   104   ar
    60   156   155    1
    61   102   101   ar
    62   102   104   ar
    63   121   123   ar
    64    90    92   ar
    65   124   123   ar
    66    56    57    2
    67    56    55    1
    68   155   152    1
    69   154   153    2
    70    55    54    1
    71    55    58    1
    72   152   153    1
    73   152   151    1
    74    60    62   ar
    75    60    59   ar
    76    62    63   ar
    77    58    59    1
    78   132   130   ar
    79   151   146   am
    80    59    61   ar
    81   147   146    2
    82    63    61   ar
    83   146   145    1
    84    17    19   ar
    85    17    16   ar
    86    32    30    1
    87    14    13    2
    88   130   131   ar
    89   130   129    1
    90    19    21   ar
    91    44    45    1
    92    44    41    1
    93    15    12    1
    94    15    16    1
    95   148   149    1
    96   148   145    1
    97   149   150    1
    98    12    13    1
    99    12    11    1
   100    16    18   ar
   101    45    46    1
   102   129   126    1
   103    13    22   am
   104   145   144    1
   105    30    29    2
   106    30    31    1
   107    53    51    1
   108    43    42    2
   109    42    47   am
   110    42    41    1
   111    48    47    1
   112    48    51    1
   113    48    49    1
   114    21    20   ar
   115    51    52    1
   116    41    40    1
   117    29    28    1
   118   144   150    1
   119   144   135   am
   120    46    40    1
   121    18    20   ar
   122   136   135    2
   123    22    23    1
   124   126   125    1
   125   126   127    1
   126   137   138    1
   127   137   134    1
   128   135   134    1
   129    50    49    2
   130    26    23    1
   131    26    27    1
   132    10     9   ar
   133    10     8   ar
   134    40    35   am
   135    23    24    1
   136    27    28    1
   137     9     7   ar
   138   138   139   ar
   139   138   140   ar
   140   139   141   ar
   141   134   133    1
   142   128   127    2
   143     8     6   ar
   144    38    37    1
   145    35    36    2
   146    35    34    1
   147   140   142   ar
   148   141   143   ar
   149    24    25    2
   150     7     6   ar
   151     6     5    1
   152   142   143   ar
   153    34    37    1
   154    34    33    1
   155    37    39    1
   156     5     2    1
   157     1     2    1
   158     2     3    1
   159     3     4    2
