@<TRIPOS>MOLECULE
tmp/4ih5A00.pdb
 139 131 0 0 0
SMALL
GASTEIGER

@<TRIPOS>ATOM
      1  N        -41.0580   -5.5870    6.9700 N.3   188  PHE188     -0.1241
      2  CA       -40.2930   -4.5020    7.6040 C.3   188  PHE188      0.1605
      3  C        -41.1430   -3.4220    8.2770 C.2   188  PHE188      0.2264
      4  O        -40.5870   -2.5780    8.9540 O.2   188  PHE188     -0.2867
      5  CB       -39.2850   -3.8830    6.6140 C.3   188  PHE188      0.0534
      6  CG       -38.2070   -4.8220    6.1180 C.ar  188  PHE188     -0.0203
      7  CD1      -37.2550   -5.3470    6.9950 C.ar  188  PHE188     -0.0042
      8  CD2      -38.1160   -5.1510    4.7680 C.ar  188  PHE188     -0.0042
      9  CE1      -36.2490   -6.2230    6.5290 C.ar  188  PHE188     -0.0003
     10  CE2      -37.1040   -6.0110    4.3010 C.ar  188  PHE188     -0.0003
     11  CZ       -36.1710   -6.5290    5.1800 C.ar  188  PHE188     -0.0000
     12  N        -40.4600   -6.5600   16.3030 N.3   192  PRO192     -0.2116
     13  CA       -40.5020   -8.0230   16.5440 C.3   192  PRO192      0.1372
     14  C        -41.8220   -8.5180   17.1510 C.2   192  PRO192      0.2244
     15  O        -42.2940   -9.5920   16.7670 O.2   192  PRO192     -0.2868
     16  CB       -39.2960   -8.2540   17.4860 C.3   192  PRO192      0.0268
     17  CG       -38.3320   -7.1150   17.1350 C.3   192  PRO192      0.0207
     18  CD       -39.2830   -5.9460   16.9620 C.3   192  PRO192      0.0892
     19  N        -44.4990   -8.5950   14.5190 N.3   195  ARG195     -0.1245
     20  CA       -44.2440   -9.7220   13.6220 C.3   195  ARG195      0.1563
     21  C        -44.8500  -10.9960   14.2370 C.2   195  ARG195      0.2260
     22  O        -45.5290  -11.7530   13.5450 O.2   195  ARG195     -0.2867
     23  CB       -42.7370   -9.8750   13.3500 C.3   195  ARG195      0.0307
     24  CG       -42.4140  -11.0160   12.3950 C.3   195  ARG195      0.0489
     25  CD       -40.9160  -11.2670   12.2820 C.3   195  ARG195      0.2205
     26  NE       -40.6520  -12.3650   11.3570 N.pl3 195  ARG195     -0.0865
     27  CZ       -40.5640  -12.2570   10.0310 C.cat 195  ARG195      0.5346
     28  NH1      -40.6610  -11.0630    9.4390 N.pl3 195  ARG195      0.1354
     29  NH2      -40.3790  -13.3320    9.2870 N.pl3 195  ARG195      0.1354
     30  N        -39.4430  -10.3770    3.7850 N.3   311  ASN311     -0.1240
     31  CA       -38.4270   -9.4010    4.2240 C.3   311  ASN311      0.1653
     32  C        -37.2470   -9.6240    3.2750 C.2   311  ASN311      0.2266
     33  O        -36.4550  -10.5240    3.5140 O.2   311  ASN311     -0.2867
     34  CB       -37.9600   -9.6700    5.6790 C.3   311  ASN311      0.1155
     35  CG       -38.9830   -9.4350    6.7500 C.2   311  ASN311      0.2627
     36  OD1      -39.9940  -10.1110    6.8270 O.2   311  ASN311     -0.2716
     37  ND2      -38.6880   -8.5320    7.6650 N.am  311  ASN311     -0.0877
     38  N        -36.4420  -15.2050    8.9130 N.3   361  CYS361     -0.1235
     39  CA       -35.5310  -14.1190    9.3300 C.3   361  CYS361      0.1677
     40  C        -34.6780  -14.6440   10.4960 C.2   361  CYS361      0.2270
     41  O        -34.5130  -13.9580   11.5110 O.2   361  CYS361     -0.2867
     42  CB       -36.2930  -12.8530    9.7060 C.3   361  CYS361      0.0956
     43  SG       -37.0530  -12.0110    8.2930 S.3   361  CYS361     -0.0801
     44  N        -35.4520  -16.4990   12.7990 N.3   363  SER363     -0.1217
     45  CA       -36.1830  -16.4300   14.0540 C.3   363  SER363      0.1889
     46  C        -37.3980  -17.3460   14.1170 C.2   363  SER363      0.2288
     47  O        -37.8760  -17.8100   13.0880 O.2   363  SER363     -0.2866
     48  CB       -36.6490  -14.9950   14.2880 C.3   363  SER363      0.2089
     49  OG       -35.5600  -14.0940   14.1770 O.3   363  SER363     -0.2183
     50  N        -40.6330  -13.2670   20.0400 N.3   379  LEU379     -0.1245
     51  CA       -39.7040  -13.7290   19.0230 C.3   379  LEU379      0.1561
     52  C        -38.3360  -14.0020   19.6000 C.2   379  LEU379      0.2260
     53  O        -37.7800  -13.1870   20.3400 O.2   379  LEU379     -0.2867
     54  CB       -39.5930  -12.6960   17.9020 C.3   379  LEU379      0.0270
     55  CG       -39.0930  -13.2370   16.5650 C.3   379  LEU379      0.0019
     56  CD1      -40.2410  -13.8710   15.7570 C.3   379  LEU379      0.0001
     57  CD2      -38.4880  -12.1330   15.7560 C.3   379  LEU379      0.0001
     58  N        -34.5000  -16.6380   18.6250 N.3   381  ARG381     -0.1245
     59  CA       -33.6640  -17.2660   17.6020 C.3   381  ARG381      0.1563
     60  C        -32.6090  -18.1070   18.2930 C.2   381  ARG381      0.2260
     61  O        -32.3690  -17.9360   19.4920 O.2   381  ARG381     -0.2867
     62  CB       -32.9910  -16.2030   16.6910 C.3   381  ARG381      0.0307
     63  CG       -32.0200  -15.2270   17.4140 C.3   381  ARG381      0.0489
     64  CD       -31.0600  -14.5620   16.4460 C.3   381  ARG381      0.2205
     65  NE       -30.1680  -15.5490   15.8290 N.pl3 381  ARG381     -0.0865
     66  CZ       -29.6500  -15.4490   14.6080 C.cat 381  ARG381      0.5346
     67  NH1      -29.8900  -14.3760   13.8590 N.pl3 381  ARG381      0.1354
     68  NH2      -28.8760  -16.4130   14.1310 N.pl3 381  ARG381      0.1354
     69  N        -23.3280   -5.5310   16.9000 N.3   402  SER402     -0.1217
     70  CA       -24.4330   -6.5300   16.8070 C.3   402  SER402      0.1889
     71  C        -25.0660   -6.8210   18.1590 C.2   402  SER402      0.2288
     72  O        -26.2520   -7.1390   18.1930 O.2   402  SER402     -0.2866
     73  CB       -23.9560   -7.8330   16.1850 C.3   402  SER402      0.2089
     74  OG       -23.0970   -8.4750   17.1000 O.3   402  SER402     -0.2183
     75  N        -27.9460   -4.2950   18.7050 N.3   405  GLY405     -0.1210
     76  CA       -29.0770   -4.6200   17.8390 C.3   405  GLY405      0.1956
     77  C        -29.8020   -5.8460   18.3670 C.2   405  GLY405      0.2611
     78  O        -31.0390   -5.8720   18.4230 O.2   405  GLY405     -0.2717
     79  N        -29.0350   -6.8420   18.8330 N.am  406  ASN406     -0.1974
     80  CA       -29.5890   -8.0730   19.3880 C.3   406  ASN406      0.1688
     81  C        -30.3670   -7.8350   20.6800 C.2   406  ASN406      0.2292
     82  O        -31.4530   -8.3960   20.8260 O.2   406  ASN406     -0.2864
     83  CB       -28.5190   -9.1560   19.5390 C.3   406  ASN406      0.1181
     84  CG       -28.3040   -9.9200   18.2650 C.2   406  ASN406      0.2629
     85  OD1      -29.2540  -10.3190   17.6060 O.2   406  ASN406     -0.2716
     86  ND2      -27.0590  -10.1220   17.8700 N.am  406  ASN406     -0.0877
     87  N        -33.6790   -5.9630   19.4360 N.3   409  MET409     -0.1230
     88  CA       -34.6070   -6.8250   18.7000 C.3   409  MET409      0.1702
     89  C        -35.0640   -8.0580   19.4890 C.2   409  MET409      0.2592
     90  O        -36.1970   -8.5220   19.3090 O.2   409  MET409     -0.2718
     91  CB       -33.9960   -7.2090   17.3560 C.3   409  MET409      0.0401
     92  CG       -33.7370   -5.9990   16.4580 C.3   409  MET409      0.0596
     93  SD       -35.2580   -5.0870   16.0970 S.3   409  MET409     -0.1393
     94  CE       -35.7240   -5.8880   14.6070 C.3   409  MET409      0.0692
     95  N        -34.1820   -8.5910   20.3510 N.am  410  TYR410     -0.1976
     96  CA       -34.4920   -9.7810   21.1400 C.3   410  TYR410      0.1639
     97  C        -34.5310   -9.5360   22.6570 C.2   410  TYR410      0.2290
     98  O        -34.3130  -10.4660   23.4240 O.2   410  TYR410     -0.2864
     99  CB       -33.5360  -10.9290   20.7830 C.3   410  TYR410      0.0560
    100  CG       -33.6290  -11.3410   19.3320 C.ar  410  TYR410     -0.0198
    101  CD1      -34.6900  -12.1190   18.8730 C.ar  410  TYR410     -0.0009
    102  CD2      -32.6620  -10.9470   18.4150 C.ar  410  TYR410     -0.0009
    103  CE1      -34.7900  -12.4830   17.5310 C.ar  410  TYR410      0.0417
    104  CE2      -32.7440  -11.3100   17.0760 C.ar  410  TYR410      0.0417
    105  CZ       -33.8170  -12.0660   16.6370 C.ar  410  TYR410      0.1957
    106  OH       -33.8590  -12.4390   15.3320 O.3   410  TYR410     -0.2866
    107  N        -27.6490   -1.4740   13.8810 N.3   441  GLN441     -0.1231
    108  CA       -28.4770   -1.5520   12.6750 C.3   441  GLN441      0.1698
    109  C        -29.8140   -2.1900   12.9920 C.2   441  GLN441      0.2592
    110  O        -29.8420   -3.2180   13.6670 O.2   441  GLN441     -0.2718
    111  CB       -27.7640   -2.3460   11.5620 C.3   441  GLN441      0.0381
    112  CG       -26.6350   -1.5900   10.8640 C.3   441  GLN441      0.0905
    113  CD       -26.1320   -2.2810    9.6100 C.2   441  GLN441      0.2608
    114  OE1      -26.0150   -3.5100    9.5360 O.2   441  GLN441     -0.2717
    115  NE2      -25.7850   -1.4970    8.6000 N.am  441  GLN441     -0.0878
    116  N        -30.9170   -1.5750   12.5230 N.am  442  ILE442     -0.1966
    117  CA       -32.2850   -2.1000   12.6970 C.3   442  ILE442      0.1727
    118  C        -32.8280   -2.1580   11.2730 C.2   442  ILE442      0.2616
    119  O        -32.9980   -1.1060   10.6330 O.2   442  ILE442     -0.2715
    120  CB       -33.1780   -1.2760   13.6700 C.3   442  ILE442      0.0290
    121  CG1      -32.6570   -1.3700   15.1370 C.3   442  ILE442      0.0022
    122  CG2      -34.6330   -1.7620   13.6090 C.3   442  ILE442      0.0023
    123  CD1      -32.6350   -0.0750   15.8140 C.3   442  ILE442      0.0001
    124  N        -33.0830   -3.3810   10.7730 N.am  443  TYR443     -0.1960
    125  CA       -33.5720   -3.6200    9.4090 C.3   443  TYR443      0.1771
    126  C        -32.6770   -2.9560    8.3550 C.2   443  TYR443      0.2620
    127  O        -33.1860   -2.4000    7.3770 O.2   443  TYR443     -0.2715
    128  CB       -35.0500   -3.1730    9.2490 C.3   443  TYR443      0.0574
    129  CG       -36.0500   -3.9890   10.0400 C.ar  443  TYR443     -0.0198
    130  CD1      -35.7670   -5.3040   10.4160 C.ar  443  TYR443     -0.0009
    131  CD2      -37.3390   -3.5140   10.2650 C.ar  443  TYR443     -0.0009
    132  CE1      -36.6970   -6.0740   11.1120 C.ar  443  TYR443      0.0417
    133  CE2      -38.2970   -4.2950   10.9180 C.ar  443  TYR443      0.0417
    134  CZ       -37.9660   -5.5690   11.3500 C.ar  443  TYR443      0.1957
    135  OH       -38.8910   -6.3440   12.0110 O.3   443  TYR443     -0.2866
    136  N        -31.3650   -2.9620    8.6100 N.am  444  GLY444     -0.1954
    137  CA       -30.3550   -2.4490    7.6900 C.3   444  GLY444      0.1869
    138  C        -30.0460   -0.9730    7.8370 C.2   444  GLY444      0.2309
    139  O        -29.0060   -0.5410    7.3510 O.2   444  GLY444     -0.2863
@<TRIPOS>BOND
     1    32    33    2
     2    32    31    1
     3    30    31    1
     4    31    34    1
     5    10     8   ar
     6    10    11   ar
     7     8     6   ar
     8    11     9   ar
     9    34    35    1
    10     6     5    1
    11     6     7   ar
    12     9     7   ar
    13     5     2    1
    14    35    36    2
    15    35    37   am
    16     1     2    1
    17   139   138    2
    18   127   126    2
    19     2     3    1
    20   137   138    1
    21   137   136    1
    22     3     4    2
    23    43    42    1
    24   126   136   am
    25   126   125    1
    26   115   113   am
    27    38    39    1
    28   128   125    1
    29   128   129    1
    30    29    27    1
    31    39    42    1
    32    39    40    1
    33   125   124    1
    34    28    27    1
    35   114   113    2
    36   113   112    1
    37    27    26    2
    38   129   131   ar
    39   129   130   ar
    40   131   133   ar
    41   130   132   ar
    42    40    41    2
    43   119   118    2
    44   124   118   am
    45   112   111    1
    46   133   134   ar
    47   132   134   ar
    48   118   117    1
    49   134   135    1
    50    26    25    1
    51   111   108    1
    52    25    24    1
    53    24    23    1
    54   116   117    1
    55   116   109   am
    56   108   109    1
    57   108   107    1
    58   117   120    1
    59    44    45    1
    60   109   110    2
    61    47    46    2
    62    23    20    1
    63    22    21    2
    64   122   120    1
    65    20    21    1
    66    20    19    1
    67   120   121    1
    68    67    66    1
    69    45    46    1
    70    45    48    1
    71    68    66    1
    72    49    48    1
    73    94    93    1
    74    66    65    2
    75   121   123    1
    76   106   105    1
    77    57    55    1
    78    56    55    1
    79    65    64    1
    80    93    92    1
    81    73    70    1
    82    73    74    1
    83    12    13    1
    84    12    18    1
    85    64    63    1
    86    92    91    1
    87    13    14    1
    88    13    16    1
    89    55    54    1
    90   105   104   ar
    91   105   103   ar
    92    62    63    1
    93    62    59    1
    94    15    14    2
    95    70    69    1
    96    70    71    1
    97    18    17    1
    98   104   102   ar
    99    17    16    1
   100    91    88    1
   101   103   101   ar
   102    59    60    1
   103    59    58    1
   104    85    84    2
   105    76    77    1
   106    76    75    1
   107    86    84   am
   108    54    51    1
   109    71    72    2
   110    84    83    1
   111    60    61    2
   112    77    78    2
   113    77    79   am
   114   102   100   ar
   115    88    87    1
   116    88    89    1
   117    79    80    1
   118   101   100   ar
   119    51    52    1
   120    51    50    1
   121    90    89    2
   122   100    99    1
   123    80    83    1
   124    80    81    1
   125    89    95   am
   126    52    53    2
   127    95    96    1
   128    81    82    2
   129    99    96    1
   130    96    97    1
   131    97    98    2
