@<TRIPOS>MOLECULE
tmp/4ih6B00.pdb
 150 141 0 0 0
SMALL
GASTEIGER

@<TRIPOS>ATOM
      1  N          3.4910  -41.0380 -108.3990 N.3   188  PHE188     -0.1241
      2  CA         4.2320  -40.2230 -109.3760 C.3   188  PHE188      0.1605
      3  C          4.9900  -40.9990 -110.4300 C.2   188  PHE188      0.2264
      4  O          5.4890  -40.3740 -111.3490 O.2   188  PHE188     -0.2867
      5  CB         5.1590  -39.2290 -108.6650 C.3   188  PHE188      0.0534
      6  CG         4.4550  -38.1930 -107.8310 C.ar  188  PHE188     -0.0203
      7  CD1        3.5620  -37.2940 -108.4110 C.ar  188  PHE188     -0.0042
      8  CD2        4.7280  -38.0670 -106.4670 C.ar  188  PHE188     -0.0042
      9  CE1        2.9310  -36.3070 -107.6390 C.ar  188  PHE188     -0.0003
     10  CE2        4.1020  -37.0690 -105.7020 C.ar  188  PHE188     -0.0003
     11  CZ         3.2020  -36.1990 -106.2970 C.ar  188  PHE188     -0.0000
     12  N         -0.9810  -40.3770 -116.7370 N.3   192  PRO192     -0.2116
     13  CA        -2.4270  -40.4780 -116.4290 C.3   192  PRO192      0.1372
     14  C         -3.0840  -41.8030 -116.8580 C.2   192  PRO192      0.2244
     15  O         -3.9820  -42.2690 -116.1740 O.2   192  PRO192     -0.2868
     16  CB        -3.0460  -39.2730 -117.1640 C.3   192  PRO192      0.0268
     17  CG        -1.9200  -38.3370 -117.3610 C.3   192  PRO192      0.0207
     18  CD        -0.7010  -39.1900 -117.5680 C.3   192  PRO192      0.0892
     19  N         -2.1210  -44.5420 -114.4790 N.3   195  ARG195     -0.1245
     20  CA        -2.8350  -44.3210 -113.2110 C.3   195  ARG195      0.1563
     21  C         -4.2600  -44.8460 -113.2760 C.2   195  ARG195      0.2260
     22  O         -4.6910  -45.4790 -112.3260 O.2   195  ARG195     -0.2867
     23  CB        -2.8130  -42.8440 -112.7750 C.3   195  ARG195      0.0307
     24  CG        -3.5650  -42.5780 -111.4790 C.3   195  ARG195      0.0489
     25  CD        -3.6170  -41.1110 -111.1210 C.3   195  ARG195      0.2205
     26  NE        -4.3470  -40.8880 -109.8740 N.pl3 195  ARG195     -0.0865
     27  CZ        -3.7650  -40.7640 -108.6850 C.cat 195  ARG195      0.5346
     28  NH1       -2.4410  -40.8000 -108.5790 N.pl3 195  ARG195      0.1354
     29  NH2       -4.5010  -40.5980 -107.5940 N.pl3 195  ARG195      0.1354
     30  N          0.4830  -39.6120 -103.5780 N.3   311  ASN311     -0.1240
     31  CA         1.1440  -38.5620 -104.3330 C.3   311  ASN311      0.1653
     32  C          1.2370  -37.4010 -103.3820 C.2   311  ASN311      0.2266
     33  O          0.2580  -36.6650 -103.2390 O.2   311  ASN311     -0.2867
     34  CB         0.2880  -38.1330 -105.5360 C.3   311  ASN311      0.1155
     35  CG         0.0590  -39.1820 -106.5620 C.2   311  ASN311      0.2627
     36  OD1       -0.6480  -40.1540 -106.3350 O.2   311  ASN311     -0.2716
     37  ND2        0.5420  -38.9270 -107.7500 N.am  311  ASN311     -0.0877
     38  N         -5.9720  -36.6850 -106.4130 N.3   361  CYS361     -0.1235
     39  CA        -5.1570  -35.7490 -107.2080 C.3   361  CYS361      0.1677
     40  C         -6.1330  -34.8380 -107.9800 C.2   361  CYS361      0.2270
     41  O         -5.9550  -34.5830 -109.1730 O.2   361  CYS361     -0.2867
     42  CB        -4.1620  -36.4680 -108.1200 C.3   361  CYS361      0.0956
     43  SG        -2.7710  -37.2390 -107.2350 S.3   361  CYS361     -0.0801
     44  N         -8.9130  -35.4800 -109.1980 N.3   363  SER363     -0.1217
     45  CA        -9.3980  -36.2140 -110.3580 C.3   363  SER363      0.1889
     46  C        -10.2900  -37.4020 -110.0580 C.2   363  SER363      0.2288
     47  O        -10.2850  -37.9240 -108.9540 O.2   363  SER363     -0.2866
     48  CB        -8.2160  -36.7050 -111.1850 C.3   363  SER363      0.2089
     49  OG        -7.3790  -35.6230 -111.5530 O.3   363  SER363     -0.2183
     50  N         -8.9470  -40.3260 -117.0290 N.3   379  LEU379     -0.1245
     51  CA        -8.9960  -39.4190 -115.8760 C.3   379  LEU379      0.1561
     52  C         -9.3860  -38.0030 -116.2780 C.2   379  LEU379      0.2260
     53  O         -8.8520  -37.4440 -117.2300 O.2   379  LEU379     -0.2867
     54  CB        -7.6870  -39.4240 -115.0710 C.3   379  LEU379      0.0270
     55  CG        -7.5460  -40.5530 -114.0460 C.3   379  LEU379      0.0019
     56  CD1       -6.1020  -40.8590 -113.7990 C.3   379  LEU379      0.0001
     57  CD2       -8.2170  -40.2030 -112.7280 C.3   379  LEU379      0.0001
     58  N        -11.4770  -34.1990 -114.3930 N.3   381  ARG381     -0.1245
     59  CA       -11.6290  -33.3930 -113.1840 C.3   381  ARG381      0.1563
     60  C        -12.6320  -32.3050 -113.4490 C.2   381  ARG381      0.2260
     61  O        -12.9540  -32.0410 -114.6110 O.2   381  ARG381     -0.2867
     62  CB       -10.2930  -32.7620 -112.7470 C.3   381  ARG381      0.0307
     63  CG        -9.6330  -31.8270 -113.7800 C.3   381  ARG381      0.0489
     64  CD        -8.6480  -30.8760 -113.1320 C.3   381  ARG381      0.2205
     65  NE        -9.3180  -29.9400 -112.2150 N.pl3 381  ARG381     -0.0865
     66  CZ        -8.7730  -29.4770 -111.1020 C.cat 381  ARG381      0.5346
     67  NH1       -7.5410  -29.8270 -110.7620 N.pl3 381  ARG381      0.1354
     68  NH2       -9.4500  -28.6530 -110.3230 N.pl3 381  ARG381      0.1354
     69  N         -7.9520  -20.3550 -114.9460 N.3   389  ARG389     -0.1245
     70  CA        -6.5210  -20.1230 -115.2310 C.3   389  ARG389      0.1563
     71  C         -6.2610  -19.8980 -116.7240 C.2   389  ARG389      0.2260
     72  O         -5.4010  -19.0840 -117.0780 O.2   389  ARG389     -0.2867
     73  CB        -5.6690  -21.2740 -114.6840 C.3   389  ARG389      0.0307
     74  CG        -5.7750  -21.3370 -113.1710 C.3   389  ARG389      0.0489
     75  CD        -4.9770  -22.4250 -112.5130 C.3   389  ARG389      0.2205
     76  NE        -5.1090  -22.2620 -111.0670 N.pl3 389  ARG389     -0.0865
     77  CZ        -4.5050  -23.0120 -110.1570 C.cat 389  ARG389      0.5346
     78  NH1       -3.7180  -24.0210 -110.5290 N.pl3 389  ARG389      0.1354
     79  NH2       -4.6810  -22.7650 -108.8730 N.pl3 389  ARG389      0.1354
     80  N         -0.6410  -23.1650 -117.4510 N.3   402  SER402     -0.1217
     81  CA        -1.5310  -24.2150 -116.9370 C.3   402  SER402      0.1889
     82  C         -2.2880  -24.8990 -118.0400 C.2   402  SER402      0.2288
     83  O         -2.5340  -26.0920 -117.9280 O.2   402  SER402     -0.2866
     84  CB        -2.5290  -23.6560 -115.9280 C.3   402  SER402      0.2089
     85  OG        -3.5770  -22.9770 -116.5970 O.3   402  SER402     -0.2183
     86  N         -0.1130  -27.7540 -119.6340 N.3   405  GLY405     -0.1210
     87  CA        -0.0440  -28.8230 -118.6510 C.3   405  GLY405      0.1956
     88  C         -1.3730  -29.5390 -118.5940 C.2   405  GLY405      0.2611
     89  O         -1.3840  -30.7660 -118.6500 O.2   405  GLY405     -0.2717
     90  N         -2.5220  -28.7820 -118.6000 N.am  406  ASN406     -0.1974
     91  CA        -3.8740  -29.3880 -118.6040 C.3   406  ASN406      0.1688
     92  C         -4.1800  -30.1550 -119.8680 C.2   406  ASN406      0.2292
     93  O         -4.8100  -31.2190 -119.8080 O.2   406  ASN406     -0.2864
     94  CB        -4.9770  -28.3740 -118.3160 C.3   406  ASN406      0.1181
     95  CG        -5.0640  -27.9940 -116.8590 C.2   406  ASN406      0.2629
     96  OD1       -5.0460  -28.8440 -115.9710 O.2   406  ASN406     -0.2716
     97  ND2       -5.1790  -26.7160 -116.5820 N.am  406  ASN406     -0.0877
     98  N         -1.9700  -33.4720 -119.5040 N.3   409  MET409     -0.1230
     99  CA        -2.4760  -34.3510 -118.4710 C.3   409  MET409      0.1702
    100  C         -3.9010  -34.8400 -118.6970 C.2   409  MET409      0.2592
    101  O         -4.1930  -35.9990 -118.3840 O.2   409  MET409     -0.2718
    102  CB        -2.3170  -33.6960 -117.0890 C.3   409  MET409      0.0401
    103  CG        -0.8800  -33.4660 -116.7370 C.3   409  MET409      0.0596
    104  SD         0.1370  -34.9720 -116.7570 S.3   409  MET409     -0.1393
    105  CE        -0.3070  -35.6650 -115.1550 C.3   409  MET409      0.0692
    106  N         -4.7710  -33.9760 -119.2410 N.am  410  TYR410     -0.1976
    107  CA        -6.1860  -34.2780 -119.4780 C.3   410  TYR410      0.1639
    108  C         -6.5670  -34.2620 -120.9360 C.2   410  TYR410      0.2290
    109  O         -7.7130  -33.9530 -121.2730 O.2   410  TYR410     -0.2864
    110  CB        -7.0850  -33.3280 -118.6740 C.3   410  TYR410      0.0560
    111  CG        -6.8610  -33.4140 -117.1870 C.ar  410  TYR410     -0.0198
    112  CD1       -7.3410  -34.4950 -116.4530 C.ar  410  TYR410     -0.0009
    113  CD2       -6.1540  -32.4210 -116.5120 C.ar  410  TYR410     -0.0009
    114  CE1       -7.1240  -34.5860 -115.0820 C.ar  410  TYR410      0.0417
    115  CE2       -5.9500  -32.4890 -115.1390 C.ar  410  TYR410      0.0417
    116  CZ        -6.4350  -33.5760 -114.4280 C.ar  410  TYR410      0.1957
    117  OH        -6.2760  -33.6400 -113.0730 O.3   410  TYR410     -0.2866
    118  N          3.9350  -27.3420 -116.1050 N.3   441  GLN441     -0.1231
    119  CA         4.2550  -28.2360 -114.9950 C.3   441  GLN441      0.1698
    120  C          3.5880  -29.5870 -115.0850 C.2   441  GLN441      0.2592
    121  O          2.3910  -29.6620 -115.3570 O.2   441  GLN441     -0.2718
    122  CB         3.9650  -27.5960 -113.6360 C.3   441  GLN441      0.0381
    123  CG         5.0480  -26.6370 -113.1910 C.3   441  GLN441      0.0905
    124  CD         4.8600  -26.1380 -111.7830 C.2   441  GLN441      0.2608
    125  OE1        5.7490  -25.5060 -111.2130 O.2   441  GLN441     -0.2717
    126  NE2        3.7220  -26.4290 -111.1730 N.am  441  GLN441     -0.0878
    127  N          4.3780  -30.6520 -114.8560 N.am  442  ILE442     -0.1966
    128  CA         3.9560  -32.0580 -114.8230 C.3   442  ILE442      0.1727
    129  C          4.5540  -32.6390 -113.5290 C.2   442  ILE442      0.2616
    130  O          5.7780  -32.7050 -113.4020 O.2   442  ILE442     -0.2715
    131  CB         4.4390  -32.8390 -116.0770 C.3   442  ILE442      0.0290
    132  CG1        3.7590  -32.3430 -117.3540 C.3   442  ILE442      0.0022
    133  CG2        4.2420  -34.3490 -115.9140 C.3   442  ILE442      0.0023
    134  CD1        4.5680  -32.6750 -118.5880 C.3   442  ILE442      0.0001
    135  N          3.7120  -33.0410 -112.5790 N.am  443  TYR443     -0.1960
    136  CA         4.1360  -33.5900 -111.2700 C.3   443  TYR443      0.1771
    137  C          5.1110  -32.6560 -110.5130 C.2   443  TYR443      0.2620
    138  O          6.0780  -33.1130 -109.8940 O.2   443  TYR443     -0.2715
    139  CB         4.6910  -35.0280 -111.3920 C.3   443  TYR443      0.0574
    140  CG         3.6640  -36.0790 -111.7850 C.ar  443  TYR443     -0.0198
    141  CD1        2.2980  -35.8350 -111.6550 C.ar  443  TYR443     -0.0009
    142  CD2        4.0610  -37.3430 -112.2110 C.ar  443  TYR443     -0.0009
    143  CE1        1.3540  -36.7890 -112.0240 C.ar  443  TYR443      0.0417
    144  CE2        3.1270  -38.3180 -112.5480 C.ar  443  TYR443      0.0417
    145  CZ         1.7720  -38.0300 -112.4680 C.ar  443  TYR443      0.1957
    146  OH         0.8290  -38.9730 -112.7890 O.3   443  TYR443     -0.2866
    147  N          4.8290  -31.3510 -110.5890 N.am  444  GLY444     -0.1954
    148  CA         5.6080  -30.3010 -109.9370 C.3   444  GLY444      0.1869
    149  C          6.8780  -29.8880 -110.6550 C.2   444  GLY444      0.2309
    150  O          7.4950  -28.8990 -110.2640 O.2   444  GLY444     -0.2863
@<TRIPOS>BOND
     1   109   108    2
     2   108   107    1
     3    92    93    2
     4    92    91    1
     5    86    87    1
     6    98    99    1
     7   107   106    1
     8   107   110    1
     9   106   100   am
    10   100    99    1
    11   100   101    2
    12   110   111    1
    13    87    88    1
    14    89    88    2
    15    91    90    1
    16    91    94    1
    17    90    88   am
    18   134   132    1
    19    99   102    1
    20    94    95    1
    21    82    83    2
    22    82    81    1
    23    18    17    1
    24    18    12    1
    25    80    81    1
    26    17    16    1
    27   132   131    1
    28    53    52    2
    29   111   113   ar
    30   111   112   ar
    31    16    13    1
    32   102   103    1
    33    72    71    2
    34    50    51    1
    35    81    84    1
    36    95    97   am
    37    95    96    2
    38    14    13    1
    39    14    15    2
    40   104   103    1
    41   104   105    1
    42    12    13    1
    43    71    70    1
    44    85    84    1
    45   113   115   ar
    46   112   114   ar
    47    52    51    1
    48   118   119    1
    49   131   133    1
    50   131   128    1
    51    51    54    1
    52   121   120    2
    53    70    69    1
    54    70    73    1
    55   115   116   ar
    56   120   119    1
    57   120   127   am
    58   114   116   ar
    59    54    55    1
    60   119   122    1
    61   127   128    1
    62   128   129    1
    63    73    74    1
    64    61    60    2
    65    19    20    1
    66   116   117    1
    67    58    59    1
    68    55    56    1
    69    55    57    1
    70    63    64    1
    71    63    62    1
    72   122   123    1
    73   129   130    2
    74   129   135   am
    75    60    59    1
    76    21    20    1
    77    21    22    2
    78    20    23    1
    79   123   124    1
    80    59    62    1
    81    74    75    1
    82    64    65    1
    83   146   145    1
    84    23    24    1
    85   135   136    1
    86   144   145   ar
    87   144   142   ar
    88    75    76    1
    89   145   143   ar
    90    65    66    2
    91   142   140   ar
    92   143   141   ar
    93   140   141   ar
    94   140   139    1
    95   124   125    2
    96   124   126   am
    97    49    48    1
    98    24    25    1
    99   139   136    1
   100     4     3    2
   101   136   137    1
   102    48    45    1
   103    25    26    1
   104    66    67    1
   105    66    68    1
   106    76    77    2
   107   149   150    2
   108   149   148    1
   109   147   137   am
   110   147   148    1
   111    78    77    1
   112   137   138    2
   113     3     2    1
   114    45    46    1
   115    45    44    1
   116    77    79    1
   117    46    47    2
   118    26    27    2
   119     2     5    1
   120     2     1    1
   121    41    40    2
   122    27    28    1
   123    27    29    1
   124     5     6    1
   125     7     6   ar
   126     7     9   ar
   127    42    43    1
   128    42    39    1
   129    40    39    1
   130     6     8   ar
   131    37    35   am
   132     9    11   ar
   133    39    38    1
   134    35    36    2
   135    35    34    1
   136     8    10   ar
   137    11    10   ar
   138    34    31    1
   139    31    30    1
   140    31    32    1
   141    32    33    2
