@<TRIPOS>MOLECULE
tmp/4ih7B00.pdb
 139 131 0 0 0
SMALL
GASTEIGER

@<TRIPOS>ATOM
      1  N         41.1870   -5.1260   14.2630 N.3   188  PHE188     -0.1241
      2  CA        40.3850   -4.0410   13.6730 C.3   188  PHE188      0.1605
      3  C         41.1950   -2.9220   12.9730 C.2   188  PHE188      0.2264
      4  O         40.5870   -2.0930   12.2930 O.2   188  PHE188     -0.2867
      5  CB        39.4180   -3.4470   14.7090 C.3   188  PHE188      0.0534
      6  CG        38.3360   -4.3990   15.1650 C.ar  188  PHE188     -0.0203
      7  CD1       37.4240   -4.9220   14.2640 C.ar  188  PHE188     -0.0042
      8  CD2       38.2270   -4.7630   16.4970 C.ar  188  PHE188     -0.0042
      9  CE1       36.4260   -5.8030   14.6900 C.ar  188  PHE188     -0.0003
     10  CE2       37.2160   -5.6240   16.9210 C.ar  188  PHE188     -0.0003
     11  CZ        36.3310   -6.1490   16.0150 C.ar  188  PHE188     -0.0000
     12  N         40.4690   -5.7250    4.8360 N.3   192  PRO192     -0.2116
     13  CA        40.4930   -7.1770    4.5750 C.3   192  PRO192      0.1372
     14  C         41.8020   -7.6490    3.9230 C.2   192  PRO192      0.2244
     15  O         42.2640   -8.7390    4.2420 O.2   192  PRO192     -0.2868
     16  CB        39.2830   -7.3990    3.6660 C.3   192  PRO192      0.0268
     17  CG        38.4130   -6.2380    3.9020 C.3   192  PRO192      0.0207
     18  CD        39.3200   -5.0890    4.1630 C.3   192  PRO192      0.0892
     19  N         44.6520   -7.8300    6.3730 N.3   195  ARG195     -0.1245
     20  CA        44.4080   -8.9690    7.2550 C.3   195  ARG195      0.1563
     21  C         44.9610  -10.2590    6.6650 C.2   195  ARG195      0.2260
     22  O         45.6950  -10.9640    7.3610 O.2   195  ARG195     -0.2867
     23  CB        42.9290   -9.1110    7.6540 C.3   195  ARG195      0.0307
     24  CG        42.7380  -10.0900    8.8130 C.3   195  ARG195      0.0489
     25  CD        41.2850  -10.2950    9.1600 C.3   195  ARG195      0.2205
     26  NE        41.0480  -11.5410    9.8920 N.pl3 195  ARG195     -0.0865
     27  CZ        40.8500  -11.6050   11.1970 C.cat 195  ARG195      0.5346
     28  NH1       40.8950  -10.5030   11.9350 N.pl3 195  ARG195      0.1354
     29  NH2       40.6440  -12.7760   11.7850 N.pl3 195  ARG195      0.1354
     30  N         39.7360   -9.8740   17.4950 N.3   311  ASN311     -0.1240
     31  CA        38.7040   -8.9520   17.0280 C.3   311  ASN311      0.1653
     32  C         37.4950   -9.2070   17.9220 C.2   311  ASN311      0.2266
     33  O         36.8010  -10.2090   17.7250 O.2   311  ASN311     -0.2867
     34  CB        38.3260   -9.2580   15.5710 C.3   311  ASN311      0.1155
     35  CG        39.4100   -9.0770   14.5470 C.2   311  ASN311      0.2627
     36  OD1       40.4270   -9.7790   14.5450 O.2   311  ASN311     -0.2716
     37  ND2       39.1520   -8.2080   13.5810 N.am  311  ASN311     -0.0877
     38  N         36.2300  -14.8250   12.6350 N.3   361  CYS361     -0.1235
     39  CA        35.3320  -13.7260   12.2240 C.3   361  CYS361      0.1677
     40  C         34.3970  -14.2630   11.1280 C.2   361  CYS361      0.2270
     41  O         34.0680  -13.5360   10.1830 O.2   361  CYS361     -0.2867
     42  CB        36.0970  -12.4840   11.7580 C.3   361  CYS361      0.0956
     43  SG        36.9690  -11.5990   13.0690 S.3   361  CYS361     -0.0801
     44  N         35.0950  -16.0480    8.8020 N.3   363  SER363     -0.1217
     45  CA        35.8870  -15.9720    7.5750 C.3   363  SER363      0.1889
     46  C         37.0910  -16.8940    7.5800 C.2   363  SER363      0.2288
     47  O         37.6240  -17.2200    8.6320 O.2   363  SER363     -0.2866
     48  CB        36.3760  -14.5390    7.3440 C.3   363  SER363      0.2089
     49  OG        35.3300  -13.5840    7.4260 O.3   363  SER363     -0.2183
     50  N         40.1570  -13.0400    1.6910 N.3   379  LEU379     -0.1245
     51  CA        39.2310  -13.4640    2.7410 C.3   379  LEU379      0.1561
     52  C         37.8430  -13.7730    2.1890 C.2   379  LEU379      0.2260
     53  O         37.2670  -12.9860    1.4370 O.2   379  LEU379     -0.2867
     54  CB        39.1230  -12.4310    3.8650 C.3   379  LEU379      0.0270
     55  CG        40.1570  -12.5300    4.9630 C.3   379  LEU379      0.0019
     56  CD1       40.3020  -11.2090    5.6730 C.3   379  LEU379      0.0001
     57  CD2       39.8200  -13.6540    5.9410 C.3   379  LEU379      0.0001
     58  N         34.0240  -16.4640    3.1970 N.3   381  ARG381     -0.1245
     59  CA        33.1690  -17.0550    4.2300 C.3   381  ARG381      0.1563
     60  C         32.0500  -17.8580    3.5780 C.2   381  ARG381      0.2260
     61  O         31.8580  -17.7640    2.3680 O.2   381  ARG381     -0.2867
     62  CB        32.5620  -15.9390    5.1130 C.3   381  ARG381      0.0307
     63  CG        31.6190  -14.9740    4.3910 C.3   381  ARG381      0.0489
     64  CD        30.7010  -14.2420    5.3410 C.3   381  ARG381      0.2205
     65  NE        29.7690  -15.1400    6.0210 N.pl3 381  ARG381     -0.0865
     66  CZ        29.3140  -14.9450    7.2510 C.cat 381  ARG381      0.5346
     67  NH1       29.7010  -13.8860    7.9480 N.pl3 381  ARG381      0.1354
     68  NH2       28.4670  -15.8120    7.7970 N.pl3 381  ARG381      0.1354
     69  N         23.1180   -4.9190    4.8250 N.3   402  SER402     -0.1217
     70  CA        24.1500   -5.9500    4.9400 C.3   402  SER402      0.1889
     71  C         24.8210   -6.2970    3.6100 C.2   402  SER402      0.2288
     72  O         26.0170   -6.5760    3.6080 O.2   402  SER402     -0.2866
     73  CB        23.6160   -7.2070    5.6240 C.3   402  SER402      0.2089
     74  OG        22.8460   -8.0150    4.7490 O.3   402  SER402     -0.2183
     75  N         27.7760   -3.7620    2.8650 N.3   405  GLY405     -0.1210
     76  CA        28.9150   -4.0820    3.7160 C.3   405  GLY405      0.1956
     77  C         29.6020   -5.3480    3.2250 C.2   405  GLY405      0.2611
     78  O         30.8320   -5.4010    3.1660 O.2   405  GLY405     -0.2717
     79  N         28.7970   -6.3500    2.7940 N.am  406  ASN406     -0.1974
     80  CA        29.2740   -7.6310    2.2760 C.3   406  ASN406      0.1688
     81  C         29.9930   -7.4890    0.9450 C.2   406  ASN406      0.2292
     82  O         30.9740   -8.2020    0.7350 O.2   406  ASN406     -0.2864
     83  CB        28.1700   -8.6850    2.2240 C.3   406  ASN406      0.1181
     84  CG        27.8880   -9.3530    3.5590 C.2   406  ASN406      0.2629
     85  OD1       28.7680   -9.5240    4.4170 O.2   406  ASN406     -0.2716
     86  ND2       26.6560   -9.7750    3.7540 N.am  406  ASN406     -0.0877
     87  N         33.4890   -5.6870    2.0780 N.3   409  MET409     -0.1230
     88  CA        34.4040   -6.5670    2.7840 C.3   409  MET409      0.1702
     89  C         34.7570   -7.8570    2.0410 C.2   409  MET409      0.2592
     90  O         35.8800   -8.3410    2.2000 O.2   409  MET409     -0.2718
     91  CB        33.8620   -6.8480    4.1950 C.3   409  MET409      0.0401
     92  CG        33.6030   -5.5520    4.9980 C.3   409  MET409      0.0596
     93  SD        35.0690   -4.5040    5.2840 S.3   409  MET409     -0.1393
     94  CE        35.4410   -4.9500    6.8940 C.3   409  MET409      0.0692
     95  N         33.8400   -8.3940    1.2330 N.am  410  TYR410     -0.1976
     96  CA        34.0780   -9.6350    0.4890 C.3   410  TYR410      0.1639
     97  C         34.0770   -9.4340   -1.0300 C.2   410  TYR410      0.2290
     98  O         33.7370  -10.3530   -1.7740 O.2   410  TYR410     -0.2864
     99  CB        33.1030  -10.7450    0.9160 C.3   410  TYR410      0.0560
    100  CG        33.1670  -11.0920    2.3880 C.ar  410  TYR410     -0.0198
    101  CD1       34.1710  -11.9160    2.8880 C.ar  410  TYR410     -0.0009
    102  CD2       32.2070  -10.6130    3.2810 C.ar  410  TYR410     -0.0009
    103  CE1       34.2360  -12.2370    4.2450 C.ar  410  TYR410      0.0417
    104  CE2       32.2530  -10.9380    4.6350 C.ar  410  TYR410      0.0417
    105  CZ        33.2720  -11.7490    5.1140 C.ar  410  TYR410      0.1957
    106  OH        33.3240  -12.0650    6.4520 O.3   410  TYR410     -0.2866
    107  N         27.4310   -1.2920    7.7140 N.3   441  GLN441     -0.1231
    108  CA        28.3410   -1.4190    8.8450 C.3   441  GLN441      0.1698
    109  C         29.6780   -2.0260    8.4880 C.2   441  GLN441      0.2592
    110  O         29.7460   -3.0450    7.7990 O.2   441  GLN441     -0.2718
    111  CB        27.6950   -2.1770   10.0090 C.3   441  GLN441      0.0381
    112  CG        26.7750   -1.2880   10.8290 C.3   441  GLN441      0.0905
    113  CD        26.2290   -1.9370   12.0730 C.2   441  GLN441      0.2608
    114  OE1       26.2410   -3.1630   12.2390 O.2   441  GLN441     -0.2717
    115  NE2       25.7060   -1.1150   12.9670 N.am  441  GLN441     -0.0878
    116  N         30.7450   -1.3720    8.9580 N.am  442  ILE442     -0.1966
    117  CA        32.1340   -1.7980    8.7960 C.3   442  ILE442      0.1727
    118  C         32.7060   -1.7720   10.2110 C.2   442  ILE442      0.2616
    119  O         32.7540   -0.7060   10.8360 O.2   442  ILE442     -0.2715
    120  CB        32.9260   -0.9220    7.7730 C.3   442  ILE442      0.0290
    121  CG1       32.3530   -1.0960    6.3480 C.3   442  ILE442      0.0022
    122  CG2       34.4410   -1.2420    7.7820 C.3   442  ILE442      0.0023
    123  CD1       32.3650    0.1460    5.5260 C.3   442  ILE442      0.0001
    124  N         33.0490   -2.9700   10.7400 N.am  443  TYR443     -0.1960
    125  CA        33.5700   -3.1950   12.0880 C.3   443  TYR443      0.1771
    126  C         32.6650   -2.5860   13.1860 C.2   443  TYR443      0.2620
    127  O         33.1580   -2.0500   14.1800 O.2   443  TYR443     -0.2715
    128  CB        35.0390   -2.7330   12.2160 C.3   443  TYR443      0.0574
    129  CG        36.0500   -3.4850   11.3710 C.ar  443  TYR443     -0.0198
    130  CD1       35.7820   -4.7730   10.9040 C.ar  443  TYR443     -0.0009
    131  CD2       37.3180   -2.9580   11.1330 C.ar  443  TYR443     -0.0009
    132  CE1       36.7300   -5.4880   10.1680 C.ar  443  TYR443      0.0417
    133  CE2       38.2820   -3.6780   10.4290 C.ar  443  TYR443      0.0417
    134  CZ        37.9770   -4.9330    9.9230 C.ar  443  TYR443      0.1957
    135  OH        38.9180   -5.6270    9.1930 O.3   443  TYR443     -0.2866
    136  N         31.3480   -2.6730   12.9780 N.am  444  GLY444     -0.1954
    137  CA        30.3340   -2.1900   13.9100 C.3   444  GLY444      0.1869
    138  C         29.9540   -0.7280   13.7980 C.2   444  GLY444      0.2309
    139  O         28.9760   -0.3050   14.4290 O.2   444  GLY444     -0.2863
@<TRIPOS>BOND
     1    98    97    2
     2    97    96    1
     3    96    99    1
     4    96    95    1
     5    82    81    2
     6    99   100    1
     7    81    80    1
     8    95    89   am
     9    53    52    2
    10    50    51    1
    11    89    90    2
    12    89    88    1
    13    87    88    1
    14    52    51    1
    15    83    80    1
    16    83    84    1
    17    80    79    1
    18    61    60    2
    19   100   101   ar
    20   100   102   ar
    21    51    54    1
    22    88    91    1
    23    79    77   am
    24    75    76    1
    25   101   103   ar
    26    78    77    2
    27    58    59    1
    28    77    76    1
    29   102   104   ar
    30    84    86   am
    31    84    85    2
    32    60    59    1
    33    72    71    2
    34    71    70    1
    35    16    17    1
    36    16    13    1
    37    54    55    1
    38    17    18    1
    39    14    15    2
    40    14    13    1
    41    18    12    1
    42    91    92    1
    43    59    62    1
    44   103   105   ar
    45    63    62    1
    46    63    64    1
    47    13    12    1
    48   104   105   ar
    49    74    73    1
    50    69    70    1
    51    70    73    1
    52    55    56    1
    53    55    57    1
    54    92    93    1
    55   105   106    1
    56    93    94    1
    57    64    65    1
    58   123   121    1
    59    65    66    2
    60   121   120    1
    61    19    20    1
    62    21    20    1
    63    21    22    2
    64    66    68    1
    65    66    67    1
    66    20    23    1
    67    48    49    1
    68    48    45    1
    69    45    46    1
    70    45    44    1
    71    46    47    2
    72    23    24    1
    73   107   108    1
    74   120   122    1
    75   120   117    1
    76   110   109    2
    77   109   108    1
    78   109   116   am
    79   117   116    1
    80   117   118    1
    81    24    25    1
    82   108   111    1
    83    25    26    1
    84   135   134    1
    85    26    27    2
    86   134   132   ar
    87   134   133   ar
    88   111   112    1
    89   132   130   ar
    90    41    40    2
    91   118   124   am
    92   118   119    2
    93   133   131   ar
    94   124   125    1
    95   112   113    1
    96   130   129   ar
    97    40    39    1
    98   131   129   ar
    99    27    29    1
   100    27    28    1
   101   129   128    1
   102    42    39    1
   103    42    43    1
   104   113   114    2
   105   113   115   am
   106   125   128    1
   107   125   126    1
   108    39    38    1
   109     4     3    2
   110     3     2    1
   111   136   126   am
   112   136   137    1
   113   126   127    2
   114    37    35   am
   115     2     1    1
   116     2     5    1
   117   138   137    1
   118   138   139    2
   119     7     9   ar
   120     7     6   ar
   121    36    35    2
   122    35    34    1
   123     9    11   ar
   124     5     6    1
   125     6     8   ar
   126    34    31    1
   127    11    10   ar
   128     8    10   ar
   129    31    30    1
   130    31    32    1
   131    33    32    2
