@<TRIPOS>MOLECULE
tmp/4ih8A00.pdb
 183 172 0 0 0
SMALL
GASTEIGER

@<TRIPOS>ATOM
      1  N         -3.4510   -5.3490   99.4160 N.3    13  LEU13      -0.1231
      2  CA        -3.5060   -5.7110   98.0020 C.3    13  LEU13       0.1693
      3  C         -3.6470   -4.5080   97.0720 C.2    13  LEU13       0.2593
      4  O         -3.2110   -4.5520   95.9210 O.2    13  LEU13      -0.2718
      5  CB        -4.6130   -6.7410   97.7390 C.3    13  LEU13       0.0284
      6  CG        -4.4430   -8.1040   98.4110 C.3    13  LEU13       0.0019
      7  CD1       -5.6850   -8.9650   98.2180 C.3    13  LEU13       0.0001
      8  CD2       -3.2150   -8.8140   97.8690 C.3    13  LEU13       0.0001
      9  N         -4.2570   -3.4380   97.5700 N.am   14  GLY14      -0.1942
     10  CA        -4.3690   -2.2120   96.8040 C.3    14  GLY14       0.2014
     11  C         -5.6880   -1.4990   97.0100 C.2    14  GLY14       0.2639
     12  O         -6.5450   -1.9530   97.7680 O.2    14  GLY14      -0.2714
     13  N         -5.8440   -0.3710   96.3260 N.am   15  LYS15      -0.1963
     14  CA        -7.0940    0.3710   96.3440 C.3    15  LYS15       0.1728
     15  C         -8.0180   -0.2180   95.2880 C.2    15  LYS15       0.2616
     16  O         -7.6280   -0.3740   94.1310 O.2    15  LYS15      -0.2715
     17  CB        -6.8420    1.8550   96.0780 C.3    15  LYS15       0.0311
     18  CG        -8.0910    2.7040   96.2440 C.3    15  LYS15       0.0038
     19  CD        -8.2810    2.9750   97.7530 C.3    15  LYS15       0.0206
     20  CE        -9.3200    4.0790   97.8900 C.3    15  LYS15       0.1093
     21  NZ        -9.7650    4.1120   99.3020 N.3    15  LYS15      -0.1314
     22  N         -9.2420   -0.5450   95.6880 N.am   16  GLY16      -0.1955
     23  CA       -10.2670   -0.9150   94.7320 C.3    16  GLY16       0.1869
     24  C        -11.4900   -0.0360   94.8630 C.2    16  GLY16       0.2309
     25  O        -11.5220    0.8810   95.6850 O.2    16  GLY16      -0.2863
     26  N         -8.4940   -3.0870   99.6110 N.3    21  VAL21      -0.1245
     27  CA        -8.5840   -4.5420   99.7200 C.3    21  VAL21       0.1561
     28  C         -7.3660   -5.1180  100.4410 C.2    21  VAL21       0.2260
     29  O         -6.2230   -4.8470  100.0730 O.2    21  VAL21      -0.2867
     30  CB        -8.7570   -5.2020   98.3390 C.3    21  VAL21       0.0252
     31  CG1       -8.8290   -6.7150   98.4800 C.3    21  VAL21       0.0019
     32  CG2      -10.0010   -4.6660   97.6500 C.3    21  VAL21       0.0019
     33  N         -9.2510  -12.6020  100.3600 N.3    34  ALA34      -0.1245
     34  CA        -9.2050  -11.1870  100.0080 C.3    34  ALA34       0.1562
     35  C        -10.4180  -10.4410  100.5650 C.2    34  ALA34       0.2260
     36  O        -11.5580  -10.8480  100.3480 O.2    34  ALA34      -0.2867
     37  CB        -9.1440  -11.0460   98.5220 C.3    34  ALA34       0.0290
     38  N        -12.5270   -6.7560  101.0320 N.3    36  LYS36      -0.1245
     39  CA       -12.7660   -5.3410  100.7520 C.3    36  LYS36       0.1561
     40  C        -13.3360   -4.6550  101.9810 C.2    36  LYS36       0.2260
     41  O        -14.3610   -5.0720  102.5220 O.2    36  LYS36      -0.2867
     42  CB       -13.6990   -5.1480   99.5580 C.3    36  LYS36       0.0271
     43  CG       -13.8110   -3.6780   99.1160 C.3    36  LYS36       0.0035
     44  CD       -14.2620   -3.5320   97.6710 C.3    36  LYS36       0.0206
     45  CE       -13.0600   -3.3390   96.7490 C.3    36  LYS36       0.1093
     46  NZ       -13.4370   -3.1610   95.3210 N.3    36  LYS36      -0.1314
     47  N        -25.4600  -13.5310   97.0580 N.3    59  LEU59      -0.1245
     48  CA       -24.0900  -13.6050   96.5630 C.3    59  LEU59       0.1561
     49  C        -23.3190  -14.7850   97.1590 C.2    59  LEU59       0.2260
     50  O        -22.5920  -15.4820   96.4500 O.2    59  LEU59      -0.2867
     51  CB       -23.3500  -12.2860   96.7970 C.3    59  LEU59       0.0270
     52  CG       -23.7700  -11.1470   95.8610 C.3    59  LEU59       0.0019
     53  CD1      -23.2230   -9.8170   96.3510 C.3    59  LEU59       0.0001
     54  CD2      -23.3160  -11.4180   94.4340 C.3    59  LEU59       0.0001
     55  N        -15.9600  -13.9870   91.0140 N.3    68  MET68      -0.1245
     56  CA       -15.3640  -14.0760   92.3340 C.3    68  MET68       0.1570
     57  C        -16.3340  -14.6470   93.3660 C.2    68  MET68       0.2261
     58  O        -17.4830  -14.2140   93.4610 O.2    68  MET68      -0.2867
     59  CB       -14.8510  -12.7320   92.8210 C.3    68  MET68       0.0387
     60  CG       -14.4170  -12.8450   94.2580 C.3    68  MET68       0.0595
     61  SD       -13.8330  -11.3540   95.0480 S.3    68  MET68      -0.1393
     62  CE       -13.8050  -12.0060   96.7120 C.3    68  MET68       0.0692
     63  N        -17.8520  -15.0080   96.9230 N.3    70  LEU70      -0.1245
     64  CA       -17.9800  -14.2740   98.1790 C.3    70  LEU70       0.1561
     65  C        -18.2780  -15.2470   99.3160 C.2    70  LEU70       0.2260
     66  O        -19.2060  -16.0510   99.2260 O.2    70  LEU70      -0.2867
     67  CB       -19.0890  -13.2220   98.0810 C.3    70  LEU70       0.0270
     68  CG       -19.3700  -12.4100   99.3480 C.3    70  LEU70       0.0019
     69  CD1      -18.2720  -11.3790   99.5710 C.3    70  LEU70       0.0001
     70  CD2      -20.7340  -11.7370   99.2740 C.3    70  LEU70       0.0001
     71  N        -16.1830   -7.2530  103.2850 N.3    82  LEU82      -0.1245
     72  CA       -16.6200   -8.2780  102.3500 C.3    82  LEU82       0.1561
     73  C        -15.4920   -9.2510  102.0310 C.2    82  LEU82       0.2260
     74  O        -14.5140   -8.8970  101.3700 O.2    82  LEU82      -0.2867
     75  CB       -17.0970   -7.6190  101.0580 C.3    82  LEU82       0.0270
     76  CG       -18.3360   -6.7460  101.2620 C.3    82  LEU82       0.0019
     77  CD1      -18.2890   -5.4900  100.4040 C.3    82  LEU82       0.0001
     78  CD2      -19.5890   -7.5560  100.9650 C.3    82  LEU82       0.0001
     79  N        -13.9100  -12.6630  100.4260 N.3    84  GLY84      -0.1210
     80  CA       -14.0600  -13.6450   99.3680 C.3    84  GLY84       0.1956
     81  C        -12.7320  -14.2350   98.9300 C.2    84  GLY84       0.2612
     82  O        -11.6890  -13.9560   99.5240 O.2    84  GLY84      -0.2717
     83  N        -12.7690  -15.0550   97.8860 N.am   85  GLU85      -0.1965
     84  CA       -11.5760  -15.7610   97.4350 C.3    85  GLU85       0.1733
     85  C        -10.5090  -14.8450   96.8340 C.2    85  GLU85       0.2616
     86  O        -10.8170  -13.8990   96.1080 O.2    85  GLU85      -0.2715
     87  CB       -11.9960  -16.8060   96.4020 C.3    85  GLU85       0.0429
     88  CG       -10.8840  -17.7510   95.9750 C.3    85  GLU85       0.1163
     89  CD       -11.3720  -18.8420   95.0400 C.2    85  GLU85       0.3649
     90  OE1      -12.5250  -18.7500   94.5660 O.co2  85  GLU85      -0.2457
     91  OE2      -10.6020  -19.7890   94.7780 O.co2  85  GLU85      -0.2457
     92  N         -9.2550  -15.1440   97.1580 N.am   86  VAL86      -0.1963
     93  CA        -8.1510  -14.3820   96.5880 C.3    86  VAL86       0.1727
     94  C         -7.6930  -14.9780   95.2580 C.2    86  VAL86       0.2616
     95  O         -7.5760  -16.1920   95.0910 O.2    86  VAL86      -0.2715
     96  CB        -6.9460  -14.2330   97.5530 C.3    86  VAL86       0.0290
     97  CG1       -6.9450  -15.3170   98.6170 C.3    86  VAL86       0.0023
     98  CG2       -5.6350  -14.2230   96.7730 C.3    86  VAL86       0.0023
     99  N         -7.4560  -14.0930   94.2990 N.am   87  TYR87      -0.1974
    100  CA        -6.9230  -14.4880   92.9980 C.3    87  TYR87       0.1639
    101  C         -5.5560  -13.8340   92.7880 C.2    87  TYR87       0.2290
    102  O         -5.3410  -12.6740   93.1400 O.2    87  TYR87      -0.2864
    103  CB        -7.9190  -14.2020   91.8720 C.3    87  TYR87       0.0560
    104  CG        -9.2810  -14.8020   92.1570 C.ar   87  TYR87      -0.0198
    105  CD1       -9.4530  -16.1810   92.1920 C.ar   87  TYR87      -0.0009
    106  CD2      -10.3860  -13.9990   92.4010 C.ar   87  TYR87      -0.0009
    107  CE1      -10.6890  -16.7440   92.4550 C.ar   87  TYR87       0.0417
    108  CE2      -11.6260  -14.5540   92.6670 C.ar   87  TYR87       0.0417
    109  CZ       -11.7720  -15.9260   92.6920 C.ar   87  TYR87       0.1957
    110  OH       -13.0040  -16.4790   92.9570 O.3    87  TYR87      -0.2866
    111  N         -4.2290   -8.3830   87.3150 N.3    91  GLU91      -0.1245
    112  CA        -5.1740   -7.8470   86.3460 C.3    91  GLU91       0.1567
    113  C         -4.8500   -8.3270   84.9370 C.2    91  GLU91       0.2260
    114  O         -3.6910   -8.3810   84.5260 O.2    91  GLU91      -0.2867
    115  CB        -5.1980   -6.3170   86.4120 C.3    91  GLU91       0.0388
    116  CG        -5.8850   -5.7690   87.6570 C.3    91  GLU91       0.1160
    117  CD        -5.5430   -4.3170   87.9290 C.2    91  GLU91       0.3649
    118  OE1       -4.9470   -3.6680   87.0430 O.co2  91  GLU91      -0.2457
    119  OE2       -5.8660   -3.8250   89.0310 O.co2  91  GLU91      -0.2457
    120  N         -9.8700   -3.4290   85.2730 N.3   134  GLU134     -0.1245
    121  CA        -9.3610   -3.6630   86.6220 C.3   134  GLU134      0.1567
    122  C        -10.2790   -4.5630   87.4600 C.2   134  GLU134      0.2260
    123  O         -9.8640   -5.0940   88.4910 O.2   134  GLU134     -0.2867
    124  CB        -9.0360   -2.3470   87.3420 C.3   134  GLU134      0.0388
    125  CG        -8.9320   -2.4590   88.8580 C.3   134  GLU134      0.1160
    126  CD        -8.5620   -1.1420   89.5160 C.2   134  GLU134      0.3649
    127  OE1       -8.1580   -0.2060   88.7930 O.co2 134  GLU134     -0.2457
    128  OE2       -8.6810   -1.0410   90.7550 O.co2 134  GLU134     -0.2457
    129  N         -9.7570  -10.0830   87.2710 N.3   137  LEU137     -0.1245
    130  CA        -8.5850  -10.7490   87.8250 C.3   137  LEU137      0.1561
    131  C         -8.3990  -12.1200   87.1880 C.2   137  LEU137      0.2260
    132  O         -9.3730  -12.7670   86.8040 O.2   137  LEU137     -0.2867
    133  CB        -8.7170  -10.8990   89.3410 C.3   137  LEU137      0.0270
    134  CG        -8.8640   -9.6030   90.1360 C.3   137  LEU137      0.0019
    135  CD1       -8.8560   -9.8980   91.6250 C.3   137  LEU137      0.0001
    136  CD2       -7.7660   -8.6140   89.7740 C.3   137  LEU137      0.0001
    137  N        -14.4200  -12.1000   87.6860 N.3   147  ILE147     -0.1231
    138  CA       -14.9230  -10.7320   87.7710 C.3   147  ILE147      0.1692
    139  C        -15.1900  -10.3420   89.2230 C.2   147  ILE147      0.2592
    140  O        -15.9040  -11.0370   89.9480 O.2   147  ILE147     -0.2718
    141  CB       -16.2200  -10.5500   86.9570 C.3   147  ILE147      0.0266
    142  CG1      -15.9820  -10.9150   85.4900 C.3   147  ILE147      0.0019
    143  CG2      -16.7250   -9.1130   87.0680 C.3   147  ILE147      0.0020
    144  CD1      -17.2530  -11.0270   84.6750 C.3   147  ILE147      0.0001
    145  N        -14.6000   -9.2220   89.6310 N.am  148  ILE148     -0.1966
    146  CA       -14.7780   -8.6760   90.9760 C.3   148  ILE148      0.1727
    147  C        -15.7500   -7.4960   91.0230 C.2   148  ILE148      0.2616
    148  O        -15.9960   -6.8400   90.0130 O.2   148  ILE148     -0.2715
    149  CB       -13.4280   -8.2560   91.5950 C.3   148  ILE148      0.0290
    150  CG1      -12.6990   -7.2770   90.6740 C.3   148  ILE148      0.0022
    151  CG2      -12.5580   -9.4750   91.8480 C.3   148  ILE148      0.0023
    152  CD1      -11.5690   -6.5280   91.3420 C.3   148  ILE148      0.0001
    153  N        -16.3040   -7.2610   92.2110 N.am  149  ASP149     -0.1957
    154  CA       -17.1360   -6.0830   92.5080 C.3   149  ASP149      0.1840
    155  C        -18.5990   -6.1340   92.0390 C.2   149  ASP149      0.2622
    156  O        -19.3190   -5.1390   92.1290 O.2   149  ASP149     -0.2715
    157  CB       -16.4510   -4.7780   92.0700 C.3   149  ASP149      0.1450
    158  CG       -15.2460   -4.4300   92.9280 C.2   149  ASP149      0.3671
    159  OD1      -15.0840   -5.0310   94.0120 O.co2 149  ASP149     -0.2456
    160  OD2      -14.4500   -3.5610   92.5110 O.co2 149  ASP149     -0.2456
    161  N        -19.0320   -7.2840   91.5370 N.am  150  PHE150     -0.1960
    162  CA       -20.4360   -7.4840   91.1870 C.3   150  PHE150      0.1771
    163  C        -21.3630   -7.1450   92.3620 C.2   150  PHE150      0.2620
    164  O        -21.1830   -7.6660   93.4560 O.2   150  PHE150     -0.2715
    165  CB       -20.6830   -8.9310   90.7520 C.3   150  PHE150      0.0574
    166  CG       -20.9710   -9.0860   89.2870 C.ar  150  PHE150     -0.0200
    167  CD1      -22.2160   -8.7660   88.7720 C.ar  150  PHE150     -0.0042
    168  CD2      -19.9910   -9.5480   88.4220 C.ar  150  PHE150     -0.0042
    169  CE1      -22.4840   -8.9090   87.4220 C.ar  150  PHE150     -0.0003
    170  CE2      -20.2490   -9.6910   87.0710 C.ar  150  PHE150     -0.0003
    171  CZ       -21.4990   -9.3720   86.5690 C.ar  150  PHE150     -0.0000
    172  N        -22.3660   -6.2990   92.1440 N.am  151  GLY151     -0.1940
    173  CA       -23.3530   -6.0450   93.1840 C.3   151  GLY151      0.2014
    174  C        -23.1110   -4.8470   94.0910 C.2   151  GLY151      0.2638
    175  O        -23.9520   -4.5290   94.9310 O.2   151  GLY151     -0.2714
    176  N        -21.9690   -4.1850   93.9390 N.am  152  LEU152     -0.1977
    177  CA       -21.6340   -3.0230   94.7660 C.3   152  LEU152      0.1596
    178  C        -22.3450   -1.7270   94.3780 C.2   152  LEU152      0.2287
    179  O        -22.8460   -1.0100   95.2430 O.2   152  LEU152     -0.2864
    180  CB       -20.1200   -2.7870   94.7830 C.3   152  LEU152      0.0297
    181  CG       -19.2510   -3.7910   95.5430 C.3   152  LEU152      0.0022
    182  CD1      -17.8300   -3.2700   95.6410 C.3   152  LEU152      0.0001
    183  CD2      -19.8070   -4.0510   96.9350 C.3   152  LEU152      0.0001
@<TRIPOS>BOND
     1   114   113    2
     2   144   142    1
     3   113   112    1
     4   120   121    1
     5   142   141    1
     6   112   115    1
     7   112   111    1
     8   115   116    1
     9   171   170   ar
    10   171   169   ar
    11   121   124    1
    12   121   122    1
    13   132   131    2
    14   141   143    1
    15   141   138    1
    16   118   117   ar
    17   170   168   ar
    18   131   130    1
    19   129   130    1
    20   124   125    1
    21   169   167   ar
    22   122   123    2
    23   116   117    1
    24   137   138    1
    25   138   139    1
    26   130   133    1
    27   117   119   ar
    28   168   166   ar
    29   167   166   ar
    30   127   126   ar
    31   125   126    1
    32   139   145   am
    33   139   140    2
    34   166   165    1
    35   133   134    1
    36   126   128   ar
    37   145   146    1
    38   136   134    1
    39   148   147    2
    40   134   135    1
    41   150   152    1
    42   150   149    1
    43   165   162    1
    44   146   147    1
    45   146   149    1
    46    55    56    1
    47   147   153   am
    48   162   161    1
    49   162   163    1
    50   161   155   am
    51   149   151    1
    52   103   104    1
    53   103   100    1
    54   155   156    2
    55   155   154    1
    56   157   154    1
    57   157   158    1
    58   172   163   am
    59   172   173    1
    60   104   105   ar
    61   104   106   ar
    62   105   107   ar
    63   153   154    1
    64    56    59    1
    65    56    57    1
    66   163   164    2
    67   106   108   ar
    68   107   109   ar
    69   160   158   ar
    70   108   109   ar
    71   109   110    1
    72   101   100    1
    73   101   102    2
    74    59    60    1
    75   158   159   ar
    76   100    99    1
    77   173   174    1
    78    57    58    2
    79   176   174   am
    80   176   177    1
    81   174   175    2
    82    16    15    2
    83    60    61    1
    84    99    94   am
    85   178   177    1
    86   178   179    2
    87    54    52    1
    88    90    89   ar
    89    23    24    1
    90    23    22    1
    91   177   180    1
    92    91    89   ar
    93   180   181    1
    94    24    25    2
    95    89    88    1
    96    61    62    1
    97    95    94    2
    98    94    93    1
    99    15    22   am
   100    15    14    1
   101    46    45    1
   102   181   182    1
   103   181   183    1
   104    52    53    1
   105    52    51    1
   106     4     3    2
   107    88    87    1
   108    17    18    1
   109    17    14    1
   110    86    85    2
   111    18    19    1
   112    13    14    1
   113    13    11   am
   114    87    84    1
   115    50    49    2
   116    48    51    1
   117    48    47    1
   118    48    49    1
   119    93    92    1
   120    93    96    1
   121    45    44    1
   122    98    96    1
   123    10    11    1
   124    10     9    1
   125    85    92   am
   126    85    84    1
   127    63    64    1
   128    11    12    2
   129     3     9   am
   130     3     2    1
   131    84    83    1
   132    96    97    1
   133    32    30    1
   134    44    43    1
   135     5     2    1
   136     5     6    1
   137    19    20    1
   138     8     6    1
   139    83    81   am
   140    20    21    1
   141     2     1    1
   142    67    64    1
   143    67    68    1
   144    64    65    1
   145     7     6    1
   146    30    31    1
   147    30    27    1
   148    37    34    1
   149    81    80    1
   150    81    82    2
   151    43    42    1
   152    66    65    2
   153    70    68    1
   154    68    69    1
   155    80    79    1
   156    42    39    1
   157    26    27    1
   158    27    28    1
   159    34    33    1
   160    34    35    1
   161    29    28    2
   162    36    35    2
   163    77    76    1
   164    39    38    1
   165    39    40    1
   166    78    76    1
   167    75    76    1
   168    75    72    1
   169    74    73    2
   170    40    41    2
   171    73    72    1
   172    72    71    1
