@<TRIPOS>MOLECULE
tmp/4ihaA00.pdb
 105 102 0 0 0
SMALL
GASTEIGER

@<TRIPOS>ATOM
      1  N        -22.9560   12.1760  -16.2570 N.3    28  PHE28      -0.1241
      2  CA       -24.1550   11.7090  -15.5730 C.3    28  PHE28       0.1605
      3  C        -24.5250   10.2920  -15.9480 C.2    28  PHE28       0.2264
      4  O        -24.5140    9.9280  -17.1240 O.2    28  PHE28      -0.2867
      5  CB       -25.2970   12.6710  -15.9090 C.3    28  PHE28       0.0534
      6  CG       -26.6290   12.2170  -15.3930 C.ar   28  PHE28      -0.0203
      7  CD1      -26.9970   12.4370  -14.0920 C.ar   28  PHE28      -0.0042
      8  CD2      -27.4730   11.5270  -16.2300 C.ar   28  PHE28      -0.0042
      9  CE1      -28.2160   11.9760  -13.6360 C.ar   28  PHE28      -0.0003
     10  CE2      -28.7030   11.0730  -15.7740 C.ar   28  PHE28      -0.0003
     11  CZ       -29.0710   11.3070  -14.4900 C.ar   28  PHE28      -0.0000
     12  N        -16.6000   14.2080  -19.9190 N.3    96  HIS96      -0.1226
     13  CA       -17.8460   13.9240  -20.6120 C.3    96  HIS96       0.1752
     14  C        -18.9970   14.6260  -19.9060 C.2    96  HIS96       0.2597
     15  O        -19.1900   14.4910  -18.6840 O.2    96  HIS96      -0.2718
     16  CB       -18.0850   12.4230  -20.6390 C.3    96  HIS96       0.0759
     17  CG       -19.4230   12.0540  -21.2000 C.ar   96  HIS96       0.0818
     18  ND1      -20.3910   11.3930  -20.4610 N.ar   96  HIS96      -0.2268
     19  CD2      -19.9380   12.2290  -22.4410 C.ar   96  HIS96       0.1154
     20  CE1      -21.4640   11.2210  -21.2210 C.ar   96  HIS96       0.1986
     21  NE2      -21.2190   11.7190  -22.4250 N.ar   96  HIS96      -0.2212
     22  N        -19.8220   15.3360  -20.7640 N.am   97  SER97      -0.1938
     23  CA       -21.0870   15.9170  -20.3700 C.3    97  SER97       0.2055
     24  C        -20.9510   16.8640  -19.2070 C.2    97  SER97       0.2642
     25  O        -20.0680   17.7130  -19.1620 O.2    97  SER97      -0.2714
     26  CB       -22.0230   14.7370  -20.1200 C.3    97  SER97       0.2130
     27  OG       -23.3250   15.2460  -20.1510 O.3    97  SER97      -0.2179
     28  N        -21.4570   16.5050  -17.8920 N.am   98  VAL98      -0.1977
     29  CA       -21.3120   17.4160  -16.7020 C.3    98  VAL98       0.1596
     30  C        -19.8280   17.5740  -16.4100 C.2    98  VAL98       0.2287
     31  O        -19.4090   18.6190  -15.9210 O.2    98  VAL98      -0.2864
     32  CB       -22.0700   16.9060  -15.4870 C.3    98  VAL98       0.0276
     33  CG1      -21.6150   15.5350  -15.0070 C.3    98  VAL98       0.0022
     34  CG2      -21.9550   17.8900  -14.3270 C.3    98  VAL98       0.0022
     35  N        -18.2920   20.4660  -18.2240 N.3   101  MET101     -0.1245
     36  CA       -18.5810   21.6770  -17.4860 C.3   101  MET101      0.1570
     37  C        -17.6010   21.8390  -16.3120 C.2   101  MET101      0.2261
     38  O        -17.0320   22.9250  -16.0930 O.2   101  MET101     -0.2867
     39  CB       -20.0360   21.7300  -16.9900 C.3   101  MET101      0.0387
     40  CG       -21.0330   21.7490  -18.0990 C.3   101  MET101      0.0595
     41  SD       -22.7290   21.6540  -17.4560 S.3   101  MET101     -0.1393
     42  CE       -23.3920   23.1680  -18.0660 C.3   101  MET101      0.0692
     43  N        -27.9710   24.2110  -21.1890 N.3   126  PHE126     -0.1241
     44  CA       -28.9590   23.3430  -21.8510 C.3   126  PHE126      0.1605
     45  C        -30.2590   24.0290  -22.1720 C.2   126  PHE126      0.2264
     46  O        -30.9030   23.7030  -23.1940 O.2   126  PHE126     -0.2867
     47  CB       -29.1750   22.0760  -21.0280 C.3   126  PHE126      0.0534
     48  CG       -27.9950   21.1570  -21.0220 C.ar  126  PHE126     -0.0203
     49  CD1      -27.0240   21.2280  -20.0530 C.ar  126  PHE126     -0.0042
     50  CD2      -27.7960   20.2610  -22.0550 C.ar  126  PHE126     -0.0042
     51  CE1      -25.9310   20.3940  -20.1030 C.ar  126  PHE126     -0.0003
     52  CE2      -26.7020   19.4020  -22.0910 C.ar  126  PHE126     -0.0003
     53  CZ       -25.7720   19.4590  -21.1330 C.ar  126  PHE126     -0.0000
     54  N        -34.7170    6.5680  -20.9810 N.3   159  TYR159     -0.1241
     55  CA       -33.6950    7.5400  -21.3040 C.3   159  TYR159      0.1605
     56  C        -32.4610    6.8650  -21.8790 C.2   159  TYR159      0.2264
     57  O        -31.8370    7.4210  -22.7870 O.2   159  TYR159     -0.2867
     58  CB       -33.2960    8.3370  -20.0480 C.3   159  TYR159      0.0534
     59  CG       -32.2110    9.3290  -20.2820 C.ar  159  TYR159     -0.0201
     60  CD1      -32.3430   10.2720  -21.2760 C.ar  159  TYR159     -0.0009
     61  CD2      -31.0300    9.2690  -19.5870 C.ar  159  TYR159     -0.0009
     62  CE1      -31.3630   11.1610  -21.5540 C.ar  159  TYR159      0.0417
     63  CE2      -30.0110   10.1850  -19.8430 C.ar  159  TYR159      0.0417
     64  CZ       -30.2060   11.1310  -20.8370 C.ar  159  TYR159      0.1957
     65  OH       -29.2140   12.0430  -21.1200 O.3   159  TYR159     -0.2866
     66  N        -29.2430   16.4840  -12.0160 N.3   191  CYS191     -0.1235
     67  CA       -29.8810   16.9970  -13.2110 C.3   191  CYS191      0.1677
     68  C        -30.3400   18.4240  -12.9790 C.2   191  CYS191      0.2270
     69  O        -30.2020   19.2930  -13.8440 O.2   191  CYS191     -0.2867
     70  CB       -31.0700   16.1260  -13.5520 C.3   191  CYS191      0.0956
     71  SG       -30.5240   14.5300  -14.2390 S.3   191  CYS191     -0.0801
     72  N        -27.2800   20.7220  -13.0560 N.3   194  VAL194     -0.1231
     73  CA       -26.7820   20.9280  -14.4160 C.3   194  VAL194      0.1692
     74  C        -27.6550   21.8980  -15.1830 C.2   194  VAL194      0.2592
     75  O        -27.1610   22.8040  -15.8400 O.2   194  VAL194     -0.2718
     76  CB       -26.6350   19.5730  -15.1750 C.3   194  VAL194      0.0266
     77  CG1      -26.3980   19.7840  -16.6790 C.3   194  VAL194      0.0020
     78  CG2      -25.4710   18.7380  -14.5480 C.3   194  VAL194      0.0020
     79  N        -28.9740   21.7380  -15.0730 N.am  195  PHE195     -0.1976
     80  CA       -29.8750   22.5980  -15.8150 C.3   195  PHE195      0.1639
     81  C        -29.9700   24.0130  -15.2880 C.2   195  PHE195      0.2290
     82  O        -30.4730   24.9000  -16.0090 O.2   195  PHE195     -0.2864
     83  CB       -31.2600   21.9630  -15.8780 C.3   195  PHE195      0.0560
     84  CG       -31.4020   20.9970  -16.9980 C.ar  195  PHE195     -0.0200
     85  CD1      -31.5630   21.4360  -18.3020 C.ar  195  PHE195     -0.0042
     86  CD2      -31.3990   19.6460  -16.7590 C.ar  195  PHE195     -0.0042
     87  CE1      -31.6660   20.5220  -19.3510 C.ar  195  PHE195     -0.0003
     88  CE2      -31.5480   18.7340  -17.8170 C.ar  195  PHE195     -0.0003
     89  CZ       -31.6580   19.2060  -19.1200 C.ar  195  PHE195     -0.0000
     90  N        -28.8250   15.6240  -26.1900 N.3   220  SER220     -0.1217
     91  CA       -28.7160   16.7230  -25.2260 C.3   220  SER220      0.1889
     92  C        -27.8880   17.9050  -25.7220 C.2   220  SER220      0.2288
     93  O        -27.8080   18.9270  -25.0420 O.2   220  SER220     -0.2866
     94  CB       -28.1710   16.2080  -23.8970 C.3   220  SER220      0.2089
     95  OG       -26.7980   15.9130  -24.0130 O.3   220  SER220     -0.2183
     96  N        -24.6590   10.3810  -27.4070 N.3   247  HIS247     -0.1241
     97  CA       -24.1290   11.2040  -26.3180 C.3   247  HIS247      0.1621
     98  C        -23.0070   10.4910  -25.5720 C.2   247  HIS247      0.2264
     99  O        -22.2620   11.1590  -24.8610 O.2   247  HIS247     -0.2867
    100  CB       -25.2650   11.5440  -25.3330 C.3   247  HIS247      0.0745
    101  CG       -24.8480   12.4480  -24.2030 C.ar  247  HIS247      0.0817
    102  ND1      -24.3950   13.7210  -24.4260 N.ar  247  HIS247     -0.2268
    103  CD2      -24.9150   12.3000  -22.8610 C.ar  247  HIS247      0.1154
    104  CE1      -24.1360   14.3050  -23.2700 C.ar  247  HIS247      0.1986
    105  NE2      -24.4530   13.4700  -22.3030 N.ar  247  HIS247     -0.2212
@<TRIPOS>BOND
     1    96    97    1
     2    97    98    1
     3    97   100    1
     4    90    91    1
     5    92    91    1
     6    92    93    2
     7    98    99    2
     8   100   101    1
     9    91    94    1
    10   102   101   ar
    11   102   104   ar
    12   101   103   ar
    13    95    94    1
    14   104   105   ar
    15    46    45    2
    16   103   105   ar
    17    57    56    2
    18    19    21   ar
    19    19    17   ar
    20    21    20   ar
    21    45    44    1
    22    52    50   ar
    23    52    53   ar
    24    50    48   ar
    25    56    55    1
    26    44    43    1
    27    44    47    1
    28    62    60   ar
    29    62    64   ar
    30    55    54    1
    31    55    58    1
    32    60    59   ar
    33    20    18   ar
    34    17    16    1
    35    17    18   ar
    36    53    51   ar
    37    65    64    1
    38    47    48    1
    39    48    49   ar
    40    64    63   ar
    41    22    23    1
    42    22    14   am
    43    16    13    1
    44    13    12    1
    45    13    14    1
    46    23    26    1
    47    23    24    1
    48    59    58    1
    49    59    61   ar
    50    27    26    1
    51    51    49   ar
    52    14    15    2
    53    63    61   ar
    54    87    89   ar
    55    87    85   ar
    56    24    25    2
    57    24    28   am
    58    89    88   ar
    59    85    84   ar
    60    35    36    1
    61    40    41    1
    62    40    39    1
    63    42    41    1
    64    28    29    1
    65    88    86   ar
    66    36    39    1
    67    36    37    1
    68     4     3    2
    69    84    86   ar
    70    84    83    1
    71    29    30    1
    72    29    32    1
    73    77    76    1
    74    30    31    2
    75    37    38    2
    76     1     2    1
    77     8    10   ar
    78     8     6   ar
    79    82    81    2
    80     3     2    1
    81     5     2    1
    82     5     6    1
    83    83    80    1
    84    75    74    2
    85    80    81    1
    86    80    79    1
    87    10    11   ar
    88    32    33    1
    89    32    34    1
    90     6     7   ar
    91    74    79   am
    92    74    73    1
    93    76    78    1
    94    76    73    1
    95    11     9   ar
    96    73    72    1
    97    71    70    1
    98     7     9   ar
    99    69    68    2
   100    70    67    1
   101    67    68    1
   102    67    66    1
