@<TRIPOS>MOLECULE
tmp/4ihfF00.pdb
 70 64 0 0 0
SMALL
GASTEIGER

@<TRIPOS>ATOM
      1  N         31.6280   -0.3480   15.0910 N.3   230  ASP230     -0.1225
      2  CA        32.2910    0.1380   16.3060 C.3   230  ASP230      0.1805
      3  C         32.4090   -0.9990   17.3500 C.2   230  ASP230      0.2597
      4  O         32.2590   -2.1690   17.0060 O.2   230  ASP230     -0.2718
      5  CB        31.4760    1.3010   16.8570 C.3   230  ASP230      0.1424
      6  CG        32.2570    2.1720   17.8170 C.2   230  ASP230      0.3668
      7  OD1       33.4310    1.8590   18.1010 O.co2 230  ASP230     -0.2456
      8  OD2       31.6740    3.1500   18.3250 O.co2 230  ASP230     -0.2456
      9  N         32.7030   -0.6670   18.6090 N.am  231  ASN231     -0.1974
     10  CA        32.9640   -1.6790   19.6320 C.3   231  ASN231      0.1688
     11  C         31.6840   -2.2530   20.2090 C.2   231  ASN231      0.2292
     12  O         30.6280   -1.6110   20.1370 O.2   231  ASN231     -0.2864
     13  CB        33.7120   -1.0900   20.8300 C.3   231  ASN231      0.1181
     14  CG        35.0000   -0.4260   20.4640 C.2   231  ASN231      0.2629
     15  OD1       35.5540   -0.6440   19.3880 O.2   231  ASN231     -0.2716
     16  ND2       35.5120    0.3780   21.3870 N.am  231  ASN231     -0.0877
     17  N         27.4710    2.1290   14.7970 N.3   248  ALA248     -0.1231
     18  CA        28.1440    2.6950   15.9730 C.3   248  ALA248      0.1694
     19  C         28.1020    1.7200   17.1660 C.2   248  ALA248      0.2592
     20  O         27.4950    0.6520   17.0750 O.2   248  ALA248     -0.2718
     21  CB        27.5440    4.0380   16.3420 C.3   248  ALA248      0.0304
     22  N         28.7290    2.0890   18.2830 N.am  249  GLY249     -0.1957
     23  CA        28.9910    1.1290   19.3540 C.3   249  GLY249      0.1869
     24  C         27.7800    0.5750   20.0760 C.2   249  GLY249      0.2309
     25  O         26.7810    1.2700   20.2820 O.2   249  GLY249     -0.2863
     26  N         22.8050    4.2610   14.7410 N.3   266  GLY266     -0.1210
     27  CA        23.3310    4.8920   15.9440 C.3   266  GLY266      0.1956
     28  C         23.6000    3.9050   17.0780 C.2   266  GLY266      0.2612
     29  O         22.9500    2.8580   17.1880 O.2   266  GLY266     -0.2717
     30  N         24.5410    4.2540   17.9470 N.am  267  GLY267     -0.1942
     31  CA        24.9700    3.3350   18.9840 C.3   267  GLY267      0.2014
     32  C         23.8540    2.9220   19.9230 C.2   267  GLY267      0.2638
     33  O         22.8950    3.6780   20.1440 O.2   267  GLY267     -0.2714
     34  N         23.9700    1.7050   20.4510 N.am  268  ALA268     -0.1977
     35  CA        23.0260    1.1660   21.4290 C.3   268  ALA268      0.1597
     36  C         21.6260    0.9080   20.8760 C.2   268  ALA268      0.2287
     37  O         20.6960    0.5970   21.6260 O.2   268  ALA268     -0.2864
     38  CB        22.9790    2.0510   22.6840 C.3   268  ALA268      0.0319
     39  N         18.8060    6.8180   14.8290 N.3   284  THR284     -0.1203
     40  CA        19.5090    7.5710   15.8640 C.3   284  THR284      0.1994
     41  C         19.7220    6.6940   17.0980 C.2   284  THR284      0.2618
     42  O         19.1340    5.6090   17.2120 O.2   284  THR284     -0.2717
     43  CB        18.7520    8.8420   16.2370 C.3   284  THR284      0.1784
     44  OG1       17.4150    8.4930   16.5900 O.3   284  THR284     -0.2211
     45  CG2       18.6930    9.7930   15.0530 C.3   284  THR284      0.0376
     46  N         20.5450    7.1710   18.0270 N.am  285  GLY285     -0.1942
     47  CA        21.0000    6.3660   19.1490 C.3   285  GLY285      0.2014
     48  C         19.9020    5.7150   19.9740 C.2   285  GLY285      0.2638
     49  O         18.8090    6.2700   20.1470 O.2   285  GLY285     -0.2714
     50  N         20.1960    4.5260   20.4750 N.am  286  MET286     -0.1976
     51  CA        19.2610    3.8050   21.3350 C.3   286  MET286      0.1605
     52  C         17.9480    3.5250   20.6150 C.2   286  MET286      0.2287
     53  O         16.9120    3.3580   21.2580 O.2   286  MET286     -0.2864
     54  CB        19.0140    4.5880   22.6280 C.3   286  MET286      0.0413
     55  CG        18.9790    3.7060   23.8630 C.3   286  MET286      0.0598
     56  SD        18.6240    4.6210   25.3760 S.3   286  MET286     -0.1393
     57  CE        18.3680    3.2580   26.5170 C.3   286  MET286      0.0692
     58  N         15.5170    9.4580    8.3170 N.3   298  VAL298     -0.1245
     59  CA        15.9950    9.3610    9.6860 C.3   298  VAL298      0.1561
     60  C         14.8570    8.9200   10.5810 C.2   298  VAL298      0.2260
     61  O         13.7380    9.4380   10.4860 O.2   298  VAL298     -0.2867
     62  CB        16.5330   10.6980   10.1720 C.3   298  VAL298      0.0252
     63  CG1       17.0770   10.5450   11.5750 C.3   298  VAL298      0.0019
     64  CG2       17.6290   11.2340    9.1820 C.3   298  VAL298      0.0019
     65  N         13.8620    7.4710   14.7400 N.3   300  SER300     -0.1217
     66  CA        14.2740    7.6570   16.1200 C.3   300  SER300      0.1889
     67  C         13.2470    7.0900   17.1020 C.2   300  SER300      0.2288
     68  O         12.0590    7.0150   16.7750 O.2   300  SER300     -0.2866
     69  CB        14.4110    9.1500   16.3940 C.3   300  SER300      0.2089
     70  OG        15.3460    9.7700   15.5230 O.3   300  SER300     -0.2183
@<TRIPOS>BOND
     1    58    59    1
     2    64    62    1
     3    59    62    1
     4    59    60    1
     5    62    63    1
     6    61    60    2
     7    65    66    1
     8    26    27    1
     9    17    18    1
    10    39    40    1
    11    45    43    1
    12     1     2    1
    13    70    69    1
    14    40    43    1
    15    40    41    1
    16    27    28    1
    17    18    21    1
    18    18    19    1
    19    66    69    1
    20    66    67    1
    21    43    44    1
    22     2     5    1
    23     2     3    1
    24    68    67    2
    25     5     6    1
    26     4     3    2
    27    20    19    2
    28    28    29    2
    29    28    30   am
    30    41    42    2
    31    41    46   am
    32    19    22   am
    33     3     9   am
    34     6     7   ar
    35     6     8   ar
    36    30    31    1
    37    46    47    1
    38    22    23    1
    39     9    10    1
    40    31    32    1
    41    47    48    1
    42    23    24    1
    43    15    14    2
    44    10    11    1
    45    10    13    1
    46    32    33    2
    47    32    34   am
    48    48    49    2
    49    48    50   am
    50    24    25    2
    51    12    11    2
    52    34    35    1
    53    14    13    1
    54    14    16   am
    55    50    51    1
    56    52    53    2
    57    52    51    1
    58    36    35    1
    59    36    37    2
    60    51    54    1
    61    35    38    1
    62    54    55    1
    63    55    56    1
    64    56    57    1
