@<TRIPOS>MOLECULE
tmp/4ihfF01.pdb
 109 103 0 0 0
SMALL
GASTEIGER

@<TRIPOS>ATOM
      1  N         23.2170  -18.1160   17.7040 N.3   181  PHE181     -0.1241
      2  CA        22.4900  -18.5580   18.8870 C.3   181  PHE181      0.1605
      3  C         21.3490  -19.4380   18.4340 C.2   181  PHE181      0.2264
      4  O         20.2030  -18.9830   18.3860 O.2   181  PHE181     -0.2867
      5  CB        21.9400  -17.3290   19.5920 C.3   181  PHE181      0.0534
      6  CG        21.3950  -17.5940   20.9700 C.ar  181  PHE181     -0.0203
      7  CD1       22.1780  -18.1940   21.9450 C.ar  181  PHE181     -0.0042
      8  CD2       20.1080  -17.1870   21.2990 C.ar  181  PHE181     -0.0042
      9  CE1       21.6610  -18.4110   23.2500 C.ar  181  PHE181     -0.0003
     10  CE2       19.5860  -17.3980   22.5790 C.ar  181  PHE181     -0.0003
     11  CZ        20.3660  -18.0120   23.5530 C.ar  181  PHE181     -0.0000
     12  N         28.5600  -13.3600   14.4820 N.3   214  ASP214     -0.1239
     13  CA        28.3430  -14.8110   14.4240 C.3   214  ASP214      0.1674
     14  C         28.2440  -15.3710   13.0070 C.2   214  ASP214      0.2266
     15  O         27.7500  -14.7030   12.0930 O.2   214  ASP214     -0.2867
     16  CB        27.0930  -15.2450   15.2060 C.3   214  ASP214      0.1410
     17  CG        27.1710  -14.9090   16.6930 C.2   214  ASP214      0.3668
     18  OD1       28.2940  -14.7770   17.2450 O.co2 214  ASP214     -0.2456
     19  OD2       26.0900  -14.7700   17.3140 O.co2 214  ASP214     -0.2456
     20  N         26.8450   -6.6330   18.5570 N.3   234  GLN234     -0.1245
     21  CA        26.4720   -8.0270   18.3310 C.3   234  GLN234      0.1566
     22  C         25.8210   -8.1070   16.9640 C.2   234  GLN234      0.2260
     23  O         24.7440   -7.5360   16.7470 O.2   234  GLN234     -0.2867
     24  CB        25.5050   -8.5270   19.4140 C.3   234  GLN234      0.0367
     25  CG        24.6740   -9.8010   19.0640 C.3   234  GLN234      0.0905
     26  CD        25.4930  -11.0380   18.6640 C.2   234  GLN234      0.2608
     27  OE1       26.7270  -11.0490   18.7200 O.2   234  GLN234     -0.2717
     28  NE2       24.7900  -12.0960   18.2510 N.am  234  GLN234     -0.0878
     29  N         24.2790  -10.7530   14.6090 N.3   236  ALA236     -0.1231
     30  CA        23.8120  -12.1270   14.7840 C.3   236  ALA236      0.1694
     31  C         23.9510  -12.9530   13.5180 C.2   236  ALA236      0.2591
     32  O         24.2710  -12.4320   12.4510 O.2   236  ALA236     -0.2718
     33  CB        22.3700  -12.1430   15.2520 C.3   236  ALA236      0.0304
     34  N         23.6770  -14.2480   13.6430 N.am  237  ALA237     -0.1980
     35  CA        23.7680  -15.1680   12.5120 C.3   237  ALA237      0.1597
     36  C         22.9100  -14.7020   11.3440 C.2   237  ALA237      0.2287
     37  O         21.7810  -14.2490   11.5360 O.2   237  ALA237     -0.2864
     38  CB        23.3550  -16.5700   12.9350 C.3   237  ALA237      0.0319
     39  N         22.8360   -3.9660   18.9540 N.3   252  ILE252     -0.1231
     40  CA        22.4960   -5.4050   19.0270 C.3   252  ILE252      0.1692
     41  C         21.5730   -5.7700   17.8680 C.2   252  ILE252      0.2592
     42  O         20.4650   -5.2210   17.7600 O.2   252  ILE252     -0.2718
     43  CB        21.7730   -5.7510   20.3580 C.3   252  ILE252      0.0266
     44  CG1       22.6350   -5.3640   21.5650 C.3   252  ILE252      0.0019
     45  CG2       21.3730   -7.2440   20.4160 C.3   252  ILE252      0.0020
     46  CD1       23.8720   -6.2170   21.7670 C.3   252  ILE252      0.0001
     47  N         22.0060   -6.6810   16.9920 N.am  253  MET253     -0.1965
     48  CA        21.1410   -7.0890   15.8760 C.3   253  MET253      0.1736
     49  C         20.6770   -8.5430   15.9820 C.2   253  MET253      0.2616
     50  O         21.4820   -9.4220   16.2720 O.2   253  MET253     -0.2715
     51  CB        21.8550   -6.9110   14.5480 C.3   253  MET253      0.0427
     52  CG        22.4550   -5.5750   14.3480 C.3   253  MET253      0.0599
     53  SD        23.2350   -5.5110   12.7110 S.3   253  MET253     -0.1393
     54  CE        23.8730   -3.8410   12.7820 C.3   253  MET253      0.0692
     55  N         19.3910   -8.7950   15.7400 N.am  254  ALA254     -0.1963
     56  CA        18.8830  -10.1740   15.7790 C.3   254  ALA254      0.1728
     57  C         19.2140  -10.8680   14.4680 C.2   254  ALA254      0.2616
     58  O         19.5910  -10.2120   13.4800 O.2   254  ALA254     -0.2715
     59  CB        17.3830  -10.2120   16.0430 C.3   254  ALA254      0.0334
     60  N         19.0700  -12.1940   14.4580 N.am  255  GLY255     -0.1955
     61  CA        19.4330  -12.9920   13.3010 C.3   255  GLY255      0.1869
     62  C         18.6260  -12.6780   12.0520 C.2   255  GLY255      0.2309
     63  O         17.4820  -12.2240   12.1420 O.2   255  GLY255     -0.2863
     64  N         18.7790   -1.3650   18.9630 N.3   270  VAL270     -0.1231
     65  CA        18.4150   -2.7690   19.0650 C.3   270  VAL270      0.1692
     66  C         17.5130   -3.0800   17.9040 C.2   270  VAL270      0.2592
     67  O         16.4630   -2.4380   17.7100 O.2   270  VAL270     -0.2718
     68  CB        17.6900   -3.0690   20.3740 C.3   270  VAL270      0.0266
     69  CG1       17.2910   -4.5470   20.4330 C.3   270  VAL270      0.0020
     70  CG2       18.5960   -2.7300   21.5390 C.3   270  VAL270      0.0020
     71  N         17.9320   -4.0510   17.1050 N.am  271  ILE271     -0.1966
     72  CA        17.2450   -4.2900   15.8390 C.3   271  ILE271      0.1727
     73  C         16.6910   -5.6970   15.7300 C.2   271  ILE271      0.2616
     74  O         17.4300   -6.6930   15.8530 O.2   271  ILE271     -0.2715
     75  CB        18.1640   -4.0430   14.6430 C.3   271  ILE271      0.0290
     76  CG1       18.8730   -2.7030   14.8030 C.3   271  ILE271      0.0022
     77  CG2       17.3440   -4.0380   13.3530 C.3   271  ILE271      0.0023
     78  CD1       19.7790   -2.3550   13.6160 C.3   271  ILE271      0.0001
     79  N         15.3880   -5.7670   15.4730 N.am  272  ASN272     -0.1972
     80  CA        14.6840   -7.0410   15.3490 C.3   272  ASN272      0.1688
     81  C         15.1700   -7.7960   14.1010 C.2   272  ASN272      0.2292
     82  O         15.7660   -7.1980   13.1930 O.2   272  ASN272     -0.2864
     83  CB        13.1780   -6.7780   15.2810 C.3   272  ASN272      0.1181
     84  CG        12.3520   -8.0020   15.6170 C.2   272  ASN272      0.2629
     85  OD1       12.8820   -9.0360   16.0480 O.2   272  ASN272     -0.2716
     86  ND2       11.0370   -7.8930   15.4190 N.am  272  ASN272     -0.0877
     87  N         14.9140    1.7090   19.0320 N.3   288  MET288     -0.1230
     88  CA        14.2280    0.4220   19.1870 C.3   288  MET288      0.1702
     89  C         13.5930    0.0390   17.8510 C.2   288  MET288      0.2592
     90  O         12.4710    0.4710   17.5350 O.2   288  MET288     -0.2718
     91  CB        13.1590    0.5180   20.2720 C.3   288  MET288      0.0401
     92  CG        12.4010   -0.7860   20.5140 C.3   288  MET288      0.0596
     93  SD        10.9730   -0.5170   21.5700 S.3   288  MET288     -0.1393
     94  CE        10.3680   -2.2130   21.6640 C.3   288  MET288      0.0692
     95  N         14.3200   -0.7470   17.0550 N.am  289  VAL289     -0.1966
     96  CA        13.9030   -1.0240   15.6890 C.3   289  VAL289      0.1727
     97  C         13.1160   -2.3210   15.6180 C.2   289  VAL289      0.2616
     98  O         13.6680   -3.4070   15.3940 O.2   289  VAL289     -0.2715
     99  CB        15.0860   -1.0770   14.7300 C.3   289  VAL289      0.0290
    100  CG1       14.5770   -1.0740   13.2860 C.3   289  VAL289      0.0023
    101  CG2       15.9950    0.1230   14.9680 C.3   289  VAL289      0.0023
    102  N         11.8110   -2.1990   15.8100 N.am  290  MET290     -0.1977
    103  CA        10.9410   -3.3710   15.8610 C.3   290  MET290      0.1605
    104  C         10.4680   -3.8200   14.4850 C.2   290  MET290      0.2287
    105  O         10.2950   -5.0180   14.2410 O.2   290  MET290     -0.2864
    106  CB         9.7310   -3.0910   16.7560 C.3   290  MET290      0.0413
    107  CG         8.6380   -4.1540   16.6610 C.3   290  MET290      0.0598
    108  SD         7.2330   -3.8320   17.7580 S.3   290  MET290     -0.1393
    109  CE         6.3800   -2.5430   16.8580 C.3   290  MET290      0.0692
@<TRIPOS>BOND
     1    36    37    2
     2    36    35    1
     3    62    63    2
     4    62    61    1
     5    15    14    2
     6    32    31    2
     7    35    38    1
     8    35    34    1
     9    53    54    1
    10    53    52    1
    11    14    13    1
    12    82    81    2
    13   100    99    1
    14    61    60    1
    15    77    75    1
    16    58    57    2
    17    31    34   am
    18    31    30    1
    19    78    76    1
    20    81    80    1
    21   105   104    2
    22    52    51    1
    23    13    12    1
    24    13    16    1
    25    60    57   am
    26    57    56    1
    27   104   103    1
    28    51    48    1
    29    29    30    1
    30    75    76    1
    31    75    72    1
    32    99   101    1
    33    99    96    1
    34    30    33    1
    35    16    17    1
    36    83    80    1
    37    83    84    1
    38    80    79    1
    39    98    97    2
    40    86    84   am
    41    79    73   am
    42    84    85    2
    43    97    96    1
    44    97   102   am
    45    96    95    1
    46    73    72    1
    47    73    74    2
    48    55    56    1
    49    55    49   am
    50    56    59    1
    51   102   103    1
    52    72    71    1
    53   103   106    1
    54    48    49    1
    55    48    47    1
    56    49    50    2
    57   107   106    1
    58   107   108    1
    59    17    18   ar
    60    17    19   ar
    61    23    22    2
    62   109   108    1
    63    22    21    1
    64    47    41   am
    65    95    89   am
    66    71    66   am
    67    90    89    2
    68     1     2    1
    69    67    66    2
    70    42    41    2
    71    89    88    1
    72    41    40    1
    73    66    65    1
    74    28    26   am
    75    21    20    1
    76    21    24    1
    77     4     3    2
    78     3     2    1
    79    26    27    2
    80    26    25    1
    81     2     5    1
    82    39    40    1
    83    64    65    1
    84    40    43    1
    85    87    88    1
    86    25    24    1
    87    65    68    1
    88    88    91    1
    89     5     6    1
    90    91    92    1
    91    43    45    1
    92    43    44    1
    93    68    69    1
    94    68    70    1
    95    92    93    1
    96     6     8   ar
    97     6     7   ar
    98     8    10   ar
    99    44    46    1
   100    93    94    1
   101     7     9   ar
   102    10    11   ar
   103     9    11   ar
