@<TRIPOS>MOLECULE
tmp/4ihgA00.pdb
 124 119 0 0 0
SMALL
GASTEIGER

@<TRIPOS>ATOM
      1  N        -12.4050   20.7300   39.8380 N.3   183  PHE183     -0.1241
      2  CA       -13.2180   20.5920   38.6410 C.3   183  PHE183      0.1605
      3  C        -13.1380   21.8860   37.8190 C.2   183  PHE183      0.2264
      4  O        -14.0900   22.6670   37.7820 O.2   183  PHE183     -0.2867
      5  CB       -14.6630   20.2430   39.0300 C.3   183  PHE183      0.0534
      6  CG       -15.4080   19.4770   37.9740 C.ar  183  PHE183     -0.0203
      7  CD1      -14.8970   18.2930   37.4750 C.ar  183  PHE183     -0.0042
      8  CD2      -16.6250   19.9270   37.4930 C.ar  183  PHE183     -0.0042
      9  CE1      -15.5720   17.5800   36.5000 C.ar  183  PHE183     -0.0003
     10  CE2      -17.3100   19.2170   36.5180 C.ar  183  PHE183     -0.0003
     11  CZ       -16.7810   18.0420   36.0220 C.ar  183  PHE183     -0.0000
     12  N        -10.0480   18.8940   46.9700 N.3   216  ASP216     -0.1239
     13  CA        -9.3180   19.2640   45.7640 C.3   216  ASP216      0.1674
     14  C         -8.3850   20.4560   45.9850 C.2   216  ASP216      0.2266
     15  O         -8.6440   21.3290   46.8190 O.2   216  ASP216     -0.2867
     16  CB       -10.2920   19.5850   44.6250 C.3   216  ASP216      0.1410
     17  CG       -11.0840   18.3700   44.1660 C.2   216  ASP216      0.3668
     18  OD1      -10.5480   17.2420   44.2300 O.co2 216  ASP216     -0.2456
     19  OD2      -12.2460   18.5490   43.7350 O.co2 216  ASP216     -0.2456
     20  N        -17.1480   16.0820   49.7780 N.3   236  GLN236     -0.1245
     21  CA       -16.4530   16.6800   48.6430 C.3   236  GLN236      0.1566
     22  C        -16.1550   18.1390   48.9420 C.2   236  GLN236      0.2260
     23  O        -17.0660   18.9660   48.9940 O.2   236  GLN236     -0.2867
     24  CB       -17.2830   16.5490   47.3580 C.3   236  GLN236      0.0367
     25  CG       -16.9050   17.5300   46.2180 C.3   236  GLN236      0.0905
     26  CD       -15.4540   17.4060   45.7430 C.2   236  GLN236      0.2608
     27  OE1      -14.7240   16.5040   46.1560 O.2   236  GLN236     -0.2717
     28  NE2      -15.0360   18.3170   44.8640 N.am  236  GLN236     -0.0878
     29  N        -14.5350   21.2180   47.3780 N.3   238  ALA238     -0.1231
     30  CA       -14.1280   21.7430   46.0830 C.3   238  ALA238      0.1694
     31  C        -12.8110   22.4970   46.1570 C.2   238  ALA238      0.2592
     32  O        -12.2710   22.7250   47.2390 O.2   238  ALA238     -0.2718
     33  CB       -15.1880   22.6510   45.5550 C.3   238  ALA238      0.0304
     34  N        -12.3120   22.9070   44.9960 N.am  239  HIS239     -0.1976
     35  CA       -11.1140   23.7310   44.9460 C.3   239  HIS239      0.1656
     36  C        -11.4000   25.1180   45.5210 C.2   239  HIS239      0.2291
     37  O        -12.4990   25.6560   45.3660 O.2   239  HIS239     -0.2864
     38  CB       -10.5590   23.8340   43.5100 C.3   239  HIS239      0.0771
     39  CG       -11.5800   24.1690   42.4620 C.ar  239  HIS239      0.0820
     40  ND1      -11.2990   24.1010   41.1140 N.ar  239  HIS239     -0.2267
     41  CD2      -12.8720   24.5650   42.5580 C.ar  239  HIS239      0.1154
     42  CE1      -12.3730   24.4390   40.4250 C.ar  239  HIS239      0.1986
     43  NE2      -13.3420   24.7240   41.2770 N.ar  239  HIS239     -0.2212
     44  N        -21.5830   18.0770   50.0480 N.3   254  ILE254     -0.1231
     45  CA       -21.0360   18.4970   48.7570 C.3   254  ILE254      0.1692
     46  C        -20.7800   20.0050   48.7550 C.2   254  ILE254      0.2592
     47  O        -21.7170   20.7980   48.6690 O.2   254  ILE254     -0.2718
     48  CB       -21.9860   18.1320   47.5790 C.3   254  ILE254      0.0266
     49  CG1      -22.2970   16.6300   47.5700 C.3   254  ILE254      0.0019
     50  CG2      -21.3850   18.5530   46.2400 C.3   254  ILE254      0.0020
     51  CD1      -21.0850   15.7250   47.3710 C.3   254  ILE254      0.0001
     52  N        -19.5100   20.3900   48.8510 N.am  255  MET255     -0.1965
     53  CA       -19.1330   21.8010   48.8400 C.3   255  MET255      0.1736
     54  C        -18.7130   22.2740   47.4670 C.2   255  MET255      0.2616
     55  O        -17.9490   21.6040   46.7820 O.2   255  MET255     -0.2715
     56  CB       -17.9970   22.0540   49.8110 C.3   255  MET255      0.0427
     57  CG       -18.4270   21.9770   51.2360 C.3   255  MET255      0.0599
     58  SD       -17.0590   22.3860   52.2940 S.3   255  MET255     -0.1393
     59  CE       -17.7490   22.0330   53.9020 C.3   255  MET255      0.0692
     60  N        -19.1940   23.4490   47.0820 N.am  256  ALA256     -0.1963
     61  CA       -18.8410   24.0200   45.7910 C.3   256  ALA256      0.1728
     62  C        -17.5310   24.7810   45.8960 C.2   256  ALA256      0.2616
     63  O        -17.0120   24.9860   46.9990 O.2   256  ALA256     -0.2715
     64  CB       -19.9430   24.9300   45.2910 C.3   256  ALA256      0.0334
     65  N        -17.0070   25.2000   44.7470 N.am  257  GLY257     -0.1955
     66  CA       -15.7450   25.9180   44.6860 C.3   257  GLY257      0.1869
     67  C        -15.8280   27.3240   45.2560 C.2   257  GLY257      0.2309
     68  O        -16.8640   27.9830   45.1500 O.2   257  GLY257     -0.2863
     69  N        -25.7780   20.3850   50.8910 N.3   272  VAL272     -0.1231
     70  CA       -25.2390   20.7560   49.5910 C.3   272  VAL272      0.1692
     71  C        -25.0900   22.2620   49.5480 C.2   272  VAL272      0.2592
     72  O        -26.0780   22.9920   49.5810 O.2   272  VAL272     -0.2718
     73  CB       -26.1420   20.2620   48.4400 C.3   272  VAL272      0.0266
     74  CG1      -25.5300   20.6020   47.0860 C.3   272  VAL272      0.0020
     75  CG2      -26.3550   18.7530   48.5550 C.3   272  VAL272      0.0020
     76  N        -23.8450   22.7170   49.4810 N.am  273  ILE273     -0.1966
     77  CA       -23.5360   24.1350   49.6240 C.3   273  ILE273      0.1727
     78  C        -23.0090   24.7390   48.3300 C.2   273  ILE273      0.2616
     79  O        -22.0660   24.2230   47.7210 O.2   273  ILE273     -0.2715
     80  CB       -22.5010   24.3700   50.7380 C.3   273  ILE273      0.0290
     81  CG1      -22.9300   23.6510   52.0190 C.3   273  ILE273      0.0022
     82  CG2      -22.3270   25.8710   50.9990 C.3   273  ILE273      0.0023
     83  CD1      -21.8550   23.6140   53.0820 C.3   273  ILE273      0.0001
     84  N        -23.6240   25.8480   47.9300 N.am  274  ASN274     -0.1972
     85  CA       -23.2410   26.5480   46.7100 C.3   274  ASN274      0.1688
     86  C        -21.8890   27.2400   46.8790 C.2   274  ASN274      0.2292
     87  O        -21.3670   27.3300   47.9920 O.2   274  ASN274     -0.2864
     88  CB       -24.3140   27.5670   46.3200 C.3   274  ASN274      0.1181
     89  CG       -24.2240   27.9840   44.8660 C.2   274  ASN274      0.2629
     90  OD1      -23.4920   27.3820   44.0780 O.2   274  ASN274     -0.2716
     91  ND2      -24.9760   29.0170   44.4980 N.am  274  ASN274     -0.0877
     92  N        -18.6710   30.2850   45.6820 N.3   276  HIS276     -0.1241
     93  CA       -18.4040   31.7140   45.5550 C.3   276  HIS276      0.1621
     94  C        -19.2790   32.5220   46.5090 C.2   276  HIS276      0.2264
     95  O        -19.9870   33.4450   46.1020 O.2   276  HIS276     -0.2867
     96  CB       -18.6090   32.1610   44.1070 C.3   276  HIS276      0.0745
     97  CG       -17.6280   31.5520   43.1510 C.ar  276  HIS276      0.0817
     98  ND1      -17.9380   30.4750   42.3470 N.ar  276  HIS276     -0.2268
     99  CD2      -16.3370   31.8630   42.8810 C.ar  276  HIS276      0.1154
    100  CE1      -16.8830   30.1540   41.6190 C.ar  276  HIS276      0.1986
    101  NE2      -15.8980   30.9800   41.9240 N.ar  276  HIS276     -0.2212
    102  N        -29.8820   22.7070   51.8870 N.3   290  MET290     -0.1230
    103  CA       -29.7450   23.2130   50.5280 C.3   290  MET290      0.1702
    104  C        -29.2480   24.6500   50.6080 C.2   290  MET290      0.2592
    105  O        -30.0140   25.5970   50.4510 O.2   290  MET290     -0.2718
    106  CB       -31.0710   23.1370   49.7710 C.3   290  MET290      0.0401
    107  CG       -30.9370   23.5000   48.3020 C.3   290  MET290      0.0596
    108  SD       -32.5010   23.5960   47.4250 S.3   290  MET290     -0.1393
    109  CE       -31.9180   24.1530   45.8320 C.3   290  MET290      0.0692
    110  N        -27.9560   24.8000   50.8680 N.am  291  VAL291     -0.1966
    111  CA       -27.3770   26.1090   51.1260 C.3   291  VAL291      0.1727
    112  C        -27.1290   26.8310   49.8040 C.2   291  VAL291      0.2616
    113  O        -26.0200   26.8270   49.2620 O.2   291  VAL291     -0.2715
    114  CB       -26.0700   25.9920   51.9360 C.3   291  VAL291      0.0290
    115  CG1      -25.6070   27.3720   52.3990 C.3   291  VAL291      0.0023
    116  CG2      -26.2700   25.0600   53.1380 C.3   291  VAL291      0.0023
    117  N        -28.1860   27.4560   49.2980 N.am  292  MET292     -0.1977
    118  CA       -28.1490   28.1290   48.0080 C.3   292  MET292      0.1605
    119  C        -27.5170   29.5150   48.0840 C.2   292  MET292      0.2287
    120  O        -27.0110   30.0150   47.0810 O.2   292  MET292     -0.2864
    121  CB       -29.5630   28.2500   47.4470 C.3   292  MET292      0.0413
    122  CG       -29.6490   29.0480   46.1720 C.3   292  MET292      0.0598
    123  SD       -31.3410   29.2740   45.6470 S.3   292  MET292     -0.1393
    124  CE       -31.0760   30.4880   44.3600 C.3   292  MET292      0.0692
@<TRIPOS>BOND
     1    11     9   ar
     2    11    10   ar
     3     9     7   ar
     4    10     8   ar
     5     7     6   ar
     6     8     6   ar
     7     4     3    2
     8     3     2    1
     9     6     5    1
    10     2     5    1
    11     2     1    1
    12    42    40   ar
    13    42    43   ar
    14    40    39   ar
    15    43    41   ar
    16   100   101   ar
    17   100    98   ar
    18   101    99   ar
    19    98    97   ar
    20    39    41   ar
    21    39    38    1
    22    99    97   ar
    23    97    96    1
    24    38    35    1
    25    19    17   ar
    26    90    89    2
    27    96    93    1
    28    17    18   ar
    29    17    16    1
    30   124   123    1
    31    91    89   am
    32    16    13    1
    33    66    65    1
    34    66    67    1
    35    65    62   am
    36    28    26   am
    37    89    88    1
    38    35    34    1
    39    35    36    1
    40    34    31   am
    41    68    67    2
    42    64    61    1
    43    37    36    2
    44    33    30    1
    45    93    92    1
    46    93    94    1
    47   123   122    1
    48    26    27    2
    49    26    25    1
    50    13    14    1
    51    13    12    1
    52    61    62    1
    53    61    60    1
    54   109   108    1
    55    62    63    2
    56    14    15    2
    57    30    31    1
    58    30    29    1
    59    95    94    2
    60    31    32    2
    61   122   121    1
    62    25    24    1
    63    50    48    1
    64    88    85    1
    65    85    86    1
    66    85    84    1
    67    55    54    2
    68    86    87    2
    69   120   119    2
    70    60    54   am
    71    74    73    1
    72    24    21    1
    73    51    49    1
    74   108   107    1
    75   121   118    1
    76    54    53    1
    77    49    48    1
    78    48    45    1
    79    79    78    2
    80    84    78   am
    81   118   119    1
    82   118   117    1
    83   107   106    1
    84    78    77    1
    85    73    75    1
    86    73    70    1
    87    21    22    1
    88    21    20    1
    89    47    46    2
    90    46    45    1
    91    46    52   am
    92    45    44    1
    93    53    52    1
    94    53    56    1
    95    22    23    2
    96   113   112    2
    97   117   112   am
    98    76    71   am
    99    76    77    1
   100    71    72    2
   101    71    70    1
   102    70    69    1
   103    77    80    1
   104   106   103    1
   105   112   111    1
   106    56    57    1
   107   105   104    2
   108   103   104    1
   109   103   102    1
   110   104   110   am
   111    80    82    1
   112    80    81    1
   113   110   111    1
   114   111   114    1
   115    57    58    1
   116   114   115    1
   117   114   116    1
   118    81    83    1
   119    58    59    1
