@<TRIPOS>MOLECULE
tmp/4ihgB01.pdb
 89 84 0 0 0
SMALL
GASTEIGER

@<TRIPOS>ATOM
      1  N        -36.7020  -13.4140   35.5100 N.3    79  TYR79      -0.1241
      2  CA       -35.6640  -12.5270   36.0100 C.3    79  TYR79       0.1605
      3  C        -34.7300  -13.2750   36.9570 C.2    79  TYR79       0.2264
      4  O        -33.5160  -13.0870   36.9270 O.2    79  TYR79      -0.2867
      5  CB       -36.3000  -11.3290   36.7090 C.3    79  TYR79       0.0534
      6  CG       -35.4030  -10.1180   36.7860 C.ar   79  TYR79      -0.0201
      7  CD1      -35.0290   -9.4320   35.6370 C.ar   79  TYR79      -0.0009
      8  CD2      -34.9380   -9.6520   38.0060 C.ar   79  TYR79      -0.0009
      9  CE1      -34.2120   -8.3190   35.7040 C.ar   79  TYR79       0.0417
     10  CE2      -34.1230   -8.5420   38.0840 C.ar   79  TYR79       0.0417
     11  CZ       -33.7630   -7.8800   36.9320 C.ar   79  TYR79       0.1957
     12  OH       -32.9520   -6.7750   37.0110 O.3    79  TYR79      -0.2866
     13  N        -27.6010   -6.2400   50.7520 N.3   229  ILE229     -0.1245
     14  CA       -26.8540   -5.6970   49.6250 C.3   229  ILE229      0.1561
     15  C        -26.7620   -4.1820   49.7040 C.2   229  ILE229      0.2260
     16  O        -27.7530   -3.4980   49.9620 O.2   229  ILE229     -0.2867
     17  CB       -27.4780   -6.0910   48.2810 C.3   229  ILE229      0.0252
     18  CG1      -28.9870   -5.8570   48.2960 C.3   229  ILE229      0.0019
     19  CG2      -27.1640   -7.5530   47.9780 C.3   229  ILE229      0.0019
     20  CD1      -29.6310   -5.9460   46.9100 C.3   229  ILE229      0.0001
     21  N        -31.9120   -4.0010   51.3980 N.3   247  ALA247     -0.1231
     22  CA       -31.2000   -3.4800   50.2340 C.3   247  ALA247      0.1694
     23  C        -31.0040   -1.9690   50.3410 C.2   247  ALA247      0.2592
     24  O        -31.9360   -1.2360   50.6730 O.2   247  ALA247     -0.2718
     25  CB       -31.9500   -3.8330   48.9550 C.3   247  ALA247      0.0304
     26  N        -29.7850   -1.5150   50.0600 N.am  248  VAL248     -0.1966
     27  CA       -29.4520   -0.0920   50.0780 C.3   248  VAL248      0.1727
     28  C        -28.8390    0.3210   48.7400 C.2   248  VAL248      0.2616
     29  O        -27.7970   -0.2030   48.3420 O.2   248  VAL248     -0.2715
     30  CB       -28.4660    0.2450   51.2120 C.3   248  VAL248      0.0290
     31  CG1      -28.3060    1.7580   51.3450 C.3   248  VAL248      0.0023
     32  CG2      -28.9400   -0.3650   52.5330 C.3   248  VAL248      0.0023
     33  N        -29.4850    1.2610   48.0520 N.am  249  ALA249     -0.1977
     34  CA       -29.0180    1.7120   46.7390 C.3   249  ALA249      0.1597
     35  C        -27.9110    2.7570   46.8760 C.2   249  ALA249      0.2287
     36  O        -27.4470    3.0300   47.9730 O.2   249  ALA249     -0.2864
     37  CB       -30.1800    2.2710   45.9210 C.3   249  ALA249      0.0319
     38  N        -36.0460   -1.7370   51.6610 N.3   265  MET265     -0.1230
     39  CA       -35.4230   -1.3480   50.4050 C.3   265  MET265      0.1702
     40  C        -35.2570    0.1670   50.3810 C.2   265  MET265      0.2592
     41  O        -36.2230    0.9070   50.2140 O.2   265  MET265     -0.2718
     42  CB       -36.2550   -1.8510   49.2270 C.3   265  MET265      0.0401
     43  CG       -36.4260   -3.3550   49.2140 C.3   265  MET265      0.0596
     44  SD       -36.7750   -3.9470   47.5530 S.3   265  MET265     -0.1393
     45  CE       -38.3670   -3.1710   47.2460 C.3   265  MET265      0.0692
     46  N        -34.0190    0.6110   50.5750 N.am  266  ILE266     -0.1966
     47  CA       -33.7100    2.0320   50.7030 C.3   266  ILE266      0.1727
     48  C        -33.3010    2.6480   49.3610 C.2   266  ILE266      0.2616
     49  O        -32.2600    2.3100   48.7950 O.2   266  ILE266     -0.2715
     50  CB       -32.5800    2.2630   51.7380 C.3   266  ILE266      0.0290
     51  CG1      -32.9080    1.5670   53.0650 C.3   266  ILE266      0.0022
     52  CG2      -32.3510    3.7450   51.9610 C.3   266  ILE266      0.0023
     53  CD1      -34.2220    2.0230   53.7100 C.3   266  ILE266      0.0001
     54  N        -34.1340    3.5600   48.8700 N.am  267  GLY267     -0.1955
     55  CA       -33.9100    4.2180   47.5960 C.3   267  GLY267      0.1869
     56  C        -32.6230    5.0140   47.5450 C.2   267  GLY267      0.2309
     57  O        -32.0930    5.4370   48.5770 O.2   267  GLY267     -0.2863
     58  N        -39.9230    0.5680   52.4540 N.3   283  THR283     -0.1203
     59  CA       -39.3290    0.9810   51.1960 C.3   283  THR283      0.1994
     60  C        -39.2650    2.5040   51.1430 C.2   283  THR283      0.2618
     61  O        -40.2920    3.1850   51.1510 O.2   283  THR283     -0.2717
     62  CB       -40.1200    0.4240   49.9980 C.3   283  THR283      0.1784
     63  OG1      -40.2070   -1.0030   50.1110 O.3   283  THR283     -0.2211
     64  CG2      -39.4330    0.7820   48.6830 C.3   283  THR283      0.0376
     65  N        -38.0470    3.0320   51.1370 N.am  284  VAL284     -0.1965
     66  CA       -37.8340    4.4620   50.9770 C.3   284  VAL284      0.1727
     67  C        -37.4840    4.7650   49.5270 C.2   284  VAL284      0.2617
     68  O        -36.5030    4.2460   48.9990 O.2   284  VAL284     -0.2715
     69  CB       -36.7110    4.9810   51.8850 C.3   284  VAL284      0.0290
     70  CG1      -36.6100    6.5050   51.7840 C.3   284  VAL284      0.0023
     71  CG2      -36.9490    4.5490   53.3290 C.3   284  VAL284      0.0023
     72  N        -38.2870    5.6000   48.8830 N.am  285  THR285     -0.1937
     73  CA       -38.0220    5.9620   47.5020 C.3   285  THR285      0.2028
     74  C        -36.8060    6.8790   47.4460 C.2   285  THR285      0.2642
     75  O        -36.3720    7.4150   48.4690 O.2   285  THR285     -0.2714
     76  CB       -39.2380    6.6330   46.8480 C.3   285  THR285      0.1808
     77  OG1      -39.7540    7.6510   47.7130 O.3   285  THR285     -0.2208
     78  CG2      -40.3250    5.5990   46.5880 C.3   285  THR285      0.0379
     79  N        -36.2590    7.0370   46.2450 N.am  286  GLY286     -0.1954
     80  CA       -35.0230    7.7730   46.0440 C.3   286  GLY286      0.1869
     81  C        -35.0400    9.1810   46.6010 C.2   286  GLY286      0.2309
     82  O        -36.0740    9.8490   46.6120 O.2   286  GLY286     -0.2863
     83  N        -44.5020    2.0760   51.7410 N.3   299  VAL299     -0.1245
     84  CA       -43.6370    2.9280   50.9380 C.3   299  VAL299      0.1561
     85  C        -43.7510    4.3750   51.3910 C.2   299  VAL299      0.2260
     86  O        -44.8530    4.8830   51.6050 O.2   299  VAL299     -0.2867
     87  CB       -43.9790    2.8340   49.4430 C.3   299  VAL299      0.0252
     88  CG1      -43.0040    3.6800   48.6130 C.3   299  VAL299      0.0019
     89  CG2      -43.9410    1.3840   48.9880 C.3   299  VAL299      0.0019
@<TRIPOS>BOND
     1     1     2    1
     2     7     9   ar
     3     7     6   ar
     4     9    11   ar
     5     2     5    1
     6     2     3    1
     7     5     6    1
     8     6     8   ar
     9     4     3    2
    10    11    12    1
    11    11    10   ar
    12     8    10   ar
    13    37    34    1
    14    80    79    1
    15    80    81    1
    16    79    74   am
    17    78    76    1
    18    81    82    2
    19    34    35    1
    20    34    33    1
    21    76    73    1
    22    76    77    1
    23    35    36    2
    24    20    18    1
    25    45    44    1
    26    74    73    1
    27    74    75    2
    28    73    72    1
    29    56    55    1
    30    56    57    2
    31    44    43    1
    32    55    54    1
    33    19    17    1
    34    33    28   am
    35    17    18    1
    36    17    14    1
    37    29    28    2
    38    88    87    1
    39    64    62    1
    40    28    27    1
    41    49    48    2
    42    54    48   am
    43    72    67   am
    44    25    22    1
    45    89    87    1
    46    68    67    2
    47    43    42    1
    48    42    39    1
    49    48    47    1
    50    87    84    1
    51    67    66    1
    52    14    15    1
    53    14    13    1
    54    15    16    2
    55    62    63    1
    56    62    59    1
    57    26    27    1
    58    26    23   am
    59    27    30    1
    60    41    40    2
    61    22    23    1
    62    22    21    1
    63    23    24    2
    64    40    39    1
    65    40    46   am
    66    39    38    1
    67    46    47    1
    68    47    50    1
    69    84    85    1
    70    84    83    1
    71    66    65    1
    72    66    69    1
    73    65    60   am
    74    60    61    2
    75    60    59    1
    76    59    58    1
    77    30    31    1
    78    30    32    1
    79    85    86    2
    80    50    52    1
    81    50    51    1
    82    70    69    1
    83    69    71    1
    84    51    53    1
