@<TRIPOS>MOLECULE
tmp/4ihhE00.pdb
 88 87 0 0 0
SMALL
GASTEIGER

@<TRIPOS>ATOM
      1  N        -10.3760  -39.0200  -76.9820 N.3    31  SER31      -0.1202
      2  CA       -10.4230  -40.4770  -76.9220 C.3    31  SER31       0.2020
      3  C         -9.6830  -41.0350  -78.1300 C.2    31  SER31       0.2619
      4  O         -9.4460  -40.3260  -79.1180 O.2    31  SER31      -0.2717
      5  CB       -11.8640  -40.9760  -76.9350 C.3    31  SER31       0.2103
      6  OG       -12.4230  -40.7830  -78.2200 O.3    31  SER31      -0.2182
      7  N         -9.3220  -42.3080  -78.0600 N.am   32  MET32      -0.1965
      8  CA        -8.6110  -42.9370  -79.1570 C.3    32  MET32       0.1736
      9  C         -9.4400  -42.9220  -80.4380 C.2    32  MET32       0.2616
     10  O         -8.9120  -42.6540  -81.5180 O.2    32  MET32      -0.2715
     11  CB        -8.2150  -44.3620  -78.7740 C.3    32  MET32       0.0427
     12  CG        -6.8110  -44.7270  -79.2020 C.3    32  MET32       0.0599
     13  SD        -6.2720  -46.2560  -78.4240 S.3    32  MET32      -0.1393
     14  CE        -5.8880  -47.2210  -79.8830 C.3    32  MET32       0.0692
     15  N        -10.7390  -43.1810  -80.3130 N.am   33  GLN33      -0.1977
     16  CA       -11.6140  -43.2420  -81.4820 C.3    33  GLN33       0.1601
     17  C        -11.9030  -41.8650  -82.1000 C.2    33  GLN33       0.2287
     18  O        -12.0930  -41.7530  -83.3080 O.2    33  GLN33      -0.2864
     19  CB       -12.9210  -43.9940  -81.1560 C.3    33  GLN33       0.0394
     20  CG       -13.8110  -43.3270  -80.1030 C.3    33  GLN33       0.0908
     21  CD       -15.1010  -44.1010  -79.8310 C.2    33  GLN33       0.2608
     22  OE1      -15.0740  -45.3030  -79.5560 O.2    33  GLN33      -0.2717
     23  NE2      -16.2360  -43.4100  -79.9080 N.am   33  GLN33      -0.0878
     24  N         -3.7750  -38.8210  -77.0460 N.3    41  THR41      -0.1203
     25  CA        -4.6860  -39.7930  -76.4440 C.3    41  THR41       0.1994
     26  C         -3.8720  -40.7320  -75.5580 C.2    41  THR41       0.2618
     27  O         -2.6910  -40.4950  -75.3360 O.2    41  THR41      -0.2717
     28  CB        -5.5040  -40.5610  -77.5150 C.3    41  THR41       0.1784
     29  OG1       -6.5960  -41.2550  -76.8980 O.3    41  THR41      -0.2211
     30  CG2       -4.6280  -41.5430  -78.2650 C.3    41  THR41       0.0376
     31  N         -4.4930  -41.7830  -75.0370 N.am   42  PHE42      -0.1961
     32  CA        -3.7740  -42.6960  -74.1490 C.3    42  PHE42       0.1771
     33  C         -4.3450  -44.0920  -74.3100 C.2    42  PHE42       0.2619
     34  O         -5.4370  -44.2470  -74.8480 O.2    42  PHE42      -0.2715
     35  CB        -3.9140  -42.2370  -72.6890 C.3    42  PHE42       0.0574
     36  CG        -5.3080  -42.3980  -72.1340 C.ar   42  PHE42      -0.0200
     37  CD1       -6.2990  -41.4710  -72.4270 C.ar   42  PHE42      -0.0042
     38  CD2       -5.6310  -43.4850  -71.3350 C.ar   42  PHE42      -0.0042
     39  CE1       -7.5810  -41.6220  -71.9280 C.ar   42  PHE42      -0.0003
     40  CE2       -6.9090  -43.6440  -70.8320 C.ar   42  PHE42      -0.0003
     41  CZ        -7.8840  -42.7120  -71.1240 C.ar   42  PHE42      -0.0000
     42  N         -3.6190  -45.1070  -73.8510 N.am   43  MET43      -0.1963
     43  CA        -4.1830  -46.4570  -73.8120 C.3    43  MET43       0.1736
     44  C         -3.6470  -47.2580  -72.6380 C.2    43  MET43       0.2616
     45  O         -2.4800  -47.1260  -72.2570 O.2    43  MET43      -0.2715
     46  CB        -3.9540  -47.2100  -75.1220 C.3    43  MET43       0.0427
     47  CG        -2.5120  -47.5600  -75.3700 C.3    43  MET43       0.0599
     48  SD        -2.2870  -48.6450  -76.7950 S.3    43  MET43      -0.1393
     49  CE        -3.1930  -50.0930  -76.2800 C.3    43  MET43       0.0692
     50  N         -4.5190  -48.0840  -72.0700 N.am   44  VAL44      -0.1963
     51  CA        -4.1950  -48.8830  -70.8950 C.3    44  VAL44       0.1727
     52  C         -4.3030  -50.3700  -71.2190 C.2    44  VAL44       0.2616
     53  O         -3.3630  -51.1360  -70.9990 O.2    44  VAL44      -0.2715
     54  CB        -5.1510  -48.5560  -69.7330 C.3    44  VAL44       0.0290
     55  CG1       -4.9090  -49.4930  -68.5590 C.3    44  VAL44       0.0023
     56  CG2       -5.0070  -47.0920  -69.3150 C.3    44  VAL44       0.0023
     57  N         -5.4560  -50.7640  -71.7500 N.am   45  ASN45      -0.1972
     58  CA        -5.7030  -52.1480  -72.1260 C.3    45  ASN45       0.1688
     59  C         -4.9520  -52.5310  -73.3960 C.2    45  ASN45       0.2292
     60  O         -5.1670  -51.9300  -74.4520 O.2    45  ASN45      -0.2864
     61  CB        -7.2040  -52.3770  -72.3180 C.3    45  ASN45       0.1181
     62  CG        -7.5520  -53.8360  -72.5200 C.2    45  ASN45       0.2629
     63  OD1       -6.7410  -54.7260  -72.2570 O.2    45  ASN45      -0.2716
     64  ND2       -8.7700  -54.0910  -72.9810 N.am   45  ASN45      -0.0877
     65  N         -6.1440  -52.8360  -77.0980 N.3    48  TYR48      -0.1241
     66  CA        -6.2830  -51.6890  -77.9950 C.3    48  TYR48       0.1605
     67  C         -5.0410  -51.4310  -78.8430 C.2    48  TYR48       0.2264
     68  O         -4.9710  -50.4280  -79.5550 O.2    48  TYR48      -0.2867
     69  CB        -6.6320  -50.4300  -77.1990 C.3    48  TYR48       0.0534
     70  CG        -8.0690  -50.3710  -76.7540 C.ar   48  TYR48      -0.0201
     71  CD1       -9.0330  -51.1710  -77.3490 C.ar   48  TYR48      -0.0009
     72  CD2       -8.4650  -49.5100  -75.7420 C.ar   48  TYR48      -0.0009
     73  CE1      -10.3560  -51.1180  -76.9440 C.ar   48  TYR48       0.0417
     74  CE2       -9.7830  -49.4480  -75.3340 C.ar   48  TYR48       0.0417
     75  CZ       -10.7220  -50.2530  -75.9360 C.ar   48  TYR48       0.1957
     76  OH       -12.0310  -50.1890  -75.5240 O.3    48  TYR48      -0.2866
     77  N         -3.0030  -44.1680  -67.2980 N.3    81  TYR81      -0.1241
     78  CA        -4.2450  -43.5980  -66.7650 C.3    81  TYR81       0.1605
     79  C         -3.9740  -42.3790  -65.8890 C.2    81  TYR81       0.2264
     80  O         -4.6490  -41.3520  -66.0200 O.2    81  TYR81      -0.2867
     81  CB        -5.0460  -44.6440  -65.9950 C.3    81  TYR81       0.0534
     82  CG        -6.4990  -44.2620  -65.8110 C.ar   81  TYR81      -0.0201
     83  CD1       -7.3400  -44.1250  -66.9100 C.ar   81  TYR81      -0.0009
     84  CD2       -7.0350  -44.0480  -64.5440 C.ar   81  TYR81      -0.0009
     85  CE1       -8.6700  -43.7760  -66.7590 C.ar   81  TYR81       0.0417
     86  CE2       -8.3720  -43.6940  -64.3780 C.ar   81  TYR81       0.0417
     87  CZ        -9.1790  -43.5610  -65.4900 C.ar   81  TYR81       0.1957
     88  OH       -10.5000  -43.2140  -65.3520 O.3    81  TYR81      -0.2866
@<TRIPOS>BOND
     1    18    17    2
     2    17    16    1
     3    10     9    2
     4    16    19    1
     5    16    15    1
     6    19    20    1
     7     9    15   am
     8     9     8    1
     9    20    21    1
    10    23    21   am
    11    14    13    1
    12    21    22    2
    13    68    67    2
    14    12    11    1
    15    12    13    1
    16     8    11    1
    17     8     7    1
    18     4     3    2
    19    67    66    1
    20    30    28    1
    21     6     5    1
    22     3     7   am
    23     3     2    1
    24    66    69    1
    25    66    65    1
    26    28    29    1
    27    28    25    1
    28    71    73   ar
    29    71    70   ar
    30    69    70    1
    31    24    25    1
    32     1     2    1
    33    73    75   ar
    34     5     2    1
    35    48    49    1
    36    48    47    1
    37    70    72   ar
    38    25    26    1
    39    75    76    1
    40    75    74   ar
    41    72    74   ar
    42    26    27    2
    43    26    31   am
    44    47    46    1
    45    46    43    1
    46    31    32    1
    47    34    33    2
    48    60    59    2
    49    33    32    1
    50    33    42   am
    51    32    35    1
    52    42    43    1
    53    43    44    1
    54    59    58    1
    55    64    62   am
    56    35    36    1
    57    44    45    2
    58    44    50   am
    59    62    61    1
    60    62    63    2
    61    37    36   ar
    62    37    39   ar
    63    61    58    1
    64    36    38   ar
    65    58    57    1
    66    50    51    1
    67    39    41   ar
    68    57    52   am
    69    38    40   ar
    70    52    53    2
    71    52    51    1
    72    41    40   ar
    73    51    54    1
    74    54    56    1
    75    54    55    1
    76    77    78    1
    77    83    85   ar
    78    83    82   ar
    79    78    81    1
    80    78    79    1
    81    85    87   ar
    82    80    79    2
    83    81    82    1
    84    82    84   ar
    85    87    88    1
    86    87    86   ar
    87    84    86   ar
