@<TRIPOS>MOLECULE
tmp/4ihhC00.pdb
 85 83 0 0 0
SMALL
GASTEIGER

@<TRIPOS>ATOM
      1  N          1.0700  -57.9170   -5.9540 N.3   309  ASN309     -0.1225
      2  CA         1.3600  -57.6050   -4.5540 C.3   309  ASN309      0.1785
      3  C          1.5090  -58.8190   -3.6350 C.2   309  ASN309      0.2597
      4  O          2.4670  -58.9060   -2.8580 O.2   309  ASN309     -0.2718
      5  CB         0.3240  -56.6320   -3.9830 C.3   309  ASN309      0.1169
      6  CG         0.6150  -56.2510   -2.5330 C.2   309  ASN309      0.2627
      7  OD1        1.3960  -55.3320   -2.2630 O.2   309  ASN309     -0.2716
      8  ND2       -0.0130  -56.9550   -1.5960 N.am  309  ASN309     -0.0877
      9  N          0.5740  -59.7600   -3.7270 N.am  310  LYS310     -0.1980
     10  CA         0.6270  -60.9490   -2.8730 C.3   310  LYS310      0.1596
     11  C          1.8720  -61.8090   -3.1340 C.2   310  LYS310      0.2287
     12  O          2.4090  -62.4340   -2.2190 O.2   310  LYS310     -0.2864
     13  CB        -0.6670  -61.7680   -2.9780 C.3   310  LYS310      0.0298
     14  CG        -1.0940  -62.1170   -4.3920 C.3   310  LYS310      0.0038
     15  CD        -2.4280  -62.8560   -4.3760 C.3   310  LYS310      0.0206
     16  CE        -2.3470  -64.1460   -3.5620 C.3   310  LYS310      0.1093
     17  NZ        -1.5500  -65.2110   -4.2420 N.3   310  LYS310     -0.1314
     18  N          4.8280  -60.4350   -4.3130 N.3   312  TRP312     -0.1227
     19  CA         5.9060  -59.6030   -3.7860 C.3   312  TRP312      0.1737
     20  C          6.1230  -59.7740   -2.2800 C.2   312  TRP312      0.2595
     21  O          7.2640  -59.8030   -1.8080 O.2   312  TRP312     -0.2718
     22  CB         5.6540  -58.1260   -4.1030 C.3   312  TRP312      0.0564
     23  CG         6.5500  -57.2330   -3.3160 C.ar  312  TRP312      0.0003
     24  CD1        7.8530  -56.9310   -3.5840 C.ar  312  TRP312      0.0946
     25  CD2        6.2190  -56.5480   -2.1040 C.ar  312  TRP312      0.0152
     26  NE1        8.3500  -56.0870   -2.6160 N.ar  312  TRP312     -0.2442
     27  CE2        7.3660  -55.8430   -1.6920 C.ar  312  TRP312      0.0810
     28  CE3        5.0590  -56.4610   -1.3270 C.ar  312  TRP312      0.0012
     29  CZ2        7.3840  -55.0560   -0.5390 C.ar  312  TRP312      0.0191
     30  CZ3        5.0780  -55.6830   -0.1850 C.ar  312  TRP312      0.0001
     31  CH2        6.2300  -54.9920    0.1990 C.ar  312  TRP312      0.0015
     32  N          5.0250  -59.8680   -1.5340 N.am  313  ARG313     -0.1966
     33  CA         5.0830  -60.0370   -0.0850 C.3   313  ARG313      0.1729
     34  C          5.9310  -61.2410    0.3180 C.2   313  ARG313      0.2616
     35  O          6.7620  -61.1480    1.2230 O.2   313  ARG313     -0.2715
     36  CB         3.6760  -60.1920    0.4910 C.3   313  ARG313      0.0348
     37  CG         2.8160  -58.9650    0.3490 C.3   313  ARG313      0.0492
     38  CD         1.4330  -59.1910    0.9170 C.3   313  ARG313      0.2205
     39  NE         0.7240  -57.9230    1.0690 N.pl3 313  ARG313     -0.0865
     40  CZ        -0.4220  -57.7730    1.7230 C.cat 313  ARG313      0.5346
     41  NH1       -1.0010  -58.8190    2.2930 N.pl3 313  ARG313      0.1354
     42  NH2       -0.9850  -56.5740    1.8100 N.pl3 313  ARG313      0.1354
     43  N          5.7140  -62.3640   -0.3590 N.am  314  LYS314     -0.1977
     44  CA         6.5010  -63.5670   -0.1190 C.3   314  LYS314      0.1596
     45  C          7.9430  -63.3790   -0.5770 C.2   314  LYS314      0.2287
     46  O          8.8750  -63.7140    0.1510 O.2   314  LYS314     -0.2864
     47  CB         5.8700  -64.7720   -0.8210 C.3   314  LYS314      0.0298
     48  CG         4.5660  -65.2230   -0.1960 C.3   314  LYS314      0.0038
     49  CD         3.6600  -65.8870   -1.2290 C.3   314  LYS314      0.0206
     50  CE         2.4330  -66.5270   -0.5830 C.3   314  LYS314      0.1093
     51  NZ         1.5260  -67.1230   -1.6040 N.3   314  LYS314     -0.1314
     52  N          9.6350  -60.6370   -0.8460 N.3   316  ALA316     -0.1231
     53  CA        10.2730  -59.7630    0.1310 C.3   316  ALA316      0.1694
     54  C         10.6500  -60.5060    1.4100 C.2   316  ALA316      0.2592
     55  O         11.8050  -60.4700    1.8310 O.2   316  ALA316     -0.2718
     56  CB         9.3710  -58.5890    0.4540 C.3   316  ALA316      0.0304
     57  N          9.6740  -61.1700    2.0280 N.am  317  ALA317     -0.1966
     58  CA         9.8980  -61.8470    3.3100 C.3   317  ALA317      0.1728
     59  C         10.9800  -62.9310    3.2360 C.2   317  ALA317      0.2616
     60  O         11.7450  -63.1140    4.1880 O.2   317  ALA317     -0.2715
     61  CB         8.5880  -62.4220    3.8540 C.3   317  ALA317      0.0334
     62  N         11.0390  -63.6430    2.1090 N.am  318  LEU318     -0.1977
     63  CA        12.0590  -64.6720    1.8930 C.3   318  LEU318      0.1596
     64  C         13.4470  -64.0790    1.6310 C.2   318  LEU318      0.2287
     65  O         14.4430  -64.5710    2.1610 O.2   318  LEU318     -0.2864
     66  CB        11.6660  -65.5990    0.7410 C.3   318  LEU318      0.0297
     67  CG        10.3790  -66.4170    0.8720 C.3   318  LEU318      0.0022
     68  CD1       10.1060  -67.1910   -0.4150 C.3   318  LEU318      0.0001
     69  CD2       10.4410  -67.3600    2.0590 C.3   318  LEU318      0.0001
     70  N         14.4640  -61.2840    2.7040 N.3   320  MET320     -0.1230
     71  CA        14.8810  -60.6940    3.9730 C.3   320  MET320      0.1702
     72  C         15.4280  -61.7440    4.9370 C.2   320  MET320      0.2592
     73  O         16.3580  -61.4750    5.6910 O.2   320  MET320     -0.2718
     74  CB        13.7360  -59.9030    4.6160 C.3   320  MET320      0.0401
     75  CG        13.3520  -58.6380    3.8560 C.3   320  MET320      0.0596
     76  SD        12.0200  -57.7320    4.6670 S.3   320  MET320     -0.1393
     77  CE        12.9380  -56.9080    5.9720 C.3   320  MET320      0.0692
     78  N         14.8550  -62.9430    4.8990 N.am  321  ASN321     -0.1974
     79  CA        15.3290  -64.0450    5.7290 C.3   321  ASN321      0.1688
     80  C         16.2080  -65.0100    4.9190 C.2   321  ASN321      0.2292
     81  O         16.2220  -66.2160    5.1610 O.2   321  ASN321     -0.2864
     82  CB        14.1380  -64.7790    6.3660 C.3   321  ASN321      0.1181
     83  CG        14.5450  -65.6700    7.5330 C.2   321  ASN321      0.2629
     84  OD1       15.4640  -65.3490    8.2900 O.2   321  ASN321     -0.2716
     85  ND2       13.8600  -66.8010    7.6770 N.am  321  ASN321     -0.0877
@<TRIPOS>BOND
     1     1     2    1
     2     2     5    1
     3     2     3    1
     4    14    15    1
     5    14    13    1
     6    15    16    1
     7    18    19    1
     8    17    16    1
     9    22    19    1
    10    22    23    1
    11     5     6    1
    12    19    20    1
    13     9     3   am
    14     9    10    1
    15     3     4    2
    16    24    23   ar
    17    24    26   ar
    18    23    25   ar
    19    11    10    1
    20    11    12    2
    21    13    10    1
    22    26    27   ar
    23     6     7    2
    24     6     8   am
    25    20    21    2
    26    20    32   am
    27    25    27   ar
    28    25    28   ar
    29    27    29   ar
    30    51    50    1
    31    32    33    1
    32    28    30   ar
    33    49    50    1
    34    49    48    1
    35    52    53    1
    36    47    48    1
    37    47    44    1
    38    45    44    1
    39    45    46    2
    40    29    31   ar
    41    68    67    1
    42    43    44    1
    43    43    34   am
    44    30    31   ar
    45    33    34    1
    46    33    36    1
    47    53    56    1
    48    53    54    1
    49    34    35    2
    50    37    36    1
    51    37    38    1
    52    66    67    1
    53    66    63    1
    54    67    69    1
    55    38    39    1
    56    39    40    2
    57    54    55    2
    58    54    57   am
    59    64    63    1
    60    64    65    2
    61    40    42    1
    62    40    41    1
    63    63    62    1
    64    57    58    1
    65    62    59   am
    66    70    71    1
    67    59    58    1
    68    59    60    2
    69    58    61    1
    70    75    74    1
    71    75    76    1
    72    71    74    1
    73    71    72    1
    74    76    77    1
    75    78    72   am
    76    78    79    1
    77    80    81    2
    78    80    79    1
    79    72    73    2
    80    79    82    1
    81    82    83    1
    82    83    85   am
    83    83    84    2
