@<TRIPOS>MOLECULE
tmp/4ihjF00.pdb
 187 176 0 0 0
SMALL
GASTEIGER

@<TRIPOS>ATOM
      1  N         14.8660   57.6870   94.2700 N.3    74  LYS74      -0.1245
      2  CA        14.9320   57.8740   95.7150 C.3    74  LYS74       0.1561
      3  C         15.6650   59.1560   96.1210 C.2    74  LYS74       0.2260
      4  O         15.0840   60.0380   96.7500 O.2    74  LYS74      -0.2867
      5  CB        15.6190   56.6770   96.3660 C.3    74  LYS74       0.0271
      6  CG        14.8670   55.3720   96.2180 C.3    74  LYS74       0.0035
      7  CD        13.4420   55.4920   96.7030 C.3    74  LYS74       0.0206
      8  CE        12.8950   54.1430   97.1340 C.3    74  LYS74       0.1093
      9  NZ        13.1990   53.0580   96.1580 N.3    74  LYS74      -0.1314
     10  N          8.2030   61.4510  105.0050 N.3    95  PRO95      -0.2116
     11  CA         9.0290   61.1730  106.1840 C.3    95  PRO95       0.1372
     12  C         10.3740   61.8890  106.1370 C.2    95  PRO95       0.2244
     13  O         10.9100   62.1320  105.0550 O.2    95  PRO95      -0.2868
     14  CB         9.2400   59.6560  106.1160 C.3    95  PRO95       0.0268
     15  CG         8.1130   59.1490  105.2910 C.3    95  PRO95       0.0207
     16  CD         7.8460   60.2180  104.2810 C.3    95  PRO95       0.0892
     17  N         15.1530   53.8850  108.2360 N.3   126  ILE126     -0.1245
     18  CA        15.3010   52.8990  107.1720 C.3   126  ILE126      0.1561
     19  C         16.1770   53.4500  106.0490 C.2   126  ILE126      0.2260
     20  O         15.9640   54.5590  105.5610 O.2   126  ILE126     -0.2867
     21  CB        13.9290   52.4610  106.5980 C.3   126  ILE126      0.0252
     22  CG1       14.1000   51.2710  105.6500 C.3   126  ILE126      0.0019
     23  CG2       13.2450   53.6160  105.8710 C.3   126  ILE126      0.0019
     24  CD1       12.7920   50.6580  105.2070 C.3   126  ILE126      0.0001
     25  N         17.7610   52.8410  102.1940 N.3   128  LYS128     -0.1231
     26  CA        17.4360   52.1670  100.9480 C.3   128  LYS128      0.1693
     27  C         18.0160   52.9450   99.7780 C.2   128  LYS128      0.2592
     28  O         18.4110   54.1030   99.9250 O.2   128  LYS128     -0.2718
     29  CB        15.9210   52.0280  100.8000 C.3   128  LYS128      0.0285
     30  CG        15.1370   53.1530  101.4530 C.3   128  LYS128      0.0035
     31  CD        13.6560   53.0720  101.1190 C.3   128  LYS128      0.0206
     32  CE        12.8980   54.2840  101.6420 C.3   128  LYS128      0.1093
     33  NZ        11.4910   54.3240  101.1540 N.3   128  LYS128     -0.1314
     34  N         18.0680   52.2970   98.6210 N.am  129  SER129     -0.1952
     35  CA        18.6680   52.8890   97.4330 C.3   129  SER129      0.1924
     36  C         17.8820   52.5370   96.1810 C.2   129  SER129      0.2314
     37  O         16.8940   51.8050   96.2400 O.2   129  SER129     -0.2863
     38  CB        20.1090   52.4060   97.2760 C.3   129  SER129      0.2116
     39  OG        20.5390   52.5480   95.9350 O.3   129  SER129     -0.2180
     40  N         18.1370   47.1430  101.6860 N.3   131  ILE131     -0.1245
     41  CA        17.3110   47.7640  102.7220 C.3   131  ILE131      0.1561
     42  C         17.7100   47.3360  104.1340 C.2   131  ILE131      0.2260
     43  O         17.6820   46.1460  104.4650 O.2   131  ILE131     -0.2867
     44  CB        15.8180   47.4210  102.5390 C.3   131  ILE131      0.0252
     45  CG1       15.2990   47.9700  101.2060 C.3   131  ILE131      0.0019
     46  CG2       15.0030   47.9670  103.7070 C.3   131  ILE131      0.0019
     47  CD1       14.0510   48.8510  101.3260 C.3   131  ILE131      0.0001
     48  N         15.7020   57.2130  106.0290 N.3   151  GLN151     -0.1231
     49  CA        14.3600   57.7460  106.1910 C.3   151  GLN151      0.1698
     50  C         13.7530   57.3160  107.5210 C.2   151  GLN151      0.2592
     51  O         13.6780   56.1250  107.8280 O.2   151  GLN151     -0.2718
     52  CB        13.4820   57.2680  105.0340 C.3   151  GLN151      0.0381
     53  CG        12.0980   57.8790  104.9870 C.3   151  GLN151      0.0905
     54  CD        11.3810   57.5400  103.7020 C.2   151  GLN151      0.2608
     55  OE1       11.1130   56.3710  103.4210 O.2   151  GLN151     -0.2717
     56  NE2       11.0830   58.5610  102.8990 N.am  151  GLN151     -0.0878
     57  N         13.3440   58.2940  108.3220 N.am  152  LYS152     -0.1966
     58  CA        12.5690   58.0110  109.5130 C.3   152  LYS152      0.1728
     59  C         11.6160   56.8710  109.1710 C.2   152  LYS152      0.2616
     60  O         10.8210   56.9710  108.2370 O.2   152  LYS152     -0.2715
     61  CB        11.7980   59.2610  109.9430 C.3   152  LYS152      0.0311
     62  CG        10.8130   59.0650  111.0970 C.3   152  LYS152      0.0038
     63  CD         9.8360   60.2420  111.1960 C.3   152  LYS152      0.0206
     64  CE         8.9350   60.3460  109.9580 C.3   152  LYS152      0.1093
     65  NZ         8.1930   61.6310  109.8920 N.3   152  LYS152     -0.1314
     66  N         11.7270   55.7760  109.9110 N.am  153  TYR153     -0.1960
     67  CA        10.8870   54.6110  109.6920 C.3   153  TYR153      0.1771
     68  C          9.5790   54.7990  110.4530 C.2   153  TYR153      0.2619
     69  O          9.5790   55.1350  111.6420 O.2   153  TYR153     -0.2715
     70  CB        11.6190   53.3550  110.1680 C.3   153  TYR153      0.0574
     71  CG        10.8680   52.0650  109.9390 C.ar  153  TYR153     -0.0198
     72  CD1       10.9120   51.4220  108.7080 C.ar  153  TYR153     -0.0009
     73  CD2       10.1250   51.4830  110.9570 C.ar  153  TYR153     -0.0009
     74  CE1       10.2320   50.2430  108.5000 C.ar  153  TYR153      0.0417
     75  CE2        9.4440   50.3020  110.7560 C.ar  153  TYR153      0.0417
     76  CZ         9.5000   49.6900  109.5260 C.ar  153  TYR153      0.1957
     77  OH         8.8280   48.5150  109.3170 O.3   153  TYR153     -0.2866
     78  N          8.4630   54.6050  109.7610 N.am  154  LEU154     -0.1977
     79  CA         7.1590   54.8110  110.3670 C.3   154  LEU154      0.1596
     80  C          6.9170   53.7330  111.4100 C.2   154  LEU154      0.2287
     81  O          6.4640   52.6330  111.0850 O.2   154  LEU154     -0.2864
     82  CB         6.0590   54.7720  109.3090 C.3   154  LEU154      0.0297
     83  CG         4.6380   54.8790  109.8610 C.3   154  LEU154      0.0022
     84  CD1        4.5330   56.0090  110.8740 C.3   154  LEU154      0.0001
     85  CD2        3.6470   55.0830  108.7320 C.3   154  LEU154      0.0001
     86  N          1.0040   44.9360  108.1400 N.3   166  LYS166     -0.1245
     87  CA         1.4020   46.1600  107.4870 C.3   166  LYS166      0.1561
     88  C          1.0030   46.0970  106.0170 C.2   166  LYS166      0.2260
     89  O          0.6420   45.0340  105.5130 O.2   166  LYS166     -0.2867
     90  CB         2.9170   46.2950  107.6370 C.3   166  LYS166      0.0271
     91  CG         3.4950   47.6270  107.2200 C.3   166  LYS166      0.0035
     92  CD         4.9440   47.7000  107.6520 C.3   166  LYS166      0.0206
     93  CE         5.6090   48.9870  107.2310 C.3   166  LYS166      0.1093
     94  NZ         6.9420   49.1090  107.8860 N.3   166  LYS166     -0.1314
     95  N          1.1380   48.7450  102.0180 N.3   168  ASP168     -0.1239
     96  CA         1.3250   50.0270  101.3500 C.3   168  ASP168      0.1674
     97  C          0.2650   50.1760  100.2590 C.2   168  ASP168      0.2266
     98  O         -0.2830   49.1840   99.7710 O.2   168  ASP168     -0.2867
     99  CB         2.7460   50.1730  100.7820 C.3   168  ASP168      0.1410
    100  CG         2.9470   49.4260   99.4710 C.2   168  ASP168      0.3668
    101  OD1        2.5540   49.9560   98.4150 O.co2 168  ASP168     -0.2456
    102  OD2        3.5260   48.3190   99.4910 O.co2 168  ASP168     -0.2456
    103  N         -0.7610   46.5980   98.8180 N.3   190  ARG190     -0.1245
    104  CA         0.2130   45.5240   98.8880 C.3   190  ARG190      0.1563
    105  C          0.4020   45.2080  100.3610 C.2   190  ARG190      0.2260
    106  O          1.0360   45.9760  101.0890 O.2   190  ARG190     -0.2867
    107  CB         1.5480   45.9180   98.2390 C.3   190  ARG190      0.0307
    108  CG         1.5940   45.7700   96.7040 C.3   190  ARG190      0.0489
    109  CD         1.1050   47.0130   95.9760 C.3   190  ARG190      0.2205
    110  NE         1.9150   48.1940   96.2840 N.pl3 190  ARG190     -0.0865
    111  CZ         2.9570   48.6230   95.5700 C.cat 190  ARG190      0.5346
    112  NH1        3.6100   49.7110   95.9580 N.pl3 190  ARG190      0.1354
    113  NH2        3.3560   47.9810   94.4710 N.pl3 190  ARG190      0.1354
    114  N          8.1100   43.8390  107.6430 N.3   207  HIS207     -0.1226
    115  CA         8.4770   45.2460  107.6570 C.3   207  HIS207      0.1752
    116  C          8.4900   45.8660  106.2630 C.2   207  HIS207      0.2596
    117  O          8.2440   47.0630  106.1300 O.2   207  HIS207     -0.2718
    118  CB         9.8420   45.4110  108.3210 C.3   207  HIS207      0.0759
    119  CG         9.8130   45.2230  109.8060 C.ar  207  HIS207      0.0818
    120  ND1        9.1490   46.0840  110.6550 N.ar  207  HIS207     -0.2268
    121  CD2       10.3590   44.2670  110.5940 C.ar  207  HIS207      0.1154
    122  CE1        9.2910   45.6670  111.9010 C.ar  207  HIS207      0.1986
    123  NE2       10.0210   44.5660  111.8910 N.ar  207  HIS207     -0.2212
    124  N          8.7710   45.0560  105.2400 N.am  208  LEU208     -0.1966
    125  CA         8.7910   45.5140  103.8460 C.3   208  LEU208      0.1728
    126  C          7.7040   44.8010  103.0470 C.2   208  LEU208      0.2617
    127  O          7.7060   43.5730  102.9720 O.2   208  LEU208     -0.2715
    128  CB        10.1490   45.2230  103.2110 C.3   208  LEU208      0.0311
    129  CG        11.3810   45.5860  104.0430 C.3   208  LEU208      0.0022
    130  CD1       12.6520   45.1600  103.3260 C.3   208  LEU208      0.0001
    131  CD2       11.4150   47.0720  104.3440 C.3   208  LEU208      0.0001
    132  N          6.7980   45.5620  102.4320 N.am  209  THR209     -0.1937
    133  CA         5.5610   44.9850  101.8930 C.3   209  THR209      0.2028
    134  C          5.6030   44.6380  100.4030 C.2   209  THR209      0.2642
    135  O          4.5810   44.2610   99.8230 O.2   209  THR209     -0.2714
    136  CB         4.3420   45.9090  102.1520 C.3   209  THR209      0.1808
    137  OG1        4.5080   47.1490  101.4590 O.3   209  THR209     -0.2208
    138  CG2        4.1810   46.1850  103.6420 C.3   209  THR209      0.0379
    139  N          6.7770   44.7450   99.7900 N.am  210  ASN210     -0.1971
    140  CA         6.9340   44.3800   98.3810 C.3   210  ASN210      0.1688
    141  C          6.3660   43.0000   98.0610 C.2   210  ASN210      0.2292
    142  O          6.5960   42.0300   98.7900 O.2   210  ASN210     -0.2864
    143  CB         8.4090   44.4130   97.9880 C.3   210  ASN210      0.1181
    144  CG         9.0310   45.7800   98.1770 C.2   210  ASN210      0.2629
    145  OD1        9.3160   46.1910   99.3010 O.2   210  ASN210     -0.2716
    146  ND2        9.2550   46.4900   97.0760 N.am  210  ASN210     -0.0877
    147  N          3.4480   55.2550   95.6620 N.3   286  ASP286     -0.1239
    148  CA         3.3310   54.3180   96.7970 C.3   286  ASP286      0.1674
    149  C          3.1570   55.0600   98.1180 C.2   286  ASP286      0.2266
    150  O          3.9430   55.9440   98.4420 O.2   286  ASP286     -0.2867
    151  CB         4.5730   53.4270   96.9220 C.3   286  ASP286      0.1410
    152  CG         4.8230   52.5730   95.6890 C.2   286  ASP286      0.3668
    153  OD1        3.9780   52.5470   94.7650 O.co2 286  ASP286     -0.2456
    154  OD2        5.8770   51.9130   95.6510 O.co2 286  ASP286     -0.2456
    155  N          2.1700   54.9150  102.5270 N.3   288  MET288     -0.1245
    156  CA         1.9640   54.2510  103.8160 C.3   288  MET288      0.1570
    157  C          0.9490   55.0570  104.6130 C.2   288  MET288      0.2261
    158  O          0.8660   56.2840  104.4840 O.2   288  MET288     -0.2867
    159  CB         3.2590   54.1960  104.6390 C.3   288  MET288      0.0387
    160  CG         4.2540   53.1180  104.2380 C.3   288  MET288      0.0595
    161  SD         4.1190   51.5520  105.1220 S.3   288  MET288     -0.1393
    162  CE         3.7200   52.1030  106.7770 C.3   288  MET288      0.0692
    163  N          5.8180   57.3370  100.1640 N.3   298  ILE298     -0.1231
    164  CA         7.0660   56.5910  100.2360 C.3   298  ILE298      0.1692
    165  C          7.9350   56.8020   98.9970 C.2   298  ILE298      0.2591
    166  O          9.1300   57.0770   99.1100 O.2   298  ILE298     -0.2718
    167  CB         6.8050   55.0980  100.4260 C.3   298  ILE298      0.0266
    168  CG1        5.9360   54.8870  101.6560 C.3   298  ILE298      0.0019
    169  CG2        8.1100   54.3630  100.5780 C.3   298  ILE298      0.0020
    170  CD1        6.4440   55.6370  102.8860 C.3   298  ILE298      0.0001
    171  N          7.3360   56.6610   97.8190 N.am  299  GLU299     -0.1979
    172  CA         8.0580   56.8670   96.5660 C.3   299  GLU299      0.1602
    173  C          7.1180   56.9930   95.3680 C.2   299  GLU299      0.2287
    174  O          5.9300   56.6620   95.4420 O.2   299  GLU299     -0.2864
    175  CB         9.0210   55.7060   96.3020 C.3   299  GLU299      0.0415
    176  CG         8.3230   54.4330   95.8270 C.3   299  GLU299      0.1163
    177  CD         9.2670   53.4280   95.1720 C.2   299  GLU299      0.3649
    178  OE1       10.3840   53.8070   94.7590 O.co2 299  GLU299     -0.2457
    179  OE2        8.8810   52.2490   95.0610 O.co2 299  GLU299     -0.2457
    180  N          6.9510   55.7530   91.3550 N.3   301  ASN301     -0.1240
    181  CA         7.5220   54.8920   90.3050 C.3   301  ASN301      0.1653
    182  C          7.2300   55.3530   88.8790 C.2   301  ASN301      0.2266
    183  O          6.0790   55.6170   88.5240 O.2   301  ASN301     -0.2867
    184  CB         7.0210   53.4720   90.4560 C.3   301  ASN301      0.1155
    185  CG         7.4390   52.8530   91.7730 C.2   301  ASN301      0.2627
    186  OD1        8.5340   52.3040   91.9000 O.2   301  ASN301     -0.2716
    187  ND2        6.5740   52.9570   92.7690 N.am  301  ASN301     -0.0877
@<TRIPOS>BOND
     1   183   182    2
     2   182   181    1
     3   181   184    1
     4   181   180    1
     5   184   185    1
     6   185   186    2
     7   185   187   am
     8     1     2    1
     9   113   111    1
    10   178   177   ar
    11   153   152   ar
    12   179   177   ar
    13   177   176    1
    14   173   174    2
    15   173   172    1
    16   111   112    1
    17   111   110    2
    18   154   152   ar
    19   147   148    1
    20   152   151    1
    21     2     3    1
    22     2     5    1
    23   176   175    1
    24    39    38    1
    25   109   110    1
    26   109   108    1
    27     3     4    2
    28     9     8    1
    29    36    37    2
    30    36    35    1
    31     6     5    1
    32     6     7    1
    33   175   172    1
    34   172   171    1
    35     7     8    1
    36   108   107    1
    37   148   151    1
    38   148   149    1
    39   146   144   am
    40    38    35    1
    41    35    34    1
    42   171   165   am
    43   143   144    1
    44   143   140    1
    45   141   140    1
    46   141   142    2
    47   149   150    2
    48   144   145    2
    49   107   104    1
    50   140   139    1
    51   101   100   ar
    52    34    27   am
    53   103   104    1
    54   104   105    1
    55   165   166    2
    56   165   164    1
    57   100   102   ar
    58   100    99    1
    59    98    97    2
    60    27    28    2
    61    27    26    1
    62   139   134   am
    63   135   134    2
    64   163   164    1
    65   164   167    1
    66    97    96    1
    67   105   106    2
    68   134   133    1
    69   167   169    1
    70   167   168    1
    71    99    96    1
    72    29    26    1
    73    29    30    1
    74    26    25    1
    75    31    30    1
    76    31    32    1
    77    33    32    1
    78    45    47    1
    79    45    44    1
    80    96    95    1
    81   137   136    1
    82   168   170    1
    83    40    41    1
    84   133   136    1
    85   133   132    1
    86   136   138    1
    87   132   126   am
    88   155   156    1
    89    44    41    1
    90    44    46    1
    91    41    42    1
    92    56    54   am
    93   127   126    2
    94   126   125    1
    95   128   125    1
    96   128   129    1
    97   130   129    1
    98    55    54    2
    99    54    53    1
   100   156   157    1
   101   156   159    1
   102   125   124    1
   103   129   131    1
   104    42    43    2
   105   160   159    1
   106   160   161    1
   107    16    10    1
   108    16    15    1
   109   158   157    2
   110    53    52    1
   111    10    11    1
   112    52    49    1
   113    13    12    2
   114   161   162    1
   115    24    22    1
   116   124   116   am
   117    15    14    1
   118    89    88    2
   119    20    19    2
   120    22    21    1
   121    23    21    1
   122    88    87    1
   123    48    49    1
   124    19    18    1
   125    14    11    1
   126   117   116    2
   127    12    11    1
   128    49    50    1
   129   116   115    1
   130    21    18    1
   131    18    17    1
   132    91    90    1
   133    91    92    1
   134    93    92    1
   135    93    94    1
   136    87    90    1
   137    87    86    1
   138    50    51    2
   139    50    57   am
   140   114   115    1
   141   115   118    1
   142    60    59    2
   143   118   119    1
   144    57    58    1
   145    74    72   ar
   146    74    76   ar
   147    72    71   ar
   148    85    83    1
   149    59    58    1
   150    59    66   am
   151    82    83    1
   152    82    79    1
   153    77    76    1
   154    58    61    1
   155    76    75   ar
   156    67    66    1
   157    67    70    1
   158    67    68    1
   159    78    79    1
   160    78    68   am
   161   119   121   ar
   162   119   120   ar
   163    83    84    1
   164    65    64    1
   165    71    70    1
   166    71    73   ar
   167    61    62    1
   168    64    63    1
   169    79    80    1
   170    68    69    2
   171   121   123   ar
   172   120   122   ar
   173    75    73   ar
   174    81    80    2
   175    62    63    1
   176   123   122   ar
