@<TRIPOS>MOLECULE
tmp/4ihlB00.pdb
 155 147 0 0 0
SMALL
GASTEIGER

@<TRIPOS>ATOM
      1  N         32.2140    0.1990   -6.5070 N.3    49  LYS49      -0.1245
      2  CA        32.6620    1.2800   -5.6780 C.3    49  LYS49       0.1561
      3  C         31.5760    1.6900   -4.6400 C.2    49  LYS49       0.2260
      4  O         31.9040    2.0530   -3.5120 O.2    49  LYS49      -0.2867
      5  CB        33.1090    2.4860   -6.4970 C.3    49  LYS49       0.0271
      6  CG        33.6270    3.5940   -5.6100 C.3    49  LYS49       0.0035
      7  CD        34.1140    4.8230   -6.3820 C.3    49  LYS49       0.0206
      8  CE        34.6340    5.9110   -5.4160 C.3    49  LYS49       0.1093
      9  NZ        35.5360    5.3230   -4.3760 N.3    49  LYS49      -0.1314
     10  N         33.4910    0.9610    3.7630 N.3    56  ARG56      -0.1245
     11  CA        34.5550    1.8600    4.1970 C.3    56  ARG56       0.1563
     12  C         33.9890    2.9810    5.0600 C.2    56  ARG56       0.2260
     13  O         34.5960    3.3870    6.0510 O.2    56  ARG56      -0.2867
     14  CB        35.3690    2.4620    3.0330 C.3    56  ARG56       0.0307
     15  CG        36.1440    1.4350    2.1760 C.3    56  ARG56       0.0489
     16  CD        36.6790    2.0710    0.8630 C.3    56  ARG56       0.2205
     17  NE        37.7510    3.0810    1.0380 N.pl3  56  ARG56      -0.0865
     18  CZ        37.8360    4.2130    0.3310 C.cat  56  ARG56       0.5346
     19  NH1       36.9040    4.5370   -0.5720 N.pl3  56  ARG56       0.1354
     20  NH2       38.8330    5.0510    0.5320 N.pl3  56  ARG56       0.1354
     21  N         44.0820    0.4670  -12.5990 N.3   118  LYS118     -0.1245
     22  CA        43.6890    1.4700  -11.6150 C.3   118  LYS118      0.1561
     23  C         42.7220    0.8390  -10.5980 C.2   118  LYS118      0.2260
     24  O         42.8810    0.9810   -9.4050 O.2   118  LYS118     -0.2867
     25  CB        43.0330    2.6830  -12.2800 C.3   118  LYS118      0.0271
     26  CG        42.5690    3.7130  -11.2500 C.3   118  LYS118      0.0035
     27  CD        42.0070    4.9240  -11.9070 C.3   118  LYS118      0.0206
     28  CE        41.2680    5.7960  -10.9130 C.3   118  LYS118      0.1093
     29  NZ        40.1270    5.0030  -10.3840 N.3   118  LYS118     -0.1314
     30  N         44.4100   -1.0880   -2.3980 N.3   125  ARG125     -0.1231
     31  CA        44.4980   -0.0100   -1.4350 C.3   125  ARG125      0.1694
     32  C         43.3480   -0.0770   -0.3990 C.2   125  ARG125      0.2592
     33  O         43.5380    0.2920    0.7460 O.2   125  ARG125     -0.2718
     34  CB        44.5090    1.3530   -2.1320 C.3   125  ARG125      0.0321
     35  CG        44.4400    2.5280   -1.1720 C.3   125  ARG125      0.0489
     36  CD        44.6090    3.9410   -1.8600 C.3   125  ARG125      0.2205
     37  NE        43.6990    4.0900   -3.0190 N.pl3 125  ARG125     -0.0865
     38  CZ        42.5630    4.7860   -3.0160 C.cat 125  ARG125      0.5346
     39  NH1       42.1410    5.4640   -1.9200 N.pl3 125  ARG125      0.1354
     40  NH2       41.8450    4.8100   -4.1290 N.pl3 125  ARG125      0.1354
     41  N         42.1540   -0.5380   -0.7730 N.am  126  TYR126     -0.1976
     42  CA        41.0950   -0.5510    0.2500 C.3   126  TYR126      0.1639
     43  C         41.4170   -1.6650    1.2450 C.2   126  TYR126      0.2290
     44  O         41.1190   -1.5430    2.4230 O.2   126  TYR126     -0.2864
     45  CB        39.6990   -0.7490   -0.3260 C.3   126  TYR126      0.0560
     46  CG        39.2820    0.2890   -1.3350 C.ar  126  TYR126     -0.0198
     47  CD1       39.7460    1.5690   -1.2390 C.ar  126  TYR126     -0.0009
     48  CD2       38.4090   -0.0260   -2.3790 C.ar  126  TYR126     -0.0009
     49  CE1       39.4150    2.5070   -2.1330 C.ar  126  TYR126      0.0417
     50  CE2       38.0700    0.9370   -3.3490 C.ar  126  TYR126      0.0417
     51  CZ        38.5680    2.2120   -3.1820 C.ar  126  TYR126      0.1957
     52  OH        38.2930    3.2520   -4.0300 O.3   126  TYR126     -0.2866
     53  N         43.7840   -0.2300    3.8370 N.3   129  GLU129     -0.1245
     54  CA        43.2480    0.6990    4.8470 C.3   129  GLU129      0.1567
     55  C         42.8670   -0.0420    6.1230 C.2   129  GLU129      0.2260
     56  O         42.7700    0.5560    7.1840 O.2   129  GLU129     -0.2867
     57  CB        42.0280    1.4540    4.3020 C.3   129  GLU129      0.0388
     58  CG        42.3270    2.8690    3.7790 C.3   129  GLU129      0.1160
     59  CD        41.3690    3.3310    2.6580 C.2   129  GLU129      0.3649
     60  OE1       40.1410    3.0790    2.7290 O.co2 129  GLU129     -0.2457
     61  OE2       41.8520    3.9670    1.6990 O.co2 129  GLU129     -0.2457
     62  N         42.3490   10.4420  -13.2860 N.3   166  GLY166     -0.1225
     63  CA        41.7870    9.7680  -12.1270 C.3   166  GLY166      0.1811
     64  C         42.7910    8.8040  -11.5340 C.2   166  GLY166      0.2280
     65  O         42.8340    8.5680  -10.3050 O.2   166  GLY166     -0.2866
     66  N         45.0040   10.8890   -9.5440 N.3   169  LEU169     -0.1231
     67  CA        44.3110   11.2690   -8.3020 C.3   169  LEU169      0.1693
     68  C         44.4020   10.1400   -7.2660 C.2   169  LEU169      0.2592
     69  O         44.8170   10.3710   -6.1320 O.2   169  LEU169     -0.2718
     70  CB        42.8680   11.7250   -8.5790 C.3   169  LEU169      0.0284
     71  CG        42.0760   12.2440   -7.3790 C.3   169  LEU169      0.0019
     72  CD1       42.6560   13.5430   -6.9130 C.3   169  LEU169      0.0001
     73  CD2       40.6050   12.4200   -7.7240 C.3   169  LEU169      0.0001
     74  N         44.0770    8.9050   -7.6470 N.am  170  ASN170     -0.1974
     75  CA        44.0940    7.8810   -6.6580 C.3   170  ASN170      0.1688
     76  C         45.5220    7.4480   -6.2370 C.2   170  ASN170      0.2292
     77  O         45.7340    7.0820   -5.0780 O.2   170  ASN170     -0.2864
     78  CB        43.2710    6.6900   -7.1100 C.3   170  ASN170      0.1181
     79  CG        41.7680    6.9950   -7.1500 C.2   170  ASN170      0.2629
     80  OD1       41.3620    8.1580   -7.0400 O.2   170  ASN170     -0.2716
     81  ND2       40.9440    5.9370   -7.3080 N.am  170  ASN170     -0.0877
     82  N         46.7280    9.8640   -3.6980 N.3   173  VAL173     -0.1245
     83  CA        46.1440    9.5660   -2.3900 C.3   173  VAL173      0.1561
     84  C         46.8570    8.3350   -1.7620 C.2   173  VAL173      0.2260
     85  O         46.9900    8.2390   -0.5420 O.2   173  VAL173     -0.2867
     86  CB        44.5490    9.3360   -2.5180 C.3   173  VAL173      0.0252
     87  CG1       43.9360    8.7070   -1.2870 C.3   173  VAL173      0.0019
     88  CG2       43.8210   10.6390   -2.8010 C.3   173  VAL173      0.0019
     89  N         49.9780    9.3730   -0.1770 N.3   176  TYR176     -0.1227
     90  CA        49.7360   10.1860    0.9820 C.3   176  TYR176      0.1736
     91  C         49.2970    9.3950    2.2070 C.2   176  TYR176      0.2595
     92  O         49.8920    9.5450    3.2760 O.2   176  TYR176     -0.2718
     93  CB        48.6910   11.2420    0.6920 C.3   176  TYR176      0.0548
     94  CG        48.5880   12.2570    1.8010 C.ar  176  TYR176     -0.0200
     95  CD1       49.2970   13.4510    1.7460 C.ar  176  TYR176     -0.0009
     96  CD2       47.7780   12.0250    2.9150 C.ar  176  TYR176     -0.0009
     97  CE1       49.2270   14.3860    2.7870 C.ar  176  TYR176      0.0417
     98  CE2       47.6830   12.9660    3.9580 C.ar  176  TYR176      0.0417
     99  CZ        48.4100   14.1410    3.8790 C.ar  176  TYR176      0.1957
    100  OH        48.3050   15.0810    4.8840 O.3   176  TYR176     -0.2866
    101  N         48.2810    8.5490    2.0470 N.am  177  GLU177     -0.1979
    102  CA        47.5770    7.9170    3.1630 C.3   177  GLU177      0.1602
    103  C         48.1120    6.5710    3.4830 C.2   177  GLU177      0.2287
    104  O         47.9150    6.0530    4.5650 O.2   177  GLU177     -0.2864
    105  CB        46.1210    7.6670    2.7680 C.3   177  GLU177      0.0415
    106  CG        45.3810    8.8730    2.3010 C.3   177  GLU177      0.1163
    107  CD        43.9540    8.8190    2.7120 C.2   177  GLU177      0.3649
    108  OE1       43.2850    7.7890    2.4320 O.co2 177  GLU177     -0.2457
    109  OE2       43.5150    9.8090    3.3260 O.co2 177  GLU177     -0.2457
    110  N         39.5040   18.1530   -8.2550 N.3   217  LEU217     -0.1245
    111  CA        39.8170   17.2890   -7.1240 C.3   217  LEU217      0.1561
    112  C         41.3460   17.1730   -6.8570 C.2   217  LEU217      0.2260
    113  O         41.7820   17.0420   -5.6990 O.2   217  LEU217     -0.2867
    114  CB        39.1810   15.8910   -7.3340 C.3   217  LEU217      0.0270
    115  CG        37.6470   15.8070   -7.5350 C.3   217  LEU217      0.0019
    116  CD1       37.1680   14.3730   -7.6200 C.3   217  LEU217      0.0001
    117  CD2       36.9060   16.5070   -6.4220 C.3   217  LEU217      0.0001
    118  N         42.2560   20.4490   -5.2730 N.3   220  ASP220     -0.1225
    119  CA        41.7040   20.4740   -3.9010 C.3   220  ASP220      0.1805
    120  C         42.5730   19.6860   -2.9310 C.2   220  ASP220      0.2597
    121  O         42.7540   20.1150   -1.7940 O.2   220  ASP220     -0.2718
    122  CB        40.2740   19.9170   -3.8390 C.3   220  ASP220      0.1424
    123  CG        39.2300   20.8560   -4.4540 C.2   220  ASP220      0.3668
    124  OD1       39.5240   22.0430   -4.6850 O.co2 220  ASP220     -0.2456
    125  OD2       38.1140   20.3850   -4.7230 O.co2 220  ASP220     -0.2456
    126  N         43.0910   18.5280   -3.3720 N.am  221  ASN221     -0.1974
    127  CA        43.9400   17.6920   -2.5230 C.3   221  ASN221      0.1688
    128  C         45.2890   18.3630   -2.2510 C.2   221  ASN221      0.2292
    129  O         45.8380   18.2680   -1.1430 O.2   221  ASN221     -0.2864
    130  CB        44.2100   16.3440   -3.1820 C.3   221  ASN221      0.1181
    131  CG        43.1250   15.3260   -2.9260 C.2   221  ASN221      0.2629
    132  OD1       42.1720   15.5640   -2.1660 O.2   221  ASN221     -0.2716
    133  ND2       43.2860   14.1480   -3.5410 N.am  221  ASN221     -0.0877
    134  N         44.7470   21.0120    0.2150 N.3   224  LEU224     -0.1231
    135  CA        44.6230   20.4150    1.5350 C.3   224  LEU224      0.1693
    136  C         45.9760   19.9730    2.0820 C.2   224  LEU224      0.2592
    137  O         46.2240   20.0670    3.2830 O.2   224  LEU224     -0.2718
    138  CB        43.6660   19.2060    1.5230 C.3   224  LEU224      0.0284
    139  CG        43.5230   18.3840    2.8200 C.3   224  LEU224      0.0019
    140  CD1       42.7680   19.1940    3.9170 C.3   224  LEU224      0.0001
    141  CD2       42.8650   17.0100    2.5910 C.3   224  LEU224      0.0001
    142  N         46.8390   19.4690    1.2090 N.am  225  TRP225     -0.1976
    143  CA        48.0550   18.8390    1.6700 C.3   225  TRP225      0.1640
    144  C         49.2020   19.8410    1.9350 C.2   225  TRP225      0.2290
    145  O         50.1810   19.4920    2.5940 O.2   225  TRP225     -0.2864
    146  CB        48.4990   17.7540    0.6860 C.3   225  TRP225      0.0576
    147  CG        47.6050   16.5320    0.6300 C.ar  225  TRP225      0.0006
    148  CD1       46.8020   16.0460    1.6260 C.ar  225  TRP225      0.0946
    149  CD2       47.4800   15.6120   -0.4700 C.ar  225  TRP225      0.0152
    150  NE1       46.1720   14.8930    1.2110 N.ar  225  TRP225     -0.2442
    151  CE2       46.5690   14.6040   -0.0710 C.ar  225  TRP225      0.0810
    152  CE3       48.0480   15.5460   -1.7550 C.ar  225  TRP225      0.0012
    153  CZ2       46.1990   13.5370   -0.9170 C.ar  225  TRP225      0.0191
    154  CZ3       47.6820   14.4740   -2.6040 C.ar  225  TRP225      0.0001
    155  CH2       46.7640   13.4870   -2.1700 C.ar  225  TRP225      0.0015
@<TRIPOS>BOND
     1    62    63    1
     2    21    22    1
     3    25    22    1
     4    25    26    1
     5    63    64    1
     6    27    26    1
     7    27    28    1
     8    22    23    1
     9    64    65    2
    10    28    29    1
    11    23    24    2
    12    66    67    1
    13    70    67    1
    14    70    71    1
    15    67    68    1
    16   110   111    1
    17    73    71    1
    18    74    68   am
    19    74    75    1
    20   116   115    1
    21   115   114    1
    22   115   117    1
    23    71    72    1
    24   114   111    1
    25    81    79   am
    26    68    69    2
    27    79    78    1
    28    79    80    2
    29   111   112    1
    30    78    75    1
    31   112   113    2
    32    75    76    1
    33     1     2    1
    34     5     2    1
    35     5     6    1
    36     7     6    1
    37     7     8    1
    38    76    77    2
    39     2     3    1
    40     8     9    1
    41   118   119    1
    42   125   123   ar
    43   124   123   ar
    44     3     4    2
    45   123   122    1
    46    40    38    1
    47    52    51    1
    48   119   122    1
    49   119   120    1
    50    82    83    1
    51   133   131   am
    52   126   120   am
    53   126   127    1
    54    50    51   ar
    55    50    48   ar
    56   130   131    1
    57   130   127    1
    58    51    49   ar
    59    37    38    2
    60    37    36    1
    61    38    39    1
    62   120   121    2
    63   131   132    2
    64    88    86    1
    65   154   155   ar
    66   154   152   ar
    67   127   128    1
    68    86    83    1
    69    86    87    1
    70    30    31    1
    71    83    84    1
    72    48    46   ar
    73   128   129    2
    74   155   153   ar
    75    49    47   ar
    76    34    31    1
    77    34    35    1
    78    36    35    1
    79    84    85    2
    80   152   149   ar
    81    31    32    1
    82    46    47   ar
    83    46    45    1
    84   153   151   ar
    85    41    32   am
    86    41    42    1
    87    19    18    1
    88   149   151   ar
    89   149   147   ar
    90    32    33    2
    91    45    42    1
    92    89    90    1
    93   151   150   ar
    94   134   135    1
    95    42    43    1
    96    18    20    1
    97    18    17    2
    98   147   146    1
    99   147   148   ar
   100   146   143    1
   101    93    90    1
   102    93    94    1
   103    16    17    1
   104    16    15    1
   105    90    91    1
   106   142   143    1
   107   142   136   am
   108   150   148   ar
   109    43    44    2
   110   138   135    1
   111   138   139    1
   112   135   136    1
   113   143   144    1
   114    61    59   ar
   115    95    94   ar
   116    95    97   ar
   117    94    96   ar
   118   144   145    2
   119   101    91   am
   120   101   102    1
   121   136   137    2
   122    15    14    1
   123    91    92    2
   124   106   107    1
   125   106   105    1
   126   108   107   ar
   127   141   139    1
   128    59    60   ar
   129    59    58    1
   130   107   109   ar
   131   105   102    1
   132    97    99   ar
   133   139   140    1
   134    96    98   ar
   135    14    11    1
   136   102   103    1
   137   103   104    2
   138    10    11    1
   139    58    57    1
   140    53    54    1
   141    99    98   ar
   142    99   100    1
   143    11    12    1
   144    57    54    1
   145    54    55    1
   146    12    13    2
   147    55    56    2
