@<TRIPOS>MOLECULE
tmp/4ihlB01.pdb
 164 153 0 0 0
SMALL
GASTEIGER

@<TRIPOS>ATOM
      1  N         20.8030    0.5790  -10.6460 N.3    14  GLU14      -0.1245
      2  CA        21.4690    1.8210  -10.3530 C.3    14  GLU14       0.1567
      3  C         20.4870    2.9790  -10.0850 C.2    14  GLU14       0.2260
      4  O         20.6380    3.7270   -9.1120 O.2    14  GLU14      -0.2867
      5  CB        22.4050    2.1770  -11.5010 C.3    14  GLU14       0.0388
      6  CG        23.2100    3.4390  -11.1770 C.3    14  GLU14       0.1160
      7  CD        23.9820    4.0160  -12.3710 C.2    14  GLU14       0.3649
      8  OE1       23.6590    3.6640  -13.5180 O.co2  14  GLU14      -0.2457
      9  OE2       24.9020    4.8370  -12.1590 O.co2  14  GLU14      -0.2457
     10  N         30.8930    1.5120  -21.4900 N.3    39  GLU39      -0.1245
     11  CA        29.7220    1.6080  -20.6550 C.3    39  GLU39       0.1567
     12  C         29.6870    0.4710  -19.6340 C.2    39  GLU39       0.2260
     13  O         29.3540    0.7010  -18.4830 O.2    39  GLU39      -0.2867
     14  CB        28.4250    1.6100  -21.4850 C.3    39  GLU39       0.0388
     15  CG        27.1920    1.4570  -20.6070 C.3    39  GLU39       0.1160
     16  CD        25.8770    1.7270  -21.3430 C.2    39  GLU39       0.3649
     17  OE1       25.3970    0.8120  -22.0560 O.co2  39  GLU39      -0.2457
     18  OE2       25.3160    2.8420  -21.1750 O.co2  39  GLU39      -0.2457
     19  N         32.1940   -1.4410  -18.3760 N.3    41  ARG41      -0.1231
     20  CA        33.2100   -1.3190  -17.3330 C.3    41  ARG41       0.1694
     21  C         32.9180   -0.1550  -16.3910 C.2    41  ARG41       0.2592
     22  O         33.1660   -0.2610  -15.2110 O.2    41  ARG41      -0.2718
     23  CB        34.6310   -1.2530  -17.8910 C.3    41  ARG41       0.0321
     24  CG        34.8100   -0.3600  -19.0410 C.3    41  ARG41       0.0489
     25  CD        35.3460    0.9800  -18.6460 C.3    41  ARG41       0.2205
     26  NE        36.4650    1.3240  -19.5210 N.pl3  41  ARG41      -0.0865
     27  CZ        36.8050    2.5630  -19.8190 C.cat  41  ARG41       0.5346
     28  NH1       36.0940    3.5950  -19.3220 N.pl3  41  ARG41       0.1354
     29  NH2       37.8300    2.7530  -20.6270 N.pl3  41  ARG41       0.1354
     30  N         32.3370    0.9360  -16.9140 N.am   42  ASN42      -0.1960
     31  CA        31.9610    2.0590  -16.0590 C.3    42  ASN42       0.1819
     32  C         30.8600    1.6270  -15.0860 C.2    42  ASN42       0.2621
     33  O         30.8920    1.9860  -13.9100 O.2    42  ASN42      -0.2715
     34  CB        31.4800    3.2580  -16.8540 C.3    42  ASN42       0.1195
     35  CG        32.5810    3.9040  -17.6830 C.2    42  ASN42       0.2630
     36  OD1       33.7510    3.6280  -17.4980 O.2    42  ASN42      -0.2716
     37  ND2       32.1940    4.7760  -18.6080 N.am   42  ASN42      -0.0877
     38  N         29.8900    0.8450  -15.5630 N.am   43  LEU43      -0.1977
     39  CA        28.8160    0.3530  -14.6920 C.3    43  LEU43       0.1596
     40  C         29.3600   -0.6000  -13.6230 C.2    43  LEU43       0.2287
     41  O         28.9350   -0.5410  -12.4710 O.2    43  LEU43      -0.2864
     42  CB        27.6740   -0.3310  -15.4760 C.3    43  LEU43       0.0297
     43  CG        26.8010    0.5880  -16.3610 C.3    43  LEU43       0.0022
     44  CD1       25.9580   -0.2940  -17.3810 C.3    43  LEU43       0.0001
     45  CD2       25.8980    1.4990  -15.5480 C.3    43  LEU43       0.0001
     46  N         32.4230   -0.5460  -12.4500 N.3    45  SER45      -0.1202
     47  CA        33.1780    0.3410  -11.5450 C.3    45  SER45       0.2020
     48  C         32.2400    1.0280  -10.5310 C.2    45  SER45       0.2618
     49  O         32.5240    1.0580   -9.3450 O.2    45  SER45      -0.2717
     50  CB        33.9290    1.3970  -12.3730 C.3    45  SER45       0.2103
     51  OG        34.5220    2.3910  -11.5550 O.3    45  SER45      -0.2182
     52  N         31.1230    1.5870  -11.0070 N.am   46  VAL46      -0.1979
     53  CA        30.1930    2.3350  -10.1510 C.3    46  VAL46       0.1595
     54  C         29.4960    1.4260   -9.1560 C.2    46  VAL46       0.2287
     55  O         29.3790    1.7630   -7.9750 O.2    46  VAL46      -0.2864
     56  CB        29.0780    3.0950  -10.9680 C.3    46  VAL46       0.0276
     57  CG1       27.9630    3.6150  -10.0170 C.3    46  VAL46       0.0022
     58  CG2       29.6710    4.2440  -11.7950 C.3    46  VAL46       0.0022
     59  N         32.2140    0.1990   -6.5070 N.3    49  LYS49      -0.1245
     60  CA        32.6620    1.2800   -5.6780 C.3    49  LYS49       0.1561
     61  C         31.5760    1.6900   -4.6400 C.2    49  LYS49       0.2260
     62  O         31.9040    2.0530   -3.5120 O.2    49  LYS49      -0.2867
     63  CB        33.1090    2.4860   -6.4970 C.3    49  LYS49       0.0271
     64  CG        33.6270    3.5940   -5.6100 C.3    49  LYS49       0.0035
     65  CD        34.1140    4.8230   -6.3820 C.3    49  LYS49       0.0206
     66  CE        34.6340    5.9110   -5.4160 C.3    49  LYS49       0.1093
     67  NZ        35.5360    5.3230   -4.3760 N.3    49  LYS49      -0.1314
     68  N         42.4950    1.3720  -16.9790 N.3   115  PHE115     -0.1241
     69  CA        41.2780    1.3850  -16.1630 C.3   115  PHE115      0.1605
     70  C         41.3280    0.2420  -15.1650 C.2   115  PHE115      0.2264
     71  O         41.0930    0.4510  -13.9760 O.2   115  PHE115     -0.2867
     72  CB        40.0400    1.2490  -17.0880 C.3   115  PHE115      0.0534
     73  CG        38.6740    1.3950  -16.3920 C.ar  115  PHE115     -0.0203
     74  CD1       37.9220    2.5760  -16.5540 C.ar  115  PHE115     -0.0042
     75  CD2       38.0910    0.3260  -15.6760 C.ar  115  PHE115     -0.0042
     76  CE1       36.6250    2.7280  -15.9600 C.ar  115  PHE115     -0.0003
     77  CE2       36.7830    0.4560  -15.0920 C.ar  115  PHE115     -0.0003
     78  CZ        36.0670    1.6630  -15.2160 C.ar  115  PHE115     -0.0000
     79  N         44.0820    0.4670  -12.5990 N.3   118  LYS118     -0.1231
     80  CA        43.6890    1.4700  -11.6150 C.3   118  LYS118      0.1693
     81  C         42.7220    0.8390  -10.5980 C.2   118  LYS118      0.2591
     82  O         42.8810    0.9810   -9.4050 O.2   118  LYS118     -0.2718
     83  CB        43.0330    2.6830  -12.2800 C.3   118  LYS118      0.0285
     84  CG        42.5690    3.7130  -11.2500 C.3   118  LYS118      0.0035
     85  CD        42.0070    4.9240  -11.9070 C.3   118  LYS118      0.0206
     86  CE        41.2680    5.7960  -10.9130 C.3   118  LYS118      0.1093
     87  NZ        40.1270    5.0030  -10.3840 N.3   118  LYS118     -0.1314
     88  N         41.7410    0.1020  -11.0900 N.am  119  MET119     -0.1979
     89  CA        40.8420   -0.6110  -10.2160 C.3   119  MET119      0.1605
     90  C         41.6140   -1.5640   -9.2970 C.2   119  MET119      0.2287
     91  O         41.2690   -1.6860   -8.1190 O.2   119  MET119     -0.2864
     92  CB        39.8120   -1.4200  -11.0010 C.3   119  MET119      0.0413
     93  CG        38.5810   -0.6760  -11.4670 C.3   119  MET119      0.0598
     94  SD        37.3450   -1.7760  -12.2300 S.3   119  MET119     -0.1393
     95  CE        36.5170   -2.3760  -10.7670 C.3   119  MET119      0.0692
     96  N         43.2310    0.2490   -6.6560 N.3   122  ASP122     -0.1239
     97  CA        42.2720    0.8610   -5.7080 C.3   122  ASP122      0.1674
     98  C         41.7880   -0.2010   -4.7080 C.2   122  ASP122      0.2266
     99  O         41.6470    0.0670   -3.5410 O.2   122  ASP122     -0.2867
    100  CB        41.0280    1.4130   -6.4460 C.3   122  ASP122      0.1410
    101  CG        41.2970    2.7020   -7.2060 C.2   122  ASP122      0.3668
    102  OD1       42.2150    3.4570   -6.8700 O.co2 122  ASP122     -0.2456
    103  OD2       40.5310    2.9940   -8.1430 O.co2 122  ASP122     -0.2456
    104  N         40.2720   11.4900  -18.7830 N.3   162  PRO162     -0.2102
    105  CA        39.7410   11.3080  -17.4190 C.3   162  PRO162      0.1504
    106  C         40.3660   10.1280  -16.6910 C.2   162  PRO162      0.2575
    107  O         40.5910   10.1880  -15.4880 O.2   162  PRO162     -0.2718
    108  CB        38.2270   11.0790  -17.6350 C.3   162  PRO162      0.0282
    109  CG        37.9100   11.6690  -19.0010 C.3   162  PRO162      0.0208
    110  CD        39.2040   11.6350  -19.8040 C.3   162  PRO162      0.0893
    111  N         40.6260    9.0470  -17.4060 N.am  163  ILE163     -0.1980
    112  CA        41.2210    7.8500  -16.7900 C.3   163  ILE163      0.1595
    113  C         42.6540    8.1080  -16.2920 C.2   163  ILE163      0.2287
    114  O         43.0100    7.7970  -15.1610 O.2   163  ILE163     -0.2864
    115  CB        41.1320    6.6430  -17.7540 C.3   163  ILE163      0.0276
    116  CG1       39.6550    6.3190  -18.0080 C.3   163  ILE163      0.0022
    117  CG2       41.8920    5.4220  -17.2090 C.3   163  ILE163      0.0022
    118  CD1       39.4170    5.1700  -18.9880 C.3   163  ILE163      0.0001
    119  N         42.3490   10.4420  -13.2860 N.3   166  GLY166     -0.1225
    120  CA        41.7870    9.7680  -12.1270 C.3   166  GLY166      0.1811
    121  C         42.7910    8.8040  -11.5340 C.2   166  GLY166      0.2280
    122  O         42.8340    8.5680  -10.3050 O.2   166  GLY166     -0.2866
    123  N         32.7580   15.0980  -25.3360 N.3   206  GLU206     -0.1245
    124  CA        32.3370   13.8810  -24.6390 C.3   206  GLU206      0.1567
    125  C         33.0160   13.7240  -23.2670 C.2   206  GLU206      0.2260
    126  O         32.4200   13.1610  -22.3480 O.2   206  GLU206     -0.2867
    127  CB        32.6100   12.6350  -25.5120 C.3   206  GLU206      0.0388
    128  CG        32.0940   12.7210  -26.9540 C.3   206  GLU206      0.1160
    129  CD        30.5780   12.8190  -27.0650 C.2   206  GLU206      0.3649
    130  OE1       29.8620   12.2910  -26.1920 O.co2 206  GLU206     -0.2457
    131  OE2       30.0950   13.4160  -28.0410 O.co2 206  GLU206     -0.2457
    132  N         33.8330   17.2470  -19.1830 N.3   209  LYS209     -0.1231
    133  CA        33.2180   17.3990  -17.8610 C.3   209  LYS209      0.1693
    134  C         33.9140   16.5160  -16.8330 C.2   209  LYS209      0.2592
    135  O         34.2510   16.9780  -15.7610 O.2   209  LYS209     -0.2718
    136  CB        31.7240   17.1020  -17.8790 C.3   209  LYS209      0.0285
    137  CG        30.8800   18.2020  -18.5120 C.3   209  LYS209      0.0035
    138  CD        29.4150   17.7800  -18.6530 C.3   209  LYS209      0.0206
    139  CE        28.5160   19.0030  -18.7980 C.3   209  LYS209      0.1093
    140  NZ        27.2580   18.6590  -19.5150 N.3   209  LYS209     -0.1314
    141  N         34.1330   15.2510  -17.1790 N.am  210  ASP210     -0.1974
    142  CA        34.8570   14.3040  -16.3100 C.3   210  ASP210      0.1709
    143  C         36.2780   14.8430  -15.9900 C.2   210  ASP210      0.2293
    144  O         36.6940   14.8730  -14.8310 O.2   210  ASP210     -0.2864
    145  CB        34.9830   12.9500  -17.0060 C.3   210  ASP210      0.1436
    146  CG        33.6280   12.2440  -17.2490 C.2   210  ASP210      0.3671
    147  OD1       32.6020   12.6550  -16.6840 O.co2 210  ASP210     -0.2456
    148  OD2       33.6240   11.2480  -18.0160 O.co2 210  ASP210     -0.2456
    149  N         36.4640   17.8210  -13.7770 N.3   213  LEU213     -0.1231
    150  CA        36.0570   17.5020  -12.4160 C.3   213  LEU213      0.1693
    151  C         37.2580   16.9170  -11.6560 C.2   213  LEU213      0.2591
    152  O         37.5230   17.3150  -10.5420 O.2   213  LEU213     -0.2718
    153  CB        34.8540   16.5470  -12.3570 C.3   213  LEU213      0.0284
    154  CG        34.4650   15.9730  -10.9750 C.3   213  LEU213      0.0019
    155  CD1       34.1790   17.0950   -9.9280 C.3   213  LEU213      0.0001
    156  CD2       33.2630   15.0070  -11.0830 C.3   213  LEU213      0.0001
    157  N         37.9460   15.9520  -12.2510 N.am  214  ILE214     -0.1980
    158  CA        39.0890   15.3450  -11.6000 C.3   214  ILE214      0.1595
    159  C         40.2540   16.3660  -11.3720 C.2   214  ILE214      0.2287
    160  O         40.9130   16.3280  -10.3310 O.2   214  ILE214     -0.2864
    161  CB        39.5200   14.0540  -12.3350 C.3   214  ILE214      0.0276
    162  CG1       38.3300   13.0620  -12.3480 C.3   214  ILE214      0.0022
    163  CG2       40.7050   13.3980  -11.6250 C.3   214  ILE214      0.0022
    164  CD1       38.5300   11.8750  -13.2990 C.3   214  ILE214      0.0001
@<TRIPOS>BOND
     1   131   129   ar
     2   129   128    1
     3   129   130   ar
     4   128   127    1
     5   127   124    1
     6   123   124    1
     7   124   125    1
     8   125   126    2
     9    17    16   ar
    10    10    11    1
    11    14    11    1
    12    14    15    1
    13    16    18   ar
    14    16    15    1
    15    11    12    1
    16    29    27    1
    17    27    26    2
    18    27    28    1
    19   110   109    1
    20   110   104    1
    21    12    13    2
    22    26    25    1
    23   140   139    1
    24   132   133    1
    25    24    25    1
    26    24    23    1
    27   109   108    1
    28   118   116    1
    29   139   138    1
    30   104   105    1
    31   138   137    1
    32    37    35   am
    33   137   136    1
    34    19    20    1
    35   148   146   ar
    36   116   115    1
    37    23    20    1
    38   136   133    1
    39   133   134    1
    40   115   117    1
    41   115   112    1
    42    35    36    2
    43    35    34    1
    44   108   105    1
    45   105   106    1
    46   111   112    1
    47   111   106   am
    48    44    43    1
    49    20    21    1
    50   146   145    1
    51   146   147   ar
    52   141   134   am
    53   141   142    1
    54    72    73    1
    55    72    69    1
    56   145   142    1
    57    68    69    1
    58    30    21   am
    59    30    31    1
    60    34    31    1
    61   134   135    2
    62   112   113    1
    63   106   107    2
    64    74    73   ar
    65    74    76   ar
    66    73    75   ar
    67    21    22    2
    68    43    45    1
    69    43    42    1
    70   142   143    1
    71   113   114    2
    72    69    70    1
    73    31    32    1
    74   143   144    2
    75    76    78   ar
    76    75    77   ar
    77    38    32   am
    78    38    39    1
    79    42    39    1
    80    78    77   ar
    81    70    71    2
    82    32    33    2
    83    39    40    1
    84   149   150    1
    85    40    41    2
    86     8     7   ar
    87   164   162    1
    88   119   120    1
    89    79    80    1
    90    46    47    1
    91   150   153    1
    92   150   151    1
    93    50    51    1
    94    50    47    1
    95     7     9   ar
    96     7     6    1
    97   153   154    1
    98   162   161    1
    99   161   163    1
   100   161   158    1
   101    83    80    1
   102    83    84    1
   103   157   151   am
   104   157   158    1
   105    94    93    1
   106    94    95    1
   107   120   121    1
   108    85    84    1
   109    85    86    1
   110    58    56    1
   111   151   152    2
   112    80    81    1
   113   158   159    1
   114    47    48    1
   115   121   122    2
   116     5     6    1
   117     5     2    1
   118    93    92    1
   119   159   160    2
   120    88    81   am
   121    88    89    1
   122   156   154    1
   123    52    48   am
   124    52    53    1
   125    92    89    1
   126   154   155    1
   127    56    53    1
   128    56    57    1
   129    86    87    1
   130     1     2    1
   131    81    82    2
   132    48    49    2
   133     2     3    1
   134    89    90    1
   135    53    54    1
   136     3     4    2
   137    90    91    2
   138    54    55    2
   139   103   101   ar
   140   101   102   ar
   141   101   100    1
   142    96    97    1
   143    59    60    1
   144    63    60    1
   145    63    64    1
   146   100    97    1
   147    65    64    1
   148    65    66    1
   149    97    98    1
   150    60    61    1
   151    66    67    1
   152    98    99    2
   153    61    62    2
