@<TRIPOS>MOLECULE
tmp/4ihpA00.pdb
 159 148 0 0 0
SMALL
GASTEIGER

@<TRIPOS>ATOM
      1  N         10.7860   15.4210   39.4000 N.3    14  LEU14      -0.1231
      2  CA        10.8090   15.8920   38.0150 C.3    14  LEU14       0.1693
      3  C         10.9990   14.7460   37.0590 C.2    14  LEU14       0.2593
      4  O         10.5290   14.8150   35.9440 O.2    14  LEU14      -0.2718
      5  CB        11.9090   16.9280   37.7900 C.3    14  LEU14       0.0284
      6  CG        11.7190   18.2590   38.5410 C.3    14  LEU14       0.0019
      7  CD1       12.9090   19.1700   38.3530 C.3    14  LEU14       0.0001
      8  CD2       10.4460   18.9540   38.0870 C.3    14  LEU14       0.0001
      9  N         11.6970   13.6980   37.4770 N.am   15  GLY15      -0.1942
     10  CA        11.8860   12.5490   36.6290 C.3    15  GLY15       0.2014
     11  C         13.1440   11.7650   36.9480 C.2    15  GLY15       0.2639
     12  O         13.8310   12.0300   37.9290 O.2    15  GLY15      -0.2714
     13  N         13.4210   10.7880   36.0990 N.am   16  LYS16      -0.1963
     14  CA        14.5850    9.9310   36.2340 C.3    16  LYS16       0.1728
     15  C         15.5900   10.3170   35.1640 C.2    16  LYS16       0.2616
     16  O         15.2410   10.5070   34.0050 O.2    16  LYS16      -0.2715
     17  CB        14.1660    8.4670   36.0850 C.3    16  LYS16       0.0311
     18  CG        15.2860    7.4590   35.8610 C.3    16  LYS16       0.0038
     19  CD        14.8910    6.5000   34.7310 C.3    16  LYS16       0.0206
     20  CE        16.0120    5.5540   34.3370 C.3    16  LYS16       0.1093
     21  NZ        16.4110    4.6890   35.4760 N.3    16  LYS16      -0.1314
     22  N         16.8480   10.4510   35.5650 N.am   17  GLY17      -0.1955
     23  CA        17.9250   10.7280   34.6280 C.3    17  GLY17       0.1869
     24  C         19.0840    9.8180   34.9440 C.2    17  GLY17       0.2309
     25  O         19.0350    9.0360   35.9030 O.2    17  GLY17      -0.2863
     26  N         15.7510   13.0310   39.8500 N.3    22  VAL22      -0.1245
     27  CA        15.8420   14.4810   39.8490 C.3    22  VAL22       0.1561
     28  C         14.6320   15.1000   40.5160 C.2    22  VAL22       0.2260
     29  O         13.5050   14.8780   40.0840 O.2    22  VAL22      -0.2867
     30  CB        15.9380   15.0330   38.4300 C.3    22  VAL22       0.0252
     31  CG1       16.0330   16.5530   38.4720 C.3    22  VAL22       0.0019
     32  CG2       17.1570   14.4510   37.7200 C.3    22  VAL22       0.0019
     33  N         16.9170   22.2930   40.4330 N.3    35  ALA35      -0.1231
     34  CA        16.8080   20.8660   40.1280 C.3    35  ALA35       0.1694
     35  C         17.9460   20.1560   40.8400 C.2    35  ALA35       0.2592
     36  O         19.0860   20.5980   40.7550 O.2    35  ALA35      -0.2718
     37  CB        16.9000   20.6290   38.6340 C.3    35  ALA35       0.0304
     38  N         17.6290   19.0830   41.5630 N.am   36  VAL36      -0.1966
     39  CA        18.5930   18.3530   42.3440 C.3    36  VAL36       0.1727
     40  C         18.6150   16.9200   41.8970 C.2    36  VAL36       0.2616
     41  O         17.5720   16.2410   41.8720 O.2    36  VAL36      -0.2715
     42  CB        18.2470   18.3960   43.8260 C.3    36  VAL36       0.0290
     43  CG1       19.2630   17.6030   44.6260 C.3    36  VAL36       0.0023
     44  CG2       18.2450   19.8400   44.2920 C.3    36  VAL36       0.0023
     45  N         19.7820   16.4750   41.4650 N.am   37  LYS37      -0.1977
     46  CA        19.9430   15.0720   41.1150 C.3    37  LYS37       0.1596
     47  C         20.5330   14.3760   42.3070 C.2    37  LYS37       0.2287
     48  O         21.5700   14.8000   42.8050 O.2    37  LYS37      -0.2864
     49  CB        20.8480   14.8670   39.9150 C.3    37  LYS37       0.0298
     50  CG        20.9050   13.4020   39.5160 C.3    37  LYS37       0.0038
     51  CD        21.6170   13.1980   38.1970 C.3    37  LYS37       0.0206
     52  CE        20.8030   13.6970   37.0540 C.3    37  LYS37       0.1093
     53  NZ        21.2980   13.2840   35.7160 N.3    37  LYS37      -0.1314
     54  N         23.8020   23.2210   31.0370 N.3    69  MET69      -0.1245
     55  CA        23.1320   23.3880   32.2930 C.3    69  MET69       0.1570
     56  C         24.0080   24.0770   33.3050 C.2    69  MET69       0.2261
     57  O         25.1970   23.7950   33.3980 O.2    69  MET69      -0.2867
     58  CB        22.7000   22.0680   32.8810 C.3    69  MET69       0.0387
     59  CG        22.2540   22.1870   34.3290 C.3    69  MET69       0.0595
     60  SD        21.4890   20.6600   34.8430 S.3    69  MET69      -0.1393
     61  CE        21.1070   20.9970   36.5540 C.3    69  MET69       0.0692
     62  N         25.2490   24.5870   36.9240 N.3    71  LEU71      -0.1245
     63  CA        25.3990   23.9390   38.2050 C.3    71  LEU71       0.1561
     64  C         25.6290   24.9710   39.3080 C.2    71  LEU71       0.2260
     65  O         26.4660   25.8540   39.1610 O.2    71  LEU71      -0.2867
     66  CB        26.5720   22.9800   38.1370 C.3    71  LEU71       0.0270
     67  CG        26.6390   21.9800   39.2720 C.3    71  LEU71       0.0019
     68  CD1       25.4720   21.0120   39.1690 C.3    71  LEU71       0.0001
     69  CD2       27.9790   21.2500   39.2110 C.3    71  LEU71       0.0001
     70  N         23.5620   16.8740   43.3230 N.3    83  LEU83      -0.1245
     71  CA        23.9760   17.8940   42.3830 C.3    83  LEU83       0.1561
     72  C         22.8190   18.8590   42.2030 C.2    83  LEU83       0.2260
     73  O         21.7570   18.4800   41.6950 O.2    83  LEU83      -0.2867
     74  CB        24.3100   17.2850   41.0410 C.3    83  LEU83       0.0270
     75  CG        25.6770   16.6090   41.0130 C.3    83  LEU83       0.0019
     76  CD1       25.6750   15.4470   40.0580 C.3    83  LEU83       0.0001
     77  CD2       26.7510   17.6070   40.6080 C.3    83  LEU83       0.0001
     78  N         21.3560   22.2930   40.5640 N.3    85  GLY85      -0.1210
     79  CA        21.5070   23.1620   39.4010 C.3    85  GLY85       0.1956
     80  C         20.2160   23.8340   38.9850 C.2    85  GLY85       0.2612
     81  O         19.1860   23.7030   39.6320 O.2    85  GLY85      -0.2717
     82  N         20.2880   24.5630   37.8860 N.am   86  GLU86      -0.1965
     83  CA        19.1780   25.3200   37.3970 C.3    86  GLU86       0.1733
     84  C         18.0930   24.4010   36.8020 C.2    86  GLU86       0.2616
     85  O         18.3940   23.4630   36.0430 O.2    86  GLU86      -0.2715
     86  CB        19.7050   26.2790   36.3360 C.3    86  GLU86       0.0429
     87  CG        18.6670   27.2070   35.7440 C.3    86  GLU86       0.1163
     88  CD        19.2620   28.2480   34.7940 C.2    86  GLU86       0.3649
     89  OE1       20.3090   28.0100   34.1270 O.co2  86  GLU86      -0.2457
     90  OE2       18.6280   29.2970   34.7100 O.co2  86  GLU86      -0.2457
     91  N         16.8370   24.7040   37.1350 N.am   87  VAL87      -0.1963
     92  CA        15.7150   23.9340   36.6180 C.3    87  VAL87       0.1727
     93  C         15.2540   24.4690   35.2670 C.2    87  VAL87       0.2616
     94  O         15.0790   25.6520   35.0920 O.2    87  VAL87      -0.2715
     95  CB        14.5430   23.8980   37.6230 C.3    87  VAL87       0.0290
     96  CG1       13.8410   25.2510   37.7160 C.3    87  VAL87       0.0023
     97  CG2       13.5700   22.7780   37.2620 C.3    87  VAL87       0.0023
     98  N         15.0500   23.5530   34.3150 N.am   88  TYR88      -0.1974
     99  CA        14.4970   23.8710   32.9980 C.3    88  TYR88       0.1639
    100  C         13.1180   23.2410   32.7950 C.2    88  TYR88       0.2290
    101  O         12.9040   22.0900   33.1390 O.2    88  TYR88      -0.2864
    102  CB        15.4670   23.4510   31.9090 C.3    88  TYR88       0.0560
    103  CG        16.8410   24.0100   32.1410 C.ar   88  TYR88      -0.0198
    104  CD1       17.0360   25.3860   32.2840 C.ar   88  TYR88      -0.0009
    105  CD2       17.9610   23.1900   32.2320 C.ar   88  TYR88      -0.0009
    106  CE1       18.2880   25.9120   32.5200 C.ar   88  TYR88       0.0417
    107  CE2       19.2180   23.7230   32.4420 C.ar   88  TYR88       0.0417
    108  CZ        19.3800   25.0870   32.5880 C.ar   88  TYR88       0.1957
    109  OH        20.6180   25.6430   32.8180 O.3    88  TYR88      -0.2866
    110  N         11.9110   17.7080   27.0260 N.3    92  GLU92      -0.1245
    111  CA        12.9420   17.1880   26.1010 C.3    92  GLU92       0.1567
    112  C         12.7820   17.6730   24.6490 C.2    92  GLU92       0.2260
    113  O         11.6810   17.8650   24.1460 O.2    92  GLU92      -0.2867
    114  CB        12.9430   15.6410   26.1240 C.3    92  GLU92       0.0388
    115  CG        13.1740   15.0400   27.5070 C.3    92  GLU92       0.1160
    116  CD        13.1050   13.5140   27.5520 C.2    92  GLU92       0.3649
    117  OE1       13.0680   12.8380   26.5030 O.co2  92  GLU92      -0.2457
    118  OE2       13.1140   12.9790   28.6730 O.co2  92  GLU92      -0.2457
    119  N         17.6030   12.7070   25.1710 N.3   135  GLU135     -0.1245
    120  CA        17.1030   12.9110   26.5160 C.3   135  GLU135      0.1567
    121  C         17.9190   13.9500   27.2850 C.2   135  GLU135      0.2260
    122  O         17.4310   14.4760   28.2650 O.2   135  GLU135     -0.2867
    123  CB        17.1430   11.6010   27.3170 C.3   135  GLU135      0.0388
    124  CG        16.1040   10.5750   26.9410 C.3   135  GLU135      0.1160
    125  CD        16.3880    9.1920   27.5520 C.2   135  GLU135      0.3649
    126  OE1       16.8220    8.2680   26.8010 O.co2 135  GLU135     -0.2457
    127  OE2       16.1980    9.0350   28.7920 O.co2 135  GLU135     -0.2457
    128  N         17.4730   19.5380   26.9170 N.3   138  LEU138     -0.1245
    129  CA        16.2590   20.1190   27.4420 C.3   138  LEU138      0.1561
    130  C         16.0550   21.5140   26.8500 C.2   138  LEU138      0.2260
    131  O         17.0130   22.2530   26.5560 O.2   138  LEU138     -0.2867
    132  CB        16.3270   20.2050   28.9670 C.3   138  LEU138      0.0270
    133  CG        16.5780   18.9300   29.7720 C.3   138  LEU138      0.0019
    134  CD1       16.5620   19.2770   31.2440 C.3   138  LEU138      0.0001
    135  CD2       15.5490   17.8410   29.5170 C.3   138  LEU138      0.0001
    136  N         22.2720   18.6990   29.5900 N.3   151  ILE151     -0.1231
    137  CA        22.4830   18.2400   30.9820 C.3   151  ILE151      0.1692
    138  C         23.4970   17.0730   31.0130 C.2   151  ILE151      0.2592
    139  O         23.7010   16.4140   29.9830 O.2   151  ILE151     -0.2718
    140  CB        21.1510   17.7720   31.6000 C.3   151  ILE151      0.0266
    141  CG1       20.5460   16.5730   30.8440 C.3   151  ILE151      0.0019
    142  CG2       20.1240   18.8920   31.5700 C.3   151  ILE151      0.0020
    143  CD1       19.4170   15.8860   31.6130 C.3   151  ILE151      0.0001
    144  N         24.1300   16.8740   32.1680 N.am  152  ASP152     -0.1974
    145  CA        25.0200   15.7290   32.4730 C.3   152  ASP152      0.1709
    146  C         26.4440   15.8050   31.9230 C.2   152  ASP152      0.2293
    147  O         27.1440   14.8100   31.9580 O.2   152  ASP152     -0.2864
    148  CB        24.3990   14.3510   32.1070 C.3   152  ASP152      0.1436
    149  CG        23.1670   13.9900   32.9610 C.2   152  ASP152      0.3671
    150  OD1       22.9670   14.6020   34.0420 O.co2 152  ASP152     -0.2456
    151  OD2       22.3670   13.0930   32.5430 O.co2 152  ASP152     -0.2456
    152  N         29.6580   14.0250   34.0760 N.3   155  LEU155     -0.1245
    153  CA        29.2600   12.9850   35.0270 C.3   155  LEU155      0.1561
    154  C         29.8190   11.6160   34.7070 C.2   155  LEU155      0.2260
    155  O         30.2580   10.9060   35.6080 O.2   155  LEU155     -0.2867
    156  CB        27.7490   12.8560   35.1250 C.3   155  LEU155      0.0270
    157  CG        27.0040   14.0850   35.6060 C.3   155  LEU155      0.0019
    158  CD1       25.5700   13.6920   35.9490 C.3   155  LEU155      0.0001
    159  CD2       27.7120   14.7370   36.7830 C.3   155  LEU155      0.0001
@<TRIPOS>BOND
     1   113   112    2
     2   112   111    1
     3   119   120    1
     4   111   114    1
     5   111   110    1
     6   114   115    1
     7   117   116   ar
     8   120   121    1
     9   120   123    1
    10   131   130    2
    11   126   125   ar
    12   130   129    1
    13   128   129    1
    14   124   123    1
    15   124   125    1
    16   121   122    2
    17   129   132    1
    18   115   116    1
    19   116   118   ar
    20   125   127   ar
    21   132   133    1
    22   135   133    1
    23   136   137    1
    24   133   134    1
    25   139   138    2
    26   141   140    1
    27   141   143    1
    28   137   138    1
    29   137   140    1
    30   138   144   am
    31    54    55    1
    32   142   140    1
    33   102   103    1
    34   102    99    1
    35   146   147    2
    36   146   145    1
    37   148   145    1
    38   148   149    1
    39   103   105   ar
    40   103   104   ar
    41   144   145    1
    42   105   107   ar
    43   104   106   ar
    44    55    58    1
    45    55    56    1
    46   107   108   ar
    47   106   108   ar
    48   151   149   ar
    49   108   109    1
    50   100    99    1
    51   100   101    2
    52    58    59    1
    53   149   150   ar
    54    99    98    1
    55    56    57    2
    56    16    15    2
    57   152   153    1
    58    89    88   ar
    59    98    93   am
    60    59    60    1
    61    20    19    1
    62    20    21    1
    63    23    24    1
    64    23    22    1
    65   154   153    1
    66   154   155    2
    67    90    88   ar
    68    19    18    1
    69    88    87    1
    70    60    61    1
    71    24    25    2
    72   153   156    1
    73    94    93    2
    74   156   157    1
    75    15    22   am
    76    15    14    1
    77    93    92    1
    78   157   158    1
    79   157   159    1
    80    53    52    1
    81    87    86    1
    82    18    17    1
    83     4     3    2
    84    85    84    2
    85    17    14    1
    86    13    14    1
    87    13    11   am
    88    86    83    1
    89    92    91    1
    90    92    95    1
    91    10    11    1
    92    10     9    1
    93    84    91   am
    94    84    83    1
    95    62    63    1
    96    11    12    2
    97    52    51    1
    98     3     9   am
    99     3     2    1
   100    97    95    1
   101    83    82    1
   102    95    96    1
   103    32    30    1
   104     5     2    1
   105     5     6    1
   106    82    80   am
   107     2     1    1
   108     8     6    1
   109    66    63    1
   110    66    67    1
   111    51    50    1
   112    63    64    1
   113     7     6    1
   114    30    31    1
   115    30    27    1
   116    37    34    1
   117    80    79    1
   118    80    81    2
   119    65    64    2
   120    68    67    1
   121    69    67    1
   122    79    78    1
   123    50    49    1
   124    27    26    1
   125    27    28    1
   126    49    46    1
   127    76    75    1
   128    29    28    2
   129    34    33    1
   130    34    35    1
   131    77    75    1
   132    36    35    2
   133    35    38   am
   134    75    74    1
   135    74    71    1
   136    46    45    1
   137    46    47    1
   138    45    40   am
   139    38    39    1
   140    73    72    2
   141    41    40    2
   142    40    39    1
   143    72    71    1
   144    47    48    2
   145    39    42    1
   146    71    70    1
   147    42    44    1
   148    42    43    1
