@<TRIPOS>MOLECULE
tmp/4ihqB00.pdb
 150 140 0 0 0
SMALL
GASTEIGER

@<TRIPOS>ATOM
      1  N         35.9830  189.2340  122.8260 N.3   139  GLU139     -0.1245
      2  CA        34.7180  189.8830  122.5020 C.3   139  GLU139      0.1567
      3  C         34.2540  189.6530  121.0540 C.2   139  GLU139      0.2260
      4  O         33.0630  189.4590  120.8360 O.2   139  GLU139     -0.2867
      5  CB        34.7280  191.3770  122.8850 C.3   139  GLU139      0.0388
      6  CG        35.3310  192.3320  121.8590 C.3   139  GLU139      0.1160
      7  CD        35.5270  193.7420  122.4130 C.2   139  GLU139      0.3649
      8  OE1       35.6370  193.8930  123.6530 O.co2 139  GLU139     -0.2457
      9  OE2       35.5780  194.6970  121.6060 O.co2 139  GLU139     -0.2457
     10  N         39.7720  192.1260  124.8510 N.3   154  LYS154     -0.1245
     11  CA        39.4680  193.3380  125.6200 C.3   154  LYS154      0.1561
     12  C         40.7330  194.0400  126.1280 C.2   154  LYS154      0.2260
     13  O         40.7660  195.2660  126.2410 O.2   154  LYS154     -0.2867
     14  CB        38.4780  193.0570  126.7600 C.3   154  LYS154      0.0271
     15  CG        37.0360  192.8590  126.2960 C.3   154  LYS154      0.0035
     16  CD        36.0660  192.7950  127.4750 C.3   154  LYS154      0.0206
     17  CE        35.7090  194.1800  128.0040 C.3   154  LYS154      0.1093
     18  NZ        34.6020  194.8200  127.2360 N.3   154  LYS154     -0.1314
     19  N         30.4220  197.1060  132.8130 N.3   228  THR228     -0.1218
     20  CA        31.2700  198.0910  133.4710 C.3   228  THR228      0.1862
     21  C         30.3770  198.9600  134.3600 C.2   228  THR228      0.2287
     22  O         29.2840  199.3570  133.9580 O.2   228  THR228     -0.2866
     23  CB        31.9930  198.9700  132.4260 C.3   228  THR228      0.1770
     24  OG1       32.7630  198.1290  131.5450 O.3   228  THR228     -0.2211
     25  CG2       32.9060  199.9990  133.1160 C.3   228  THR228      0.0375
     26  N         33.6250  203.8230  135.5670 N.3   233  LEU233     -0.1245
     27  CA        33.6180  204.9340  134.6380 C.3   233  LEU233      0.1561
     28  C         34.1620  206.1930  135.3070 C.2   233  LEU233      0.2260
     29  O         34.8850  206.9600  134.6770 O.2   233  LEU233     -0.2867
     30  CB        32.2080  205.1890  134.0650 C.3   233  LEU233      0.0270
     31  CG        31.6470  204.0490  133.1960 C.3   233  LEU233      0.0019
     32  CD1       30.3040  204.4360  132.5050 C.3   233  LEU233      0.0001
     33  CD2       32.6810  203.6040  132.1640 C.3   233  LEU233      0.0001
     34  N         37.8710  205.7670  135.5330 N.3   236  PHE236     -0.1241
     35  CA        38.4370  205.9540  134.1970 C.3   236  PHE236      0.1605
     36  C         38.5300  207.4350  133.8330 C.2   236  PHE236      0.2264
     37  O         39.2750  207.7940  132.9280 O.2   236  PHE236     -0.2867
     38  CB        37.5630  205.2510  133.1180 C.3   236  PHE236      0.0534
     39  CG        37.5190  203.7440  133.2370 C.ar  236  PHE236     -0.0203
     40  CD1       38.4360  203.0600  134.0250 C.ar  236  PHE236     -0.0042
     41  CD2       36.5610  203.0110  132.5530 C.ar  236  PHE236     -0.0042
     42  CE1       38.3890  201.6720  134.1310 C.ar  236  PHE236     -0.0003
     43  CE2       36.5110  201.6230  132.6560 C.ar  236  PHE236     -0.0003
     44  CZ        37.4300  200.9580  133.4510 C.ar  236  PHE236     -0.0000
     45  N         35.8280  209.0580  132.8090 N.3   238  THR238     -0.1218
     46  CA        34.8290  209.2700  131.7420 C.3   238  THR238      0.1862
     47  C         33.6940  210.1840  132.2190 C.2   238  THR238      0.2287
     48  O         33.2060  211.0450  131.4690 O.2   238  THR238     -0.2866
     49  CB        34.3090  207.9190  131.2180 C.3   238  THR238      0.1770
     50  OG1       35.4170  207.1710  130.6890 O.3   238  THR238     -0.2211
     51  CG2       33.2190  208.0970  130.1030 C.3   238  THR238      0.0375
     52  N         29.5890  209.5170  118.8040 N.3   262  GLU262     -0.1245
     53  CA        29.7910  208.8600  117.5170 C.3   262  GLU262      0.1567
     54  C         30.4890  207.4900  117.6610 C.2   262  GLU262      0.2260
     55  O         30.2310  206.7770  118.6300 O.2   262  GLU262     -0.2867
     56  CB        30.4740  209.8280  116.5420 C.3   262  GLU262      0.0388
     57  CG        29.5850  211.0360  116.2640 C.3   262  GLU262      0.1160
     58  CD        30.2230  212.0240  115.3170 C.2   262  GLU262      0.3649
     59  OE1       29.5950  212.3310  114.2830 O.co2 262  GLU262     -0.2457
     60  OE2       31.3450  212.5030  115.6110 O.co2 262  GLU262     -0.2457
     61  N         32.1510  204.1670  118.4550 N.3   264  ALA264     -0.1231
     62  CA        32.8760  203.5610  119.5900 C.3   264  ALA264      0.1694
     63  C         33.0890  204.5340  120.7410 C.2   264  ALA264      0.2593
     64  O         34.1020  204.4690  121.4440 O.2   264  ALA264     -0.2718
     65  CB        34.2350  202.9810  119.1280 C.3   264  ALA264      0.0304
     66  N         32.1480  205.4500  120.9390 N.am  265  SER265     -0.1938
     67  CA        32.3330  206.4760  121.9750 C.3   265  SER265      0.2055
     68  C         32.0210  205.9560  123.3780 C.2   265  SER265      0.2644
     69  O         32.3130  206.6270  124.3640 O.2   265  SER265     -0.2714
     70  CB        31.4570  207.6790  121.6650 C.3   265  SER265      0.2130
     71  OG        30.1210  207.2370  121.4890 O.3   265  SER265     -0.2179
     72  N         31.4180  204.7700  123.4690 N.am  266  GLY266     -0.1939
     73  CA        31.1140  204.1680  124.7670 C.3   266  GLY266      0.2014
     74  C         29.6980  204.4110  125.2710 C.2   266  GLY266      0.2639
     75  O         29.4090  204.3000  126.4710 O.2   266  GLY266     -0.2714
     76  N         28.7850  204.7000  124.3510 N.am  267  LYS267     -0.1963
     77  CA        27.4150  205.0430  124.7260 C.3   267  LYS267      0.1728
     78  C         26.7190  203.9050  125.4680 C.2   267  LYS267      0.2617
     79  O         26.1140  204.1060  126.5250 O.2   267  LYS267     -0.2715
     80  CB        26.5920  205.3680  123.4660 C.3   267  LYS267      0.0311
     81  CG        27.1280  206.4640  122.5830 C.3   267  LYS267      0.0038
     82  CD        26.1690  206.6810  121.3760 C.3   267  LYS267      0.0206
     83  CE        26.3100  205.5840  120.3230 C.3   267  LYS267      0.1093
     84  NZ        27.6990  205.5520  119.6860 N.3   267  LYS267     -0.1314
     85  N         26.7890  202.7070  124.9000 N.am  268  THR268     -0.1937
     86  CA        26.0750  201.5650  125.4620 C.3   268  THR268      0.2028
     87  C         26.6390  201.2120  126.8470 C.2   268  THR268      0.2643
     88  O         25.9010  200.8760  127.8020 O.2   268  THR268     -0.2714
     89  CB        26.2020  200.3760  124.4920 C.3   268  THR268      0.1808
     90  OG1       25.4650  200.6770  123.2860 O.3   268  THR268     -0.2208
     91  CG2       25.6870  199.0740  125.1330 C.3   268  THR268      0.0379
     92  N         27.9550  201.2980  126.9620 N.am  269  THR269     -0.1936
     93  CA        28.6110  201.0810  128.2690 C.3   269  THR269      0.2028
     94  C         28.1140  202.0770  129.3270 C.2   269  THR269      0.2642
     95  O         27.7810  201.6970  130.4690 O.2   269  THR269     -0.2714
     96  CB        30.1300  201.1370  128.0870 C.3   269  THR269      0.1808
     97  OG1       30.5120  200.0760  127.1960 O.3   269  THR269     -0.2208
     98  CG2       30.9020  200.9340  129.4530 C.3   269  THR269      0.0379
     99  N         28.0370  203.3500  128.9530 N.am  270  THR270     -0.1950
    100  CA        27.5690  204.3650  129.8840 C.3   270  THR270      0.1897
    101  C         26.1070  204.1170  130.2150 C.2   270  THR270      0.2313
    102  O         25.7140  204.1520  131.3800 O.2   270  THR270     -0.2863
    103  CB        27.7440  205.7820  129.2760 C.3   270  THR270      0.1794
    104  OG1       29.1360  206.1030  129.2910 O.3   270  THR270     -0.2208
    105  CG2       26.9580  206.8280  130.0790 C.3   270  THR270      0.0378
    106  N         23.1740  193.4060  124.3090 N.3   292  GLU292     -0.1245
    107  CA        24.3490  193.9200  125.0190 C.3   292  GLU292      0.1567
    108  C         24.0900  194.2610  126.4810 C.2   292  GLU292      0.2260
    109  O         24.9860  194.1310  127.3160 O.2   292  GLU292     -0.2867
    110  CB        24.8440  195.1960  124.3340 C.3   292  GLU292      0.0388
    111  CG        25.3060  194.9900  122.9110 C.3   292  GLU292      0.1160
    112  CD        25.5910  196.3040  122.2310 C.2   292  GLU292      0.3649
    113  OE1       24.6390  197.0920  121.9990 O.co2 292  GLU292     -0.2457
    114  OE2       26.7700  196.5690  121.9500 O.co2 292  GLU292     -0.2457
    115  N         29.2950  211.8320  124.5530 N.3   391  GLN391     -0.1245
    116  CA        30.6590  211.4340  124.8410 C.3   391  GLN391      0.1566
    117  C         31.4280  211.0550  123.5900 C.2   391  GLN391      0.2260
    118  O         30.8510  210.8480  122.5120 O.2   391  GLN391     -0.2867
    119  CB        30.7170  210.3380  125.9050 C.3   391  GLN391      0.0367
    120  CG        30.0410  209.0540  125.5710 C.3   391  GLN391      0.0905
    121  CD        30.1670  208.0840  126.7120 C.2   391  GLN391      0.2608
    122  OE1       29.4070  208.1550  127.6820 O.2   391  GLN391     -0.2717
    123  NE2       31.1450  207.1820  126.6230 N.am  391  GLN391     -0.0878
    124  N         43.8310  205.8400  123.8050 N.3   401  LEU401     -0.1231
    125  CA        42.4450  206.1810  123.5500 C.3   401  LEU401      0.1693
    126  C         41.7020  206.1900  124.8800 C.2   401  LEU401      0.2592
    127  O         41.7910  205.2390  125.6510 O.2   401  LEU401     -0.2718
    128  CB        41.8120  205.1560  122.5950 C.3   401  LEU401      0.0284
    129  CG        40.5790  205.5840  121.7980 C.3   401  LEU401      0.0019
    130  CD1       40.9430  206.6750  120.7910 C.3   401  LEU401      0.0001
    131  CD2       39.9180  204.3830  121.0960 C.3   401  LEU401      0.0001
    132  N         40.9940  207.2790  125.1650 N.am  402  ILE402     -0.1966
    133  CA        40.1710  207.3520  126.3670 C.3   402  ILE402      0.1727
    134  C         38.7870  207.7890  125.9410 C.2   402  ILE402      0.2616
    135  O         38.6080  208.2690  124.8300 O.2   402  ILE402     -0.2715
    136  CB        40.7260  208.3520  127.3960 C.3   402  ILE402      0.0290
    137  CG1       40.8190  209.7540  126.7890 C.3   402  ILE402      0.0022
    138  CG2       42.1080  207.9040  127.9140 C.3   402  ILE402      0.0023
    139  CD1       41.3130  210.8150  127.7710 C.3   402  ILE402      0.0001
    140  N         37.8120  207.6280  126.8210 N.am  403  ARG403     -0.1977
    141  CA        36.4650  208.0850  126.5310 C.3   403  ARG403      0.1597
    142  C         36.0410  209.1300  127.5610 C.2   403  ARG403      0.2287
    143  O         36.3170  208.9870  128.7540 O.2   403  ARG403     -0.2864
    144  CB        35.4940  206.8980  126.4720 C.3   403  ARG403      0.0334
    145  CG        35.3990  206.2870  125.0840 C.3   403  ARG403      0.0492
    146  CD        35.7740  204.8380  125.0790 C.3   403  ARG403      0.2205
    147  NE        35.7730  204.2630  123.7320 N.pl3 403  ARG403     -0.0865
    148  CZ        36.7600  203.5100  123.2630 C.cat 403  ARG403      0.5346
    149  NH1       37.8200  203.2640  124.0270 N.pl3 403  ARG403      0.1354
    150  NH2       36.7020  203.0220  122.0390 N.pl3 403  ARG403      0.1354
@<TRIPOS>BOND
     1    59    58   ar
     2    58    60   ar
     3    58    57    1
     4    57    56    1
     5    56    53    1
     6    53    54    1
     7    53    52    1
     8    54    55    2
     9    61    62    1
    10    65    62    1
    11    62    63    1
    12    84    83    1
    13    83    82    1
    14    63    66   am
    15    63    64    2
    16   130   129    1
    17     4     3    2
    18    66    67    1
    19     3     2    1
    20   131   129    1
    21    82    81    1
    22    71    70    1
    23     9     7   ar
    24    70    67    1
    25   129   128    1
    26     6     7    1
    27     6     5    1
    28   114   112   ar
    29    67    68    1
    30   113   112   ar
    31   150   148    1
    32   112   111    1
    33     7     8   ar
    34     2     1    1
    35     2     5    1
    36   118   117    2
    37    81    80    1
    38   128   125    1
    39   111   110    1
    40   148   147    2
    41   148   149    1
    42    90    89    1
    43    68    72   am
    44    68    69    2
    45    80    77    1
    46    72    73    1
    47   125   124    1
    48   125   126    1
    49   117   116    1
    50   147   146    1
    51   106   107    1
    52   110   107    1
    53    76    77    1
    54    76    74   am
    55    89    91    1
    56    89    86    1
    57   115   116    1
    58    77    78    1
    59    73    74    1
    60   135   134    2
    61   116   119    1
    62    10    11    1
    63   126   132   am
    64   126   127    2
    65    85    86    1
    66    85    78   am
    67   107   108    1
    68   146   145    1
    69   145   144    1
    70   132   133    1
    71    74    75    2
    72    86    87    1
    73    78    79    2
    74   120   119    1
    75   120   121    1
    76    11    12    1
    77    11    14    1
    78   134   133    1
    79   134   140   am
    80    12    13    2
    81    15    14    1
    82    15    16    1
    83   133   136    1
    84   144   141    1
    85   108   109    2
    86   141   140    1
    87   141   142    1
    88   123   121   am
    89   121   122    2
    90   137   136    1
    91   137   139    1
    92    87    92   am
    93    87    88    2
    94    92    93    1
    95    97    96    1
    96    18    17    1
    97   136   138    1
    98    16    17    1
    99   142   143    2
   100    96    93    1
   101    96    98    1
   102    93    94    1
   103    99    94   am
   104    99   100    1
   105   103   104    1
   106   103   100    1
   107   103   105    1
   108    94    95    2
   109   100   101    1
   110    51    49    1
   111   101   102    2
   112    50    49    1
   113    49    46    1
   114    48    47    2
   115    24    23    1
   116    46    47    1
   117    46    45    1
   118    33    31    1
   119    23    25    1
   120    23    20    1
   121    32    31    1
   122    41    43   ar
   123    41    39   ar
   124    43    44   ar
   125    19    20    1
   126    37    36    2
   127    38    39    1
   128    38    35    1
   129    31    30    1
   130    39    40   ar
   131    44    42   ar
   132    20    21    1
   133    36    35    1
   134    22    21    2
   135    40    42   ar
   136    30    27    1
   137    35    34    1
   138    27    28    1
   139    27    26    1
   140    29    28    2
