@<TRIPOS>MOLECULE
tmp/4ii2A01.pdb
 112 106 0 0 0
SMALL
GASTEIGER

@<TRIPOS>ATOM
      1  N        -30.1940   -6.3970   51.0860 N.3   268  PRO268     -0.2102
      2  CA       -29.7310   -7.0690   49.8700 C.3   268  PRO268      0.1504
      3  C        -30.8650   -7.1540   48.8430 C.2   268  PRO268      0.2575
      4  O        -30.6250   -7.2920   47.6430 O.2   268  PRO268     -0.2718
      5  CB       -29.3080   -8.4440   50.3790 C.3   268  PRO268      0.0282
      6  CG       -30.2640   -8.6830   51.5210 C.3   268  PRO268      0.0208
      7  CD       -30.2710   -7.3410   52.2170 C.3   268  PRO268      0.0893
      8  N        -32.1040   -7.0570   49.3160 N.am  269  ASP269     -0.1974
      9  CA       -33.2520   -7.1450   48.4170 C.3   269  ASP269      0.1708
     10  C        -34.3730   -6.1830   48.8240 C.2   269  ASP269      0.2293
     11  O        -35.0280   -6.3890   49.8450 O.2   269  ASP269     -0.2864
     12  CB       -33.7770   -8.5850   48.4120 C.3   269  ASP269      0.1436
     13  CG       -34.8510   -8.8230   47.3550 C.2   269  ASP269      0.3671
     14  OD1      -35.2470   -7.8670   46.6500 O.co2 269  ASP269     -0.2456
     15  OD2      -35.3070   -9.9780   47.2330 O.co2 269  ASP269     -0.2456
     16  N        -37.8290   -7.4010   49.7680 N.3   272  LYS272     -0.1245
     17  CA       -38.0000   -8.1140   51.0370 C.3   272  LYS272      0.1561
     18  C        -37.6490   -7.2110   52.2200 C.2   272  LYS272      0.2260
     19  O        -37.1250   -7.6670   53.2470 O.2   272  LYS272     -0.2867
     20  CB       -37.1040   -9.3550   51.0570 C.3   272  LYS272      0.0271
     21  CG       -37.3790  -10.3290   49.9210 C.3   272  LYS272      0.0035
     22  CD       -36.3930  -11.4820   49.9430 C.3   272  LYS272      0.0206
     23  CE       -36.6670  -12.4640   48.8220 C.3   272  LYS272      0.1093
     24  NZ       -35.6980  -13.5850   48.8570 N.3   272  LYS272     -0.1314
     25  N        -29.6310  -11.8520   54.9960 N.3   374  PHE374     -0.1227
     26  CA       -29.9590  -12.3490   53.6650 C.3   374  PHE374      0.1736
     27  C        -30.6410  -13.7160   53.6530 C.2   374  PHE374      0.2595
     28  O        -30.4960  -14.5040   54.5830 O.2   374  PHE374     -0.2718
     29  CB       -28.6360  -12.4160   52.8800 C.3   374  PHE374      0.0547
     30  CG       -28.7210  -13.1220   51.5530 C.ar  374  PHE374     -0.0202
     31  CD1      -29.0390  -12.4190   50.3930 C.ar  374  PHE374     -0.0042
     32  CD2      -28.4450  -14.4850   51.4600 C.ar  374  PHE374     -0.0042
     33  CE1      -29.0780  -13.0650   49.1550 C.ar  374  PHE374     -0.0003
     34  CE2      -28.4810  -15.1470   50.2180 C.ar  374  PHE374     -0.0003
     35  CZ       -28.7980  -14.4360   49.0680 C.ar  374  PHE374     -0.0000
     36  N        -31.4000  -13.9870   52.5980 N.am  375  ASP375     -0.1960
     37  CA       -32.0260  -15.2930   52.4480 C.3   375  ASP375      0.1840
     38  C        -32.1130  -15.5520   50.9610 C.2   375  ASP375      0.2622
     39  O        -32.0300  -14.6310   50.1570 O.2   375  ASP375     -0.2715
     40  CB       -33.4300  -15.3630   53.0940 C.3   375  ASP375      0.1450
     41  CG       -34.5410  -14.7800   52.2060 C.2   375  ASP375      0.3671
     42  OD1      -34.7880  -15.3050   51.0970 O.co2 375  ASP375     -0.2456
     43  OD2      -35.1800  -13.7940   52.6240 O.co2 375  ASP375     -0.2456
     44  N        -32.2250  -16.8210   50.6080 N.am  376  SER376     -0.1950
     45  CA       -32.3840  -17.2430   49.2250 C.3   376  SER376      0.1924
     46  C        -33.4450  -18.3180   49.4000 C.2   376  SER376      0.2314
     47  O        -33.3050  -19.4400   48.9210 O.2   376  SER376     -0.2863
     48  CB       -31.0890  -17.8540   48.6770 C.3   376  SER376      0.2116
     49  OG       -31.1780  -18.0400   47.2710 O.3   376  SER376     -0.2180
     50  N        -36.2530  -18.7750   48.0990 N.3   378  GLU378     -0.1245
     51  CA       -36.8710  -19.3080   46.8910 C.3   378  GLU378      0.1567
     52  C        -36.1040  -20.5370   46.3990 C.2   378  GLU378      0.2260
     53  O        -36.5760  -21.2610   45.5270 O.2   378  GLU378     -0.2867
     54  CB       -36.8940  -18.2620   45.7780 C.3   378  GLU378      0.0388
     55  CG       -37.7470  -17.0280   46.0450 C.3   378  GLU378      0.1160
     56  CD       -37.0210  -15.9670   46.8710 C.2   378  GLU378      0.3649
     57  OE1      -35.7660  -15.9690   46.9050 O.co2 378  GLU378     -0.2457
     58  OE2      -37.7120  -15.1190   47.4740 O.co2 378  GLU378     -0.2457
     59  N        -24.2080  -17.3310   44.2310 N.3   830  LEU830     -0.1245
     60  CA       -25.5040  -16.9400   43.6920 C.3   830  LEU830      0.1561
     61  C        -25.9270  -17.8570   42.5540 C.2   830  LEU830      0.2260
     62  O        -27.1000  -18.1950   42.4360 O.2   830  LEU830     -0.2867
     63  CB       -25.4810  -15.4770   43.2160 C.3   830  LEU830      0.0270
     64  CG       -25.3960  -14.4570   44.3520 C.3   830  LEU830      0.0019
     65  CD1      -25.3420  -13.0480   43.7880 C.3   830  LEU830      0.0001
     66  CD2      -26.5900  -14.6190   45.2720 C.3   830  LEU830      0.0001
     67  N        -27.1550  -21.0720   43.9240 N.3   833  LEU833     -0.1231
     68  CA       -28.4320  -20.9280   44.6070 C.3   833  LEU833      0.1693
     69  C        -29.5350  -20.9900   43.5430 C.2   833  LEU833      0.2591
     70  O        -30.6650  -21.3400   43.8540 O.2   833  LEU833     -0.2718
     71  CB       -28.4900  -19.6180   45.4040 C.3   833  LEU833      0.0284
     72  CG       -27.6830  -19.6490   46.7060 C.3   833  LEU833      0.0019
     73  CD1      -27.7100  -18.2880   47.3610 C.3   833  LEU833      0.0001
     74  CD2      -28.2550  -20.7110   47.6520 C.3   833  LEU833      0.0001
     75  N        -29.1990  -20.6670   42.2910 N.am  834  GLU834     -0.1979
     76  CA       -30.1540  -20.7370   41.1770 C.3   834  GLU834      0.1602
     77  C        -30.1670  -22.1540   40.5840 C.2   834  GLU834      0.2287
     78  O        -31.2090  -22.6660   40.1490 O.2   834  GLU834     -0.2864
     79  CB       -29.7870  -19.7430   40.0620 C.3   834  GLU834      0.0415
     80  CG       -29.9850  -18.2890   40.4470 C.3   834  GLU834      0.1163
     81  CD       -31.4090  -17.9990   40.9300 C.2   834  GLU834      0.3649
     82  OE1      -31.5780  -17.6210   42.1110 O.co2 834  GLU834     -0.2457
     83  OE2      -32.3550  -18.1590   40.1260 O.co2 834  GLU834     -0.2457
     84  N        -32.6830  -24.4430   41.8170 N.3   837  LYS837     -0.1245
     85  CA       -34.0560  -24.1370   41.4080 C.3   837  LYS837      0.1561
     86  C        -34.3460  -24.8910   40.1200 C.2   837  LYS837      0.2260
     87  O        -35.4370  -25.4180   39.9290 O.2   837  LYS837     -0.2867
     88  CB       -34.2470  -22.6330   41.1900 C.3   837  LYS837      0.0271
     89  CG       -34.1130  -21.8180   42.4620 C.3   837  LYS837      0.0035
     90  CD       -34.2260  -20.3190   42.1950 C.3   837  LYS837      0.0206
     91  CE       -33.9140  -19.5340   43.4500 C.3   837  LYS837      0.1093
     92  NZ       -33.9650  -18.0590   43.2270 N.3   837  LYS837     -0.1314
     93  N        -34.0530  -15.8760   40.0700 N.3   849  LYS849     -0.1245
     94  CA       -33.4720  -14.5740   40.3640 C.3   849  LYS849      0.1561
     95  C        -32.1880  -14.2310   39.6360 C.2   849  LYS849      0.2260
     96  O        -31.2210  -14.9900   39.6650 O.2   849  LYS849     -0.2867
     97  CB       -33.2000  -14.4530   41.8680 C.3   849  LYS849      0.0271
     98  CG       -34.4330  -14.3440   42.7150 C.3   849  LYS849      0.0035
     99  CD       -35.0980  -13.0080   42.4830 C.3   849  LYS849      0.0206
    100  CE       -36.4070  -12.9310   43.2260 C.3   849  LYS849      0.1093
    101  NZ       -37.3050  -14.0130   42.7830 N.3   849  LYS849     -0.1314
    102  N        -31.6640   -7.9210   43.2610 N.3   862  PHE862     -0.1241
    103  CA       -32.1610   -9.0790   42.5130 C.3   862  PHE862      0.1605
    104  C        -33.4750   -8.7780   41.7990 C.2   862  PHE862      0.2264
    105  O        -34.2450   -7.9330   42.2350 O.2   862  PHE862     -0.2867
    106  CB       -32.3750  -10.2530   43.4790 C.3   862  PHE862      0.0534
    107  CG       -31.1460  -10.6300   44.2440 C.ar  862  PHE862     -0.0203
    108  CD1      -30.2350  -11.5400   43.7220 C.ar  862  PHE862     -0.0042
    109  CD2      -30.8740  -10.0410   45.4800 C.ar  862  PHE862     -0.0042
    110  CE1      -29.0720  -11.8630   44.4150 C.ar  862  PHE862     -0.0003
    111  CE2      -29.7110  -10.3530   46.1850 C.ar  862  PHE862     -0.0003
    112  CZ       -28.8090  -11.2660   45.6520 C.ar  862  PHE862     -0.0000
@<TRIPOS>BOND
     1    95    96    2
     2    95    94    1
     3    87    86    2
     4    79    80    1
     5    79    76    1
     6    93    94    1
     7    86    85    1
     8    83    81   ar
     9    78    77    2
    10    94    97    1
    11    80    81    1
    12    77    76    1
    13    81    82   ar
    14    76    75    1
    15    88    85    1
    16    88    89    1
    17    85    84    1
    18   104   105    2
    19   104   103    1
    20    97    98    1
    21    90    89    1
    22    90    91    1
    23    75    69   am
    24    62    61    2
    25    99    98    1
    26    99   100    1
    27   103   102    1
    28   103   106    1
    29    61    60    1
    30   101   100    1
    31    63    60    1
    32    63    64    1
    33    92    91    1
    34   106   107    1
    35    69    70    2
    36    69    68    1
    37    60    59    1
    38   108   107   ar
    39   108   110   ar
    40    65    64    1
    41    67    68    1
    42   107   109   ar
    43    64    66    1
    44   110   112   ar
    45    68    71    1
    46    71    72    1
    47   109   111   ar
    48    53    52    2
    49   112   111   ar
    50    54    55    1
    51    54    51    1
    52    55    56    1
    53    52    51    1
    54    14    13   ar
    55    72    73    1
    56    72    74    1
    57    56    57   ar
    58    56    58   ar
    59    51    50    1
    60    15    13   ar
    61    49    48    1
    62    13    12    1
    63     4     3    2
    64    12     9    1
    65     9    10    1
    66     9     8    1
    67    48    45    1
    68    23    24    1
    69    23    22    1
    70    10    11    2
    71     3     8   am
    72     3     2    1
    73    47    46    2
    74    35    33   ar
    75    35    34   ar
    76    33    31   ar
    77    45    46    1
    78    45    44    1
    79    16    17    1
    80     2     5    1
    81     2     1    1
    82    21    22    1
    83    21    20    1
    84    39    38    2
    85    34    32   ar
    86     5     6    1
    87    31    30   ar
    88    44    38   am
    89    38    37    1
    90    17    20    1
    91    17    18    1
    92     1     7    1
    93    42    41   ar
    94    32    30   ar
    95     6     7    1
    96    30    29    1
    97    41    43   ar
    98    41    40    1
    99    18    19    2
   100    37    36    1
   101    37    40    1
   102    36    27   am
   103    29    26    1
   104    27    26    1
   105    27    28    2
   106    26    25    1
