@<TRIPOS>MOLECULE
tmp/4ii3A00.pdb
 197 185 0 0 0
SMALL
GASTEIGER

@<TRIPOS>ATOM
      1  N         -7.0360   21.0800  -64.1390 N.3     9  ARG9       -0.1245
      2  CA        -8.3390   21.7130  -63.9990 C.3     9  ARG9        0.1563
      3  C         -9.4400   20.7020  -63.7180 C.2     9  ARG9        0.2260
      4  O        -10.0880   20.7470  -62.6740 O.2     9  ARG9       -0.2867
      5  CB        -8.6720   22.4820  -65.2740 C.3     9  ARG9        0.0307
      6  CG        -7.5990   23.4760  -65.6910 C.3     9  ARG9        0.0489
      7  CD        -7.4240   24.5640  -64.6450 C.3     9  ARG9        0.2205
      8  NE        -6.0550   24.6350  -64.1310 N.pl3   9  ARG9       -0.0865
      9  CZ        -4.9880   24.9250  -64.8700 C.cat   9  ARG9        0.5346
     10  NH1       -5.1140   25.1720  -66.1660 N.pl3   9  ARG9        0.1354
     11  NH2       -3.7950   24.9830  -64.3090 N.pl3   9  ARG9        0.1354
     12  N        -13.9280   37.4800  -78.4890 N.3   420  VAL420     -0.1231
     13  CA       -12.9600   37.9440  -77.5070 C.3   420  VAL420      0.1692
     14  C        -12.6120   36.8000  -76.5650 C.2   420  VAL420      0.2593
     15  O        -13.3910   36.4540  -75.6720 O.2   420  VAL420     -0.2718
     16  CB       -13.5240   39.1170  -76.6870 C.3   420  VAL420      0.0266
     17  CG1      -12.4730   39.6470  -75.7320 C.3   420  VAL420      0.0020
     18  CG2      -13.9960   40.2100  -77.6210 C.3   420  VAL420      0.0020
     19  N        -11.4360   36.2170  -76.7740 N.am  421  GLY421     -0.1942
     20  CA       -10.9950   35.1030  -75.9570 C.3   421  GLY421      0.2014
     21  C        -10.8510   33.8660  -76.8210 C.2   421  GLY421      0.2639
     22  O        -11.6730   33.6340  -77.7080 O.2   421  GLY421     -0.2714
     23  N         -9.8150   33.0710  -76.5700 N.am  422  ALA422     -0.1963
     24  CA        -9.5800   31.8650  -77.3500 C.3   422  ALA422      0.1728
     25  C         -9.2790   30.6590  -76.4700 C.2   422  ALA422      0.2617
     26  O         -8.4890   29.7900  -76.8420 O.2   422  ALA422     -0.2715
     27  CB        -8.4400   32.0950  -78.3160 C.3   422  ALA422      0.0334
     28  N         -9.9120   30.6050  -75.3040 N.am  423  GLY423     -0.1940
     29  CA        -9.6950   29.4880  -74.4070 C.3   423  GLY423      0.2014
     30  C        -10.7330   28.4020  -74.5920 C.2   423  GLY423      0.2639
     31  O        -11.1690   28.1300  -75.7110 O.2   423  GLY423     -0.2714
     32  N        -11.1310   27.7810  -73.4890 N.am  424  ALA424     -0.1963
     33  CA       -12.1170   26.7120  -73.5300 C.3   424  ALA424      0.1728
     34  C        -13.3010   27.0880  -74.4050 C.2   424  ALA424      0.2616
     35  O        -13.4980   26.5230  -75.4770 O.2   424  ALA424     -0.2715
     36  CB       -12.5930   26.3910  -72.1220 C.3   424  ALA424      0.0334
     37  N        -14.0860   28.0480  -73.9380 N.am  425  ILE425     -0.1977
     38  CA       -15.2560   28.4930  -74.6700 C.3   425  ILE425      0.1596
     39  C        -14.8680   28.9460  -76.0720 C.2   425  ILE425      0.2287
     40  O        -15.5770   28.6700  -77.0450 O.2   425  ILE425     -0.2864
     41  CB       -15.9440   29.6610  -73.9390 C.3   425  ILE425      0.0276
     42  CG1      -16.2260   29.2700  -72.4940 C.3   425  ILE425      0.0022
     43  CG2      -17.2570   30.0150  -74.6240 C.3   425  ILE425      0.0022
     44  CD1      -16.8600   30.3660  -71.7020 C.3   425  ILE425      0.0001
     45  N         -9.3080   37.2890  -80.9390 N.3   449  THR449     -0.1203
     46  CA        -8.1830   37.9080  -80.2510 C.3   449  THR449      0.1994
     47  C         -7.9270   37.2420  -78.9090 C.2   449  THR449      0.2618
     48  O         -8.8460   36.7130  -78.2840 O.2   449  THR449     -0.2717
     49  CB        -8.4230   39.4170  -80.0190 C.3   449  THR449      0.1784
     50  OG1       -7.3210   39.9690  -79.2890 O.3   449  THR449     -0.2211
     51  CG2       -9.7030   39.6430  -79.2330 C.3   449  THR449      0.0376
     52  N         -6.6720   37.2670  -78.4720 N.am  450  ASP450     -0.1959
     53  CA        -6.2900   36.6700  -77.1980 C.3   450  ASP450      0.1840
     54  C         -4.8010   36.9020  -77.0030 C.2   450  ASP450      0.2622
     55  O         -4.0250   36.7680  -77.9470 O.2   450  ASP450     -0.2715
     56  CB        -6.5810   35.1690  -77.2040 C.3   450  ASP450      0.1450
     57  CG        -6.5760   34.5720  -75.8120 C.2   450  ASP450      0.3671
     58  OD1       -5.6180   34.8380  -75.0590 O.co2 450  ASP450     -0.2456
     59  OD2       -7.5240   33.8340  -75.4710 O.co2 450  ASP450     -0.2456
     60  N         -4.3920   37.2450  -75.7880 N.am  451  MET451     -0.1963
     61  CA        -2.9830   37.4970  -75.5460 C.3   451  MET451      0.1736
     62  C         -2.2630   36.3980  -74.7850 C.2   451  MET451      0.2616
     63  O         -1.1910   36.6360  -74.2280 O.2   451  MET451     -0.2715
     64  CB        -2.7950   38.8250  -74.8060 C.3   451  MET451      0.0427
     65  CG        -3.1530   38.8160  -73.3200 C.3   451  MET451      0.0599
     66  SD        -4.9100   38.6580  -72.9660 S.3   451  MET451     -0.1393
     67  CE        -4.8730   37.7390  -71.4650 C.3   451  MET451      0.0692
     68  N         -2.8320   35.1970  -74.7520 N.am  452  ASP452     -0.1971
     69  CA        -2.1840   34.1010  -74.0380 C.3   452  ASP452      0.1709
     70  C         -1.7280   33.0090  -74.9990 C.2   452  ASP452      0.2293
     71  O         -2.1650   32.9410  -76.1540 O.2   452  ASP452     -0.2864
     72  CB        -3.1250   33.5100  -72.9710 C.3   452  ASP452      0.1436
     73  CG        -2.3800   32.6990  -71.8970 C.2   452  ASP452      0.3671
     74  OD1       -1.4140   33.2300  -71.3040 O.co2 452  ASP452     -0.2456
     75  OD2       -2.7650   31.5360  -71.6280 O.co2 452  ASP452     -0.2456
     76  N         -0.9200   26.0550  -73.1980 N.3   455  GLU455     -0.1245
     77  CA        -0.2340   25.3630  -72.1090 C.3   455  GLU455      0.1567
     78  C         -0.7760   23.9430  -72.0190 C.2   455  GLU455      0.2260
     79  O         -1.8840   23.6680  -72.4770 O.2   455  GLU455     -0.2867
     80  CB        -0.4750   26.0860  -70.7840 C.3   455  GLU455      0.0388
     81  CG         0.1690   27.4640  -70.7030 C.3   455  GLU455      0.1160
     82  CD        -0.3910   28.3210  -69.5700 C.2   455  GLU455      0.3649
     83  OE1       -0.5190   27.8020  -68.4340 O.co2 455  GLU455     -0.2457
     84  OE2       -0.6940   29.5170  -69.8130 O.co2 455  GLU455     -0.2457
     85  N         -4.2300   23.2980  -70.8060 N.3   458  ASN458     -0.1240
     86  CA        -5.2430   23.8520  -71.6940 C.3   458  ASN458      0.1653
     87  C         -5.7760   22.8430  -72.6940 C.2   458  ASN458      0.2266
     88  O         -6.9090   22.9610  -73.1620 O.2   458  ASN458     -0.2867
     89  CB        -4.6740   25.0440  -72.4560 C.3   458  ASN458      0.1155
     90  CG        -4.2120   26.1460  -71.5410 C.2   458  ASN458      0.2627
     91  OD1       -3.6380   27.1360  -71.9880 O.2   458  ASN458     -0.2716
     92  ND2       -4.4620   25.9860  -70.2470 N.am  458  ASN458     -0.0877
     93  N         -9.4870   21.1230  -72.1650 N.3   461  ARG461     -0.1245
     94  CA       -10.7770   21.7500  -72.4520 C.3   461  ARG461      0.1563
     95  C        -10.7730   22.4420  -73.8020 C.2   461  ARG461      0.2260
     96  O        -11.8240   22.7660  -74.3540 O.2   461  ARG461     -0.2867
     97  CB       -11.1190   22.7910  -71.3820 C.3   461  ARG461      0.0307
     98  CG       -10.7360   22.4030  -69.9600 C.3   461  ARG461      0.0489
     99  CD       -11.2300   23.4320  -68.9520 C.3   461  ARG461      0.2205
    100  NE       -10.7680   24.7820  -69.2610 N.pl3 461  ARG461     -0.0865
    101  CZ        -9.5300   25.2160  -69.0580 C.cat 461  ARG461      0.5346
    102  NH1       -8.6140   24.4110  -68.5400 N.pl3 461  ARG461      0.1354
    103  NH2       -9.2080   26.4620  -69.3740 N.pl3 461  ARG461      0.1354
    104  N         -2.9570   31.3270  -78.9250 N.3   474  LYS474     -0.1245
    105  CA        -4.2340   30.6430  -79.0180 C.3   474  LYS474      0.1561
    106  C         -5.0340   31.1390  -80.2120 C.2   474  LYS474      0.2260
    107  O         -5.4510   30.3550  -81.0630 O.2   474  LYS474     -0.2867
    108  CB        -5.0470   30.8470  -77.7410 C.3   474  LYS474      0.0271
    109  CG        -4.4290   30.2390  -76.4980 C.3   474  LYS474      0.0035
    110  CD        -5.4330   30.2340  -75.3560 C.3   474  LYS474      0.0206
    111  CE        -4.8830   29.5390  -74.1270 C.3   474  LYS474      0.1093
    112  NZ        -5.9150   29.4050  -73.0630 N.3   474  LYS474     -0.1314
    113  N         -3.7320   40.9590  -79.1320 N.3   498  GLU498     -0.1231
    114  CA        -3.9930   42.0910  -78.2550 C.3   498  GLU498      0.1699
    115  C         -4.9560   41.7450  -77.1310 C.2   498  GLU498      0.2592
    116  O         -5.9380   41.0380  -77.3390 O.2   498  GLU498     -0.2718
    117  CB        -4.5650   43.2630  -79.0570 C.3   498  GLU498      0.0402
    118  CG        -3.5950   43.8980  -80.0450 C.3   498  GLU498      0.1161
    119  CD        -2.3590   44.4640  -79.3710 C.2   498  GLU498      0.3649
    120  OE1       -2.5070   45.2550  -78.4090 O.co2 498  GLU498     -0.2457
    121  OE2       -1.2360   44.1190  -79.8070 O.co2 498  GLU498     -0.2457
    122  N         -4.6610   42.2560  -75.9400 N.am  499  ARG499     -0.1966
    123  CA        -5.4940   42.0480  -74.7580 C.3   499  ARG499      0.1729
    124  C         -6.6120   43.0770  -74.8100 C.2   499  ARG499      0.2616
    125  O         -6.3490   44.2740  -74.7020 O.2   499  ARG499     -0.2715
    126  CB        -4.6670   42.2800  -73.4970 C.3   499  ARG499      0.0348
    127  CG        -5.4380   42.1600  -72.2020 C.3   499  ARG499      0.0492
    128  CD        -4.6560   42.7910  -71.0520 C.3   499  ARG499      0.2205
    129  NE        -5.1050   42.3060  -69.7490 N.pl3 499  ARG499     -0.0865
    130  CZ        -4.6370   41.2120  -69.1530 C.cat 499  ARG499      0.5346
    131  NH1       -3.6890   40.4860  -69.7380 N.pl3 499  ARG499      0.1354
    132  NH2       -5.1350   40.8310  -67.9800 N.pl3 499  ARG499      0.1354
    133  N         -7.8530   42.6320  -74.9680 N.am  500  VAL500     -0.1977
    134  CA        -8.9670   43.5660  -75.0440 C.3   500  VAL500      0.1596
    135  C         -9.0920   44.4070  -73.7810 C.2   500  VAL500      0.2287
    136  O         -9.1740   43.8820  -72.6720 O.2   500  VAL500     -0.2864
    137  CB       -10.2850   42.8410  -75.2850 C.3   500  VAL500      0.0276
    138  CG1      -11.3970   43.8490  -75.4510 C.3   500  VAL500      0.0022
    139  CG2      -10.1710   41.9700  -76.5190 C.3   500  VAL500      0.0022
    140  N        -15.5660   35.1320  -74.5000 N.3   522  ALA522     -0.1231
    141  CA       -15.0580   33.8130  -74.1490 C.3   522  ALA522      0.1694
    142  C        -13.9560   34.1050  -73.1360 C.2   522  ALA522      0.2592
    143  O        -12.8900   33.4850  -73.1440 O.2   522  ALA522     -0.2718
    144  CB       -14.4850   33.1300  -75.3800 C.3   522  ALA522      0.0304
    145  N        -14.2410   35.0640  -72.2610 N.am  523  LEU523     -0.1966
    146  CA       -13.3020   35.5230  -71.2480 C.3   523  LEU523      0.1728
    147  C        -13.3150   34.7140  -69.9640 C.2   523  LEU523      0.2616
    148  O        -14.1930   33.8810  -69.7600 O.2   523  LEU523     -0.2715
    149  CB       -13.5960   36.9820  -70.9290 C.3   523  LEU523      0.0311
    150  CG       -13.6760   37.8910  -72.1510 C.3   523  LEU523      0.0022
    151  CD1      -14.2220   39.2420  -71.7420 C.3   523  LEU523      0.0001
    152  CD2      -12.3080   38.0150  -72.7820 C.3   523  LEU523      0.0001
    153  N        -12.3400   34.9840  -69.0960 N.am  524  ASP524     -0.1957
    154  CA       -12.2090   34.2820  -67.8220 C.3   524  ASP524      0.1840
    155  C        -12.2000   35.2040  -66.6120 C.2   524  ASP524      0.2622
    156  O        -11.9810   34.7480  -65.4890 O.2   524  ASP524     -0.2715
    157  CB       -10.9270   33.4410  -67.7980 C.3   524  ASP524      0.1450
    158  CG        -9.6730   34.2700  -68.0280 C.2   524  ASP524      0.3671
    159  OD1       -9.7010   35.4860  -67.7560 O.co2 524  ASP524     -0.2456
    160  OD2       -8.6520   33.7020  -68.4700 O.co2 524  ASP524     -0.2456
    161  N        -12.4230   36.4940  -66.8320 N.am  525  ASN525     -0.1972
    162  CA       -12.4280   37.4450  -65.7260 C.3   525  ASN525      0.1688
    163  C        -13.5360   38.4780  -65.8760 C.2   525  ASN525      0.2292
    164  O        -13.8570   38.8960  -66.9840 O.2   525  ASN525     -0.2864
    165  CB       -11.0670   38.1350  -65.6240 C.3   525  ASN525      0.1181
    166  CG       -10.7620   39.0090  -66.8220 C.2   525  ASN525      0.2629
    167  OD1      -11.1360   40.1810  -66.8570 O.2   525  ASN525     -0.2716
    168  ND2      -10.0860   38.4410  -67.8170 N.am  525  ASN525     -0.0877
    169  N        -12.7980   42.0920  -67.6620 N.3   528  ALA528     -0.1245
    170  CA       -12.7990   42.1000  -69.1200 C.3   528  ALA528      0.1562
    171  C        -14.2050   42.1190  -69.6800 C.2   528  ALA528      0.2260
    172  O        -14.4860   42.8700  -70.6070 O.2   528  ALA528     -0.2867
    173  CB       -12.0540   40.8940  -69.6480 C.3   528  ALA528      0.0290
    174  N          2.1050   28.8590  -61.1450 N.3   786  LYS786     -0.1245
    175  CA         1.4680   27.6590  -60.6110 C.3   786  LYS786      0.1561
    176  C          1.7290   26.3960  -61.4230 C.2   786  LYS786      0.2260
    177  O          2.0660   25.3500  -60.8670 O.2   786  LYS786     -0.2867
    178  CB        -0.0400   27.8920  -60.5090 C.3   786  LYS786      0.0271
    179  CG        -0.6130   28.6220  -61.7150 C.3   786  LYS786      0.0035
    180  CD        -2.1200   28.7540  -61.6500 C.3   786  LYS786      0.0206
    181  CE        -2.6120   29.7490  -62.6920 C.3   786  LYS786      0.1093
    182  NZ        -2.1010   29.4360  -64.0540 N.3   786  LYS786     -0.1314
    183  N         -6.9590   28.8960  -58.8990 N.3   825  ILE825     -0.1231
    184  CA        -7.3560   28.2050  -60.1280 C.3   825  ILE825      0.1692
    185  C         -8.8720   28.0810  -60.2760 C.2   825  ILE825      0.2591
    186  O         -9.5830   27.8510  -59.2980 O.2   825  ILE825     -0.2718
    187  CB        -6.7630   26.7660  -60.1840 C.3   825  ILE825      0.0266
    188  CG1       -5.2490   26.8120  -60.4040 C.3   825  ILE825      0.0019
    189  CG2       -7.4260   25.9670  -61.2990 C.3   825  ILE825      0.0020
    190  CD1       -4.4620   27.2820  -59.2110 C.3   825  ILE825      0.0001
    191  N         -9.3640   28.2220  -61.5020 N.am  826  VAL826     -0.1980
    192  CA       -10.7920   28.1030  -61.7510 C.3   826  VAL826      0.1595
    193  C        -11.1050   26.7000  -62.2400 C.2   826  VAL826      0.2287
    194  O        -10.8670   26.3740  -63.4000 O.2   826  VAL826     -0.2864
    195  CB       -11.2710   29.0950  -62.8260 C.3   826  VAL826      0.0276
    196  CG1      -12.7800   28.9620  -63.0210 C.3   826  VAL826      0.0022
    197  CG2      -10.8930   30.5120  -62.4280 C.3   826  VAL826      0.0022
@<TRIPOS>BOND
     1   107   106    2
     2    45    46    1
     3    46    49    1
     4    46    47    1
     5   106   105    1
     6   118   119    1
     7   118   117    1
     8    49    50    1
     9    49    51    1
    10   121   119   ar
    11   119   120   ar
    12   113   114    1
    13   117   114    1
    14   105   104    1
    15   105   108    1
    16    47    52   am
    17    47    48    2
    18    12    13    1
    19    52    53    1
    20    27    24    1
    21   114   115    1
    22    55    54    2
    23   108   109    1
    24    22    21    2
    25    18    16    1
    26    13    16    1
    27    13    14    1
    28    24    23    1
    29    24    25    1
    30   116   115    2
    31    56    53    1
    32    56    57    1
    33    53    54    1
    34   115   122   am
    35    40    39    2
    36    54    60   am
    37    26    25    2
    38    21    23   am
    39    21    20    1
    40    19    14   am
    41    19    20    1
    42    16    17    1
    43    14    15    2
    44   139   137    1
    45   109   110    1
    46    25    28   am
    47    71    70    2
    48    39    38    1
    49   122   123    1
    50    57    59   ar
    51    57    58   ar
    52    60    61    1
    53    31    30    2
    54    61    64    1
    55    61    62    1
    56    35    34    2
    57   138   137    1
    58   144   141    1
    59   110   111    1
    60    28    29    1
    61   137   134    1
    62   134   133    1
    63   134   135    1
    64    70    69    1
    65   133   124   am
    66   124   123    1
    67   124   125    2
    68    64    65    1
    69    62    68   am
    70    62    63    2
    71   123   126    1
    72    68    69    1
    73    38    41    1
    74    38    37    1
    75    43    41    1
    76    30    29    1
    77    30    32   am
    78   140   141    1
    79    34    37   am
    80    34    33    1
    81    96    95    2
    82   141   142    1
    83   111   112    1
    84    69    72    1
    85    41    42    1
    86    95    94    1
    87   135   136    2
    88    33    32    1
    89    33    36    1
    90   126   127    1
    91    65    66    1
    92    76    77    1
    93    88    87    2
    94   143   142    2
    95   142   145   am
    96    72    73    1
    97    66    67    1
    98   152   150    1
    99    87    86    1
   100    42    44    1
   101    79    78    2
   102    89    86    1
   103    89    90    1
   104    94    93    1
   105    94    97    1
   106   145   146    1
   107   127   128    1
   108   150   151    1
   109   150   149    1
   110    77    78    1
   111    77    80    1
   112    91    90    2
   113    73    75   ar
   114    73    74   ar
   115    86    85    1
   116    90    92   am
   117    97    98    1
   118   146   149    1
   119   146   147    1
   120   128   129    1
   121    80    81    1
   122    81    82    1
   123   172   171    2
   124   147   148    2
   125   147   153   am
   126    98    99    1
   127    84    82   ar
   128   129   130    2
   129   131   130    1
   130   171   170    1
   131   173   170    1
   132    82    83   ar
   133   103   101    1
   134   100   101    2
   135   100    99    1
   136   130   132    1
   137   170   169    1
   138   153   154    1
   139   101   102    1
   140   160   158   ar
   141   158   157    1
   142   158   159   ar
   143   154   157    1
   144   154   155    1
   145   168   166   am
   146   164   163    2
   147   167   166    2
   148   161   155   am
   149   161   162    1
   150   166   165    1
   151   155   156    2
   152    10     9    1
   153   163   162    1
   154   162   165    1
   155     6     5    1
   156     6     7    1
   157     5     2    1
   158     9    11    1
   159     9     8    2
   160     7     8    1
   161     1     2    1
   162   182   181    1
   163     2     3    1
   164     3     4    2
   165   194   193    2
   166   196   195    1
   167   195   197    1
   168   195   192    1
   169   181   180    1
   170   193   192    1
   171   192   191    1
   172   179   180    1
   173   179   178    1
   174   191   185   am
   175   176   177    2
   176   176   175    1
   177   189   187    1
   178   174   175    1
   179   175   178    1
   180   188   187    1
   181   188   190    1
   182   185   184    1
   183   185   186    2
   184   187   184    1
   185   184   183    1
