@<TRIPOS>MOLECULE
tmp/4ii5C00.pdb
 191 183 0 0 0
SMALL
GASTEIGER

@<TRIPOS>ATOM
      1  N         -4.3780  -18.1680   -3.4830 N.3    10  ILE10      -0.1231
      2  CA        -3.2590  -19.0010   -3.9450 C.3    10  ILE10       0.1692
      3  C         -3.1320  -20.3420   -3.2300 C.2    10  ILE10       0.2593
      4  O         -2.2570  -21.1380   -3.5600 O.2    10  ILE10      -0.2718
      5  CB        -1.8990  -18.2760   -3.8350 C.3    10  ILE10       0.0266
      6  CG1       -1.7250  -17.6680   -2.4400 C.3    10  ILE10       0.0019
      7  CG2       -1.7880  -17.2030   -4.9120 C.3    10  ILE10       0.0020
      8  CD1       -0.3700  -17.0290   -2.2210 C.3    10  ILE10       0.0001
      9  N         -3.9850  -20.5930   -2.2480 N.am   11  GLY11      -0.1942
     10  CA        -3.8790  -21.8200   -1.4820 C.3    11  GLY11       0.2014
     11  C         -5.1000  -22.1010   -0.6340 C.2    11  GLY11       0.2639
     12  O         -5.9080  -21.2070   -0.3700 O.2    11  GLY11      -0.2714
     13  N         -5.2350  -23.3570   -0.2130 N.am   12  GLU12      -0.1963
     14  CA        -6.3270  -23.7510    0.6630 C.3    12  GLU12       0.1733
     15  C         -5.9380  -24.9070    1.5770 C.2    12  GLU12       0.2616
     16  O         -5.1090  -25.7470    1.2370 O.2    12  GLU12      -0.2715
     17  CB        -7.5630  -24.1330   -0.1490 C.3    12  GLU12       0.0429
     18  CG        -8.8660  -23.8390    0.5730 C.3    12  GLU12       0.1163
     19  CD        -9.9730  -23.4310   -0.3790 C.2    12  GLU12       0.3649
     20  OE1       -9.9570  -23.8950   -1.5400 O.co2  12  GLU12      -0.2457
     21  OE2      -10.8530  -22.6410    0.0270 O.co2  12  GLU12      -0.2457
     22  N         -6.5530  -24.9070    2.7520 N.am   13  GLY13      -0.1955
     23  CA        -6.4280  -25.9700    3.7280 C.3    13  GLY13       0.1869
     24  C         -7.7460  -26.0140    4.4760 C.2    13  GLY13       0.2309
     25  O         -8.5940  -25.1430    4.2940 O.2    13  GLY13      -0.2863
     26  N         -7.8310  -25.6050    7.4750 N.3    15  TYR15      -0.1227
     27  CA        -7.6220  -24.5840    8.4680 C.3    15  TYR15       0.1736
     28  C         -8.1550  -23.2620    7.9840 C.2    15  TYR15       0.2596
     29  O         -8.8270  -22.5330    8.7070 O.2    15  TYR15      -0.2718
     30  CB        -6.1490  -24.5340    8.8150 C.3    15  TYR15       0.0548
     31  CG        -5.8130  -25.7050    9.7020 C.ar   15  TYR15      -0.0200
     32  CD1       -5.0230  -26.7530    9.2480 C.ar   15  TYR15      -0.0009
     33  CD2       -6.3500  -25.7950   10.9760 C.ar   15  TYR15      -0.0009
     34  CE1       -4.7380  -27.8240   10.0610 C.ar   15  TYR15       0.0417
     35  CE2       -6.0830  -26.8660   11.7820 C.ar   15  TYR15       0.0417
     36  CZ        -5.2740  -27.8710   11.3260 C.ar   15  TYR15       0.1957
     37  OH        -4.9970  -28.9200   12.1530 O.3    15  TYR15      -0.2866
     38  N         -7.9020  -22.9770    6.7250 N.am   16  GLY16      -0.1957
     39  CA        -8.3390  -21.7190    6.1590 C.3    16  GLY16       0.1869
     40  C         -7.7720  -21.5250    4.7750 C.2    16  GLY16       0.2309
     41  O         -7.3410  -22.4800    4.1380 O.2    16  GLY16      -0.2863
     42  N         -5.3100  -19.1990    1.8550 N.3    18  VAL18      -0.1245
     43  CA        -4.1690  -18.3100    1.6660 C.3    18  VAL18       0.1561
     44  C         -4.4070  -17.4220    0.4430 C.2    18  VAL18       0.2260
     45  O         -4.6670  -17.9240   -0.6460 O.2    18  VAL18      -0.2867
     46  CB        -2.8750  -19.1020    1.4760 C.3    18  VAL18       0.0252
     47  CG1       -1.6980  -18.1520    1.4060 C.3    18  VAL18       0.0019
     48  CG2       -2.6910  -20.1040    2.6100 C.3    18  VAL18       0.0019
     49  N          1.6280  -12.6080    1.3280 N.3    31  ALA31      -0.1245
     50  CA         0.7430  -13.7600    1.3460 C.3    31  ALA31       0.1562
     51  C         -0.0150  -13.7020    2.6660 C.2    31  ALA31       0.2260
     52  O          0.5670  -13.4650    3.7110 O.2    31  ALA31      -0.2867
     53  CB         1.5310  -15.0490    1.2070 C.3    31  ALA31       0.0290
     54  N         -2.5250  -15.6180    5.2580 N.3    33  LYS33      -0.1245
     55  CA        -3.0260  -16.9280    5.6830 C.3    33  LYS33       0.1561
     56  C         -4.1150  -16.7460    6.7260 C.2    33  LYS33       0.2260
     57  O         -3.8520  -16.2940    7.8350 O.2    33  LYS33      -0.2867
     58  CB        -1.8820  -17.7490    6.2730 C.3    33  LYS33       0.0271
     59  CG        -2.2430  -19.1710    6.6210 C.3    33  LYS33       0.0035
     60  CD        -0.9920  -19.9750    6.9050 C.3    33  LYS33       0.0206
     61  CE        -1.2330  -21.4540    6.7440 C.3    33  LYS33       0.1093
     62  NZ         0.0460  -22.1810    6.8530 N.3    33  LYS33      -0.1314
     63  N          3.0740  -22.8240   14.7040 N.3    51  GLU51      -0.1245
     64  CA         3.5140  -22.1410   13.4880 C.3    51  GLU51       0.1567
     65  C          4.0380  -20.7370   13.7910 C.2    51  GLU51       0.2260
     66  O          5.1130  -20.3490   13.3420 O.2    51  GLU51      -0.2867
     67  CB         2.3770  -22.0590   12.4680 C.3    51  GLU51       0.0388
     68  CG         2.8430  -21.5970   11.0850 C.3    51  GLU51       0.1160
     69  CD         1.7870  -21.7760    9.9980 C.2    51  GLU51       0.3649
     70  OE1        0.7150  -22.3570   10.2850 O.co2  51  GLU51      -0.2457
     71  OE2        2.0320  -21.3370    8.8500 O.co2  51  GLU51      -0.2457
     72  N         10.8770  -18.7130    5.0490 N.3    64  VAL64      -0.1245
     73  CA         9.9060  -17.6670    4.7330 C.3    64  VAL64       0.1561
     74  C          9.7390  -16.7170    5.9430 C.2    64  VAL64       0.2260
     75  O          9.8350  -17.1390    7.0910 O.2    64  VAL64      -0.2867
     76  CB         8.5310  -18.2750    4.3530 C.3    64  VAL64       0.0252
     77  CG1        7.9290  -19.0130    5.5330 C.3    64  VAL64       0.0019
     78  CG2        7.5670  -17.1940    3.8660 C.3    64  VAL64       0.0019
     79  N          2.7650  -13.0760    5.5390 N.3    80  PHE80      -0.1227
     80  CA         4.1120  -13.5210    5.1350 C.3    80  PHE80       0.1736
     81  C          4.6090  -12.6930    3.9600 C.2    80  PHE80       0.2595
     82  O          3.8110  -12.1270    3.2210 O.2    80  PHE80      -0.2718
     83  CB         4.1000  -14.9780    4.6420 C.3    80  PHE80       0.0547
     84  CG         3.7260  -15.9940    5.6820 C.ar   80  PHE80      -0.0202
     85  CD1        4.7080  -16.6020    6.4570 C.ar   80  PHE80      -0.0042
     86  CD2        2.4060  -16.3720    5.8530 C.ar   80  PHE80      -0.0042
     87  CE1        4.3790  -17.5450    7.4000 C.ar   80  PHE80      -0.0003
     88  CE2        2.0650  -17.3260    6.8020 C.ar   80  PHE80      -0.0003
     89  CZ         3.0570  -17.9150    7.5720 C.ar   80  PHE80      -0.0000
     90  N          5.9230  -12.6420    3.7680 N.am   81  GLU81      -0.1965
     91  CA         6.4670  -12.0790    2.5360 C.3    81  GLU81       0.1733
     92  C          5.9150  -12.9360    1.4060 C.2    81  GLU81       0.2616
     93  O          5.7310  -14.1440    1.5900 O.2    81  GLU81      -0.2715
     94  CB         7.9930  -12.1310    2.5280 C.3    81  GLU81       0.0429
     95  CG         8.5620  -13.5460    2.5240 C.3    81  GLU81       0.1163
     96  CD        10.0800  -13.5630    2.5030 C.2    81  GLU81       0.3649
     97  OE1       10.6780  -12.6470    1.9010 O.co2  81  GLU81      -0.2457
     98  OE2       10.6790  -14.4820    3.1120 O.co2  81  GLU81      -0.2457
     99  N          5.6400  -12.3170    0.2580 N.am   82  PHE82      -0.1960
    100  CA         5.1250  -13.0350   -0.9130 C.3    82  PHE82       0.1771
    101  C          6.2610  -13.5230   -1.8100 C.2    82  PHE82       0.2619
    102  O          7.1680  -12.7620   -2.1340 O.2    82  PHE82      -0.2715
    103  CB         4.1880  -12.1370   -1.7340 C.3    82  PHE82       0.0574
    104  CG         3.6570  -12.7940   -2.9720 C.ar   82  PHE82      -0.0200
    105  CD1        2.6020  -13.6940   -2.8930 C.ar   82  PHE82      -0.0042
    106  CD2        4.2290  -12.5350   -4.2130 C.ar   82  PHE82      -0.0042
    107  CE1        2.1100  -14.3180   -4.0360 C.ar   82  PHE82      -0.0003
    108  CE2        3.7480  -13.1600   -5.3640 C.ar   82  PHE82      -0.0003
    109  CZ         2.6860  -14.0510   -5.2770 C.ar   82  PHE82      -0.0000
    110  N          6.2030  -14.7870   -2.2240 N.am   83  LEU83      -0.1963
    111  CA         7.1920  -15.3140   -3.1580 C.3    83  LEU83       0.1728
    112  C          6.5030  -15.8110   -4.4150 C.2    83  LEU83       0.2616
    113  O          5.3580  -16.2530   -4.3650 O.2    83  LEU83      -0.2715
    114  CB         8.0300  -16.4200   -2.5190 C.3    83  LEU83       0.0311
    115  CG         9.1520  -15.9050   -1.6150 C.3    83  LEU83       0.0022
    116  CD1        8.6660  -15.7840   -0.1920 C.3    83  LEU83       0.0001
    117  CD2       10.3540  -16.8210   -1.6670 C.3    83  LEU83       0.0001
    118  N          7.2130  -15.7530   -5.5370 N.am   84  HIS84      -0.1959
    119  CA         6.6080  -16.0260   -6.8310 C.3    84  HIS84       0.1787
    120  C          5.7700  -17.3190   -6.8460 C.2    84  HIS84       0.2620
    121  O          4.5980  -17.2890   -7.2160 O.2    84  HIS84      -0.2715
    122  CB         7.6840  -16.0640   -7.9190 C.3    84  HIS84       0.0785
    123  CG         7.1280  -16.0180   -9.3050 C.ar   84  HIS84       0.0821
    124  ND1        7.2840  -17.0470  -10.2060 N.ar   84  HIS84      -0.2267
    125  CD2        6.3940  -15.0710   -9.9340 C.ar   84  HIS84       0.1154
    126  CE1        6.6780  -16.7320  -11.3380 C.ar   84  HIS84       0.1986
    127  NE2        6.1310  -15.5390  -11.1990 N.ar   84  HIS84      -0.2212
    128  N          6.3410  -18.4510   -6.4440 N.am   85  GLN85      -0.1963
    129  CA         5.5530  -19.6840   -6.4030 C.3    85  GLN85       0.1733
    130  C          6.1990  -20.8120   -5.5880 C.2    85  GLN85       0.2616
    131  O          7.3400  -20.6950   -5.1280 O.2    85  GLN85      -0.2715
    132  CB         5.3360  -20.1920   -7.8250 C.3    85  GLN85       0.0408
    133  CG         6.6290  -20.5600   -8.5200 C.3    85  GLN85       0.0908
    134  CD         6.4280  -20.9640   -9.9790 C.2    85  GLN85       0.2608
    135  OE1        7.3950  -21.2550  -10.6910 O.2    85  GLN85      -0.2717
    136  NE2        5.1720  -20.9790  -10.4300 N.am   85  GLN85      -0.0878
    137  N          5.4550  -21.9020   -5.4060 N.am   86  ASP86      -0.1971
    138  CA         5.9910  -23.0900   -4.7380 C.3    86  ASP86       0.1709
    139  C          6.7330  -23.9820   -5.7290 C.2    86  ASP86       0.2293
    140  O          6.5070  -23.8890   -6.9350 O.2    86  ASP86      -0.2864
    141  CB         4.9260  -23.8450   -3.9130 C.3    86  ASP86       0.1436
    142  CG         3.8880  -24.5490   -4.7620 C.2    86  ASP86       0.3671
    143  OD1        4.2520  -25.3020   -5.6890 O.co2  86  ASP86      -0.2456
    144  OD2        2.6890  -24.3660   -4.4780 O.co2  86  ASP86      -0.2456
    145  N          4.6580  -26.2640   -8.3880 N.3    89  LYS89      -0.1245
    146  CA         4.2620  -25.5670   -9.6130 C.3    89  LYS89       0.1561
    147  C          5.4620  -25.4020  -10.5430 C.2    89  LYS89       0.2260
    148  O          5.3400  -25.5720  -11.7640 O.2    89  LYS89      -0.2867
    149  CB         3.6810  -24.1880   -9.2930 C.3    89  LYS89       0.0271
    150  CG         2.3350  -24.2000   -8.5940 C.3    89  LYS89       0.0035
    151  CD         2.2390  -23.0230   -7.6270 C.3    89  LYS89       0.0206
    152  CE         0.8250  -22.8020   -7.1170 C.3    89  LYS89       0.1093
    153  NZ         0.8010  -21.8460   -5.9700 N.3    89  LYS89      -0.1314
    154  N          5.3510  -28.5070   -2.3780 N.3   131  GLN131     -0.1231
    155  CA         4.3960  -27.3830   -2.2850 C.3   131  GLN131      0.1698
    156  C          4.6140  -26.4910   -1.0550 C.2   131  GLN131      0.2592
    157  O          4.0800  -25.3930   -0.9750 O.2   131  GLN131     -0.2718
    158  CB         2.9500  -27.8630   -2.3350 C.3   131  GLN131      0.0381
    159  CG         2.4260  -28.4760   -1.0730 C.3   131  GLN131      0.0905
    160  CD         1.2050  -29.3230   -1.3500 C.2   131  GLN131      0.2608
    161  OE1        1.1740  -30.0720   -2.3290 O.2   131  GLN131     -0.2717
    162  NE2        0.1860  -29.1990   -0.5050 N.am  131  GLN131     -0.0878
    163  N          5.3850  -26.9710   -0.0950 N.am  132  ASN132     -0.1974
    164  CA         5.7400  -26.1760    1.0750 C.3   132  ASN132      0.1688
    165  C          7.0870  -25.4810    0.9380 C.2   132  ASN132      0.2292
    166  O          7.6390  -24.9850    1.9190 O.2   132  ASN132     -0.2864
    167  CB         5.7010  -27.0300    2.3410 C.3   132  ASN132      0.1181
    168  CG         4.2890  -27.4250    2.7170 C.2   132  ASN132      0.2629
    169  OD1        3.3210  -26.7820    2.2930 O.2   132  ASN132     -0.2716
    170  ND2        4.1550  -28.4900    3.5080 N.am  132  ASN132     -0.0877
    171  N          9.2000  -22.5220   -1.2460 N.3   134  LEU134     -0.1245
    172  CA         8.8680  -21.3320   -2.0330 C.3   134  LEU134      0.1561
    173  C         10.0960  -20.7740   -2.7570 C.2   134  LEU134      0.2260
    174  O         11.1710  -20.6520   -2.1630 O.2   134  LEU134     -0.2867
    175  CB         8.2710  -20.2550   -1.1190 C.3   134  LEU134      0.0270
    176  CG         7.0600  -20.6990   -0.3040 C.3   134  LEU134      0.0019
    177  CD1        6.6580  -19.6160    0.6800 C.3   134  LEU134      0.0001
    178  CD2        5.8920  -21.0940   -1.2090 C.3   134  LEU134      0.0001
    179  N          8.7910  -23.1840    3.8890 N.3   144  ALA144     -0.1231
    180  CA         7.5570  -22.6070    4.3460 C.3   144  ALA144      0.1694
    181  C          6.6550  -23.6480    5.0190 C.2   144  ALA144      0.2592
    182  O          7.0610  -24.7180    5.2390 O.2   144  ALA144     -0.2718
    183  CB         6.8550  -21.9300    3.2640 C.3   144  ALA144      0.0304
    184  N          5.4310  -23.2880    5.3300 N.am  145  ASP145     -0.1974
    185  CA         4.4880  -24.1300    6.0550 C.3   145  ASP145      0.1709
    186  C          5.0050  -24.8790    7.2910 C.2   145  ASP145      0.2293
    187  O          5.3070  -26.0110    7.2190 O.2   145  ASP145     -0.2864
    188  CB         3.8210  -25.1190    5.1300 C.3   145  ASP145      0.1436
    189  CG         2.5560  -25.5860    5.6600 C.2   145  ASP145      0.3671
    190  OD1        2.2570  -25.3350    6.8130 O.co2 145  ASP145     -0.2456
    191  OD2        1.8250  -26.1900    4.9230 O.co2 145  ASP145     -0.2456
@<TRIPOS>BOND
     1   148   147    2
     2   126   127   ar
     3   126   124   ar
     4   127   125   ar
     5   135   134    2
     6   147   146    1
     7   136   134   am
     8   124   123   ar
     9   134   133    1
    10   125   123   ar
    11   146   149    1
    12   146   145    1
    13   123   122    1
    14   149   150    1
    15   150   151    1
    16   133   132    1
    17   122   119    1
    18   132   129    1
    19   151   152    1
    20   121   120    2
    21   152   153    1
    22   140   139    2
    23   120   119    1
    24   120   128   am
    25   119   118    1
    26   128   129    1
    27   129   130    1
    28   139   138    1
    29   143   142   ar
    30   130   137   am
    31   130   131    2
    32   118   112   am
    33   137   138    1
    34   108   109   ar
    35   108   106   ar
    36   109   107   ar
    37     7     5    1
    38   142   144   ar
    39   142   141    1
    40   138   141    1
    41   112   113    2
    42   112   111    1
    43   106   104   ar
    44   107   105   ar
    45     2     5    1
    46     2     1    1
    47     2     3    1
    48     5     6    1
    49     4     3    2
    50     3     9   am
    51   111   114    1
    52   111   110    1
    53   104   105   ar
    54   104   103    1
    55   173   174    2
    56   173   172    1
    57   114   115    1
    58     6     8    1
    59   154   155    1
    60   158   155    1
    61   158   159    1
    62   161   160    2
    63   155   156    1
    64     9    10    1
    65   110   101   am
    66   102   101    2
    67   172   171    1
    68   172   175    1
    69   101   100    1
    70   103   100    1
    71   117   115    1
    72   115   116    1
    73    20    19   ar
    74    10    11    1
    75   160   159    1
    76   160   162   am
    77   178   176    1
    78   175   176    1
    79   156   157    2
    80   156   163   am
    81   100    99    1
    82    45    44    2
    83    11    12    2
    84    11    13   am
    85    19    21   ar
    86    19    18    1
    87   176   177    1
    88    13    14    1
    89    17    18    1
    90    17    14    1
    91   163   164    1
    92    99    92   am
    93    44    43    1
    94    14    15    1
    95   165   164    1
    96   165   166    2
    97   164   167    1
    98    53    50    1
    99    16    15    2
   100    49    50    1
   101    50    51    1
   102    47    46    1
   103    92    93    2
   104    92    91    1
   105    46    43    1
   106    46    48    1
   107    15    22   am
   108    43    42    1
   109    97    96   ar
   110   169   168    2
   111   167   168    1
   112    96    95    1
   113    96    98   ar
   114    95    94    1
   115    94    91    1
   116    91    90    1
   117    51    52    2
   118   168   170   am
   119    22    23    1
   120    82    81    2
   121   183   180    1
   122    23    24    1
   123    90    81   am
   124    78    76    1
   125   179   180    1
   126    81    80    1
   127    41    40    2
   128    25    24    2
   129   180   181    1
   130    76    73    1
   131    76    77    1
   132    83    80    1
   133    83    84    1
   134    73    72    1
   135    73    74    1
   136    40    39    1
   137   191   189   ar
   138   181   182    2
   139   181   184   am
   140   188   189    1
   141   188   185    1
   142    80    79    1
   143    54    55    1
   144   184   185    1
   145   189   190   ar
   146    84    86   ar
   147    84    85   ar
   148    55    58    1
   149    55    56    1
   150    86    88   ar
   151    74    75    2
   152   185   186    1
   153    39    38    1
   154    58    59    1
   155    85    87   ar
   156    59    60    1
   157    38    28   am
   158    56    57    2
   159    61    62    1
   160    61    60    1
   161    88    89   ar
   162   187   186    2
   163    87    89   ar
   164    26    27    1
   165    28    27    1
   166    28    29    2
   167    27    30    1
   168    30    31    1
   169    71    69   ar
   170    32    31   ar
   171    32    34   ar
   172    31    33   ar
   173    69    70   ar
   174    69    68    1
   175    34    36   ar
   176    33    35   ar
   177    68    67    1
   178    36    35   ar
   179    36    37    1
   180    67    64    1
   181    66    65    2
   182    64    65    1
   183    64    63    1
