@<TRIPOS>MOLECULE
tmp/4ii8A00.pdb
 90 88 0 0 0
SMALL
GASTEIGER

@<TRIPOS>ATOM
      1  N         -3.9330   23.8170   13.7430 N.3    35  GLU35      -0.1245
      2  CA        -4.5650   22.9390   12.7660 C.3    35  GLU35       0.1567
      3  C         -5.2040   21.7520   13.4700 C.2    35  GLU35       0.2260
      4  O         -6.3540   21.4210   13.2020 O.2    35  GLU35      -0.2867
      5  CB        -3.5600   22.4560   11.6980 C.3    35  GLU35       0.0388
      6  CG        -3.0340   23.5500   10.7360 C.3    35  GLU35       0.1160
      7  CD        -4.1160   24.1680    9.8540 C.2    35  GLU35       0.3649
      8  OE1       -5.2720   23.7080    9.9090 O.co2  35  GLU35      -0.2457
      9  OE2       -3.8170   25.1160    9.0910 O.co2  35  GLU35      -0.2457
     10  N         -9.6220   17.6140    5.4240 N.3    52  ASP52      -0.1239
     11  CA        -8.2630   17.8320    5.9230 C.3    52  ASP52       0.1674
     12  C         -7.9100   16.7510    6.9540 C.2    52  ASP52       0.2266
     13  O         -8.7350   16.3920    7.7870 O.2    52  ASP52      -0.2867
     14  CB        -8.1550   19.1840    6.6200 C.3    52  ASP52       0.1410
     15  CG        -8.2390   20.3560    5.6690 C.2    52  ASP52       0.3668
     16  OD1       -8.1250   20.1680    4.4450 O.co2  52  ASP52      -0.2456
     17  OD2       -8.3990   21.4890    6.1640 O.co2  52  ASP52      -0.2456
     18  N         -3.3160   18.9640    8.9120 N.3    57  GLN57      -0.1231
     19  CA        -4.5970   19.1450    8.2380 C.3    57  GLN57       0.1698
     20  C         -4.4250   19.2800    6.7370 C.2    57  GLN57       0.2592
     21  O         -4.8350   20.2660    6.1400 O.2    57  GLN57      -0.2718
     22  CB        -5.3290   20.3580    8.8120 C.3    57  GLN57       0.0381
     23  CG        -5.8930   20.1040   10.1930 C.3    57  GLN57       0.0905
     24  CD        -6.9830   19.0510   10.1790 C.2    57  GLN57       0.2608
     25  OE1       -8.1340   19.3450    9.8640 O.2    57  GLN57      -0.2717
     26  NE2       -6.6250   17.8160   10.5150 N.am   57  GLN57      -0.0878
     27  N         -3.7820   18.2840    6.1470 N.am   58  ILE58      -0.1966
     28  CA        -3.5150   18.2700    4.7160 C.3    58  ILE58       0.1727
     29  C         -4.7710   17.8440    3.9510 C.2    58  ILE58       0.2616
     30  O         -5.4330   16.8830    4.3260 O.2    58  ILE58      -0.2715
     31  CB        -2.3000   17.3720    4.4410 C.3    58  ILE58       0.0290
     32  CG1       -1.0490   18.0560    5.0180 C.3    58  ILE58       0.0022
     33  CG2       -2.1580   17.0540    2.9690 C.3    58  ILE58       0.0023
     34  CD1        0.2160   17.2150    4.9960 C.3    58  ILE58       0.0001
     35  N         -5.0780   18.5890    2.8870 N.am   59  ASN59      -0.1972
     36  CA        -6.3640   18.5790    2.2010 C.3    59  ASN59       0.1688
     37  C         -6.4200   17.5270    1.1050 C.2    59  ASN59       0.2292
     38  O         -5.4540   17.3390    0.3740 O.2    59  ASN59      -0.2864
     39  CB        -6.5870   19.9720    1.5820 C.3    59  ASN59       0.1181
     40  CG        -8.0240   20.2310    1.1930 C.2    59  ASN59       0.2629
     41  OD1       -8.8280   19.3120    1.1030 O.2    59  ASN59      -0.2716
     42  ND2       -8.3520   21.4980    0.9460 N.am   59  ASN59      -0.0877
     43  N         -3.7570   16.8550   -2.2440 N.3    63  TRP63      -0.1241
     44  CA        -2.5760   16.2220   -1.7180 C.3    63  TRP63       0.1605
     45  C         -2.6560   14.7600   -1.4250 C.2    63  TRP63       0.2264
     46  O         -1.6380   14.0760   -1.4220 O.2    63  TRP63      -0.2867
     47  CB        -2.0830   16.9820   -0.4930 C.3    63  TRP63       0.0550
     48  CG        -1.9460   18.4480   -0.7710 C.ar   63  TRP63       0.0003
     49  CD1       -2.7400   19.4750   -0.3130 C.ar   63  TRP63       0.0946
     50  CD2       -0.9580   19.0900   -1.6300 C.ar   63  TRP63       0.0152
     51  NE1       -2.3160   20.6740   -0.8070 N.ar   63  TRP63      -0.2442
     52  CE2       -1.2540   20.5110   -1.6010 C.ar   63  TRP63       0.0810
     53  CE3        0.1040   18.6440   -2.3810 C.ar   63  TRP63       0.0012
     54  CZ2       -0.5070   21.4230   -2.3050 C.ar   63  TRP63       0.0191
     55  CZ3        0.8490   19.5710   -3.0850 C.ar   63  TRP63       0.0001
     56  CH2        0.5510   20.9270   -3.0430 C.ar   63  TRP63       0.0015
     57  N          4.0800   20.6740   -0.0570 N.3    98  ILE98      -0.1245
     58  CA         3.1280   21.7850   -0.0300 C.3    98  ILE98       0.1561
     59  C          3.8050   23.1340    0.1680 C.2    98  ILE98       0.2260
     60  O          3.5300   24.0940   -0.5490 O.2    98  ILE98      -0.2867
     61  CB         2.1140   21.5920    1.1060 C.3    98  ILE98       0.0252
     62  CG1        1.3320   20.2940    0.8940 C.3    98  ILE98       0.0019
     63  CG2        1.1660   22.7880    1.1810 C.3    98  ILE98       0.0019
     64  CD1        0.5450   19.8580    2.1170 C.3    98  ILE98       0.0001
     65  N         -0.1660   28.4150    2.6910 N.3   107  ALA107     -0.1231
     66  CA        -1.0410   27.3000    2.3360 C.3   107  ALA107      0.1694
     67  C         -1.8830   26.8510    3.5370 C.2   107  ALA107      0.2592
     68  O         -3.0000   26.3480    3.3880 O.2   107  ALA107     -0.2718
     69  CB        -0.2120   26.1390    1.7870 C.3   107  ALA107      0.0304
     70  N         -1.3460   27.0390    4.7360 N.am  108  TRP108     -0.1962
     71  CA        -2.0860   26.7330    5.9580 C.3   108  TRP108      0.1771
     72  C         -2.7510   28.0070    6.4590 C.2   108  TRP108      0.2619
     73  O         -2.0740   28.9110    6.9560 O.2   108  TRP108     -0.2715
     74  CB        -1.1470   26.1330    7.0120 C.3   108  TRP108      0.0590
     75  CG        -0.6810   24.7180    6.7110 C.ar  108  TRP108      0.0006
     76  CD1       -1.3020   23.5580    7.0740 C.ar  108  TRP108      0.0946
     77  CD2        0.5140   24.3290    6.0090 C.ar  108  TRP108      0.0152
     78  NE1       -0.5780   22.4710    6.6370 N.ar  108  TRP108     -0.2442
     79  CE2        0.5410   22.9190    5.9790 C.ar  108  TRP108      0.0810
     80  CE3        1.5570   25.0390    5.3940 C.ar  108  TRP108      0.0012
     81  CZ2        1.5680   22.2020    5.3630 C.ar  108  TRP108      0.0191
     82  CZ3        2.5830   24.3210    4.7790 C.ar  108  TRP108      0.0001
     83  CH2        2.5780   22.9190    4.7690 C.ar  108  TRP108      0.0015
     84  N         -4.0730   28.1140    6.3000 N.am  109  VAL109     -0.1977
     85  CA        -4.7450   29.3640    6.6780 C.3   109  VAL109      0.1596
     86  C         -4.5830   29.6890    8.1660 C.2   109  VAL109      0.2287
     87  O         -4.4520   30.8570    8.5360 O.2   109  VAL109     -0.2864
     88  CB        -6.2420   29.4030    6.2700 C.3   109  VAL109      0.0276
     89  CG1       -7.0480   28.3670    7.0350 C.3   109  VAL109      0.0022
     90  CG2       -6.8190   30.7940    6.4830 C.3   109  VAL109      0.0022
@<TRIPOS>BOND
     1    55    56   ar
     2    55    53   ar
     3    56    54   ar
     4    53    50   ar
     5    54    52   ar
     6    43    44    1
     7    44    45    1
     8    44    47    1
     9    50    52   ar
    10    50    48   ar
    11    52    51   ar
    12    45    46    2
    13    51    49   ar
    14    48    47    1
    15    48    49   ar
    16    60    59    2
    17    57    58    1
    18    58    59    1
    19    58    61    1
    20    38    37    2
    21    62    61    1
    22    62    64    1
    23    42    40   am
    24    41    40    2
    25    37    36    1
    26    61    63    1
    27    40    39    1
    28    39    36    1
    29    69    66    1
    30    36    35    1
    31    66    65    1
    32    66    67    1
    33    35    29   am
    34    33    31    1
    35    68    67    2
    36    67    70   am
    37    29    30    2
    38    29    28    1
    39    31    28    1
    40    31    32    1
    41    16    15   ar
    42    28    27    1
    43    70    71    1
    44    83    82   ar
    45    83    81   ar
    46    82    80   ar
    47    34    32    1
    48    81    79   ar
    49    80    77   ar
    50    10    11    1
    51    15    17   ar
    52    15    14    1
    53    11    14    1
    54    11    12    1
    55    71    72    1
    56    71    74    1
    57    79    77   ar
    58    79    78   ar
    59    77    75   ar
    60    21    20    2
    61    27    20   am
    62    88    90    1
    63    88    85    1
    64    88    89    1
    65    84    72   am
    66    84    85    1
    67    72    73    2
    68    78    76   ar
    69    85    86    1
    70    75    74    1
    71    75    76   ar
    72    20    19    1
    73    12    13    2
    74    86    87    2
    75    19    22    1
    76    19    18    1
    77    22    23    1
    78     9     7   ar
    79     7     8   ar
    80     7     6    1
    81    25    24    2
    82    24    23    1
    83    24    26   am
    84     6     5    1
    85     5     2    1
    86     2     3    1
    87     2     1    1
    88     4     3    2
