@<TRIPOS>MOLECULE
tmp/4ii9A01.pdb
 151 146 0 0 0
SMALL
GASTEIGER

@<TRIPOS>ATOM
      1  N          9.9230    1.3200    6.9080 N.3    36  LYS36      -0.1245
      2  CA        10.0890    0.1010    7.7930 C.3    36  LYS36       0.1561
      3  C         10.5140   -1.1050    6.9550 C.2    36  LYS36       0.2260
      4  O          9.8100   -2.1060    6.8500 O.2    36  LYS36      -0.2867
      5  CB         8.7950   -0.2540    8.5190 C.3    36  LYS36       0.0271
      6  CG         8.2270    0.8720    9.3570 C.3    36  LYS36       0.0035
      7  CD         9.0320    1.0300   10.6320 C.3    36  LYS36       0.0206
      8  CE         8.3480    2.1030   11.5660 C.3    36  LYS36       0.1093
      9  NZ         9.2010    2.3100   12.7940 N.3    36  LYS36      -0.1314
     10  N         12.6640   -3.4210    7.1370 N.3    38  ASN38      -0.1225
     11  CA        12.9220   -4.6070    7.8050 C.3    38  ASN38       0.1785
     12  C         11.6720   -5.3410    8.2480 C.2    38  ASN38       0.2597
     13  O         11.7870   -6.3840    8.9440 O.2    38  ASN38      -0.2718
     14  CB        13.8750   -4.3130    9.0440 C.3    38  ASN38       0.1169
     15  CG        13.3280   -3.2420   10.0180 C.2    38  ASN38       0.2627
     16  OD1       12.7180   -2.2500    9.5620 O.2    38  ASN38      -0.2716
     17  ND2       13.5410   -3.4340   11.3160 N.am   38  ASN38      -0.0877
     18  N         10.5010   -4.8090    7.8110 N.am   39  TRP39      -0.1976
     19  CA         9.2000   -5.4960    8.0910 C.3    39  TRP39       0.1640
     20  C          8.6000   -5.8840    6.8000 C.2    39  TRP39       0.2290
     21  O          8.9030   -5.3100    5.7330 O.2    39  TRP39      -0.2864
     22  CB         8.2530   -4.5030    8.8100 C.3    39  TRP39       0.0576
     23  CG         8.7460   -4.1090   10.1760 C.ar   39  TRP39       0.0006
     24  CD1        9.9020   -3.3410   10.4790 C.ar   39  TRP39       0.0946
     25  CD2        8.0780   -4.3720   11.4460 C.ar   39  TRP39       0.0152
     26  NE1       10.0260   -3.2310   11.8630 N.ar   39  TRP39      -0.2442
     27  CE2        8.9020   -3.7820   12.4900 C.ar   39  TRP39       0.0810
     28  CE3        6.8460   -5.0040   11.8050 C.ar   39  TRP39       0.0012
     29  CZ2        8.5510   -3.8800   13.8540 C.ar   39  TRP39       0.0191
     30  CZ3        6.5250   -5.1200   13.1370 C.ar   39  TRP39       0.0001
     31  CH2        7.3430   -4.5240   14.1670 C.ar   39  TRP39       0.0015
     32  N          6.5800   -8.3530   11.6800 N.3    62  GLY62      -0.1210
     33  CA         7.8910   -8.3530   12.3120 C.3    62  GLY62       0.1956
     34  C          8.2430   -9.6680   12.9260 C.2    62  GLY62       0.2612
     35  O          7.4170  -10.5000   13.2690 O.2    62  GLY62      -0.2717
     36  N          9.5660   -9.9120   12.9770 N.am   63  ASP63      -0.1959
     37  CA        10.0180  -11.1700   13.5810 C.3    63  ASP63       0.1840
     38  C          9.8600  -11.1910   15.0800 C.2    63  ASP63       0.2622
     39  O          9.7380  -10.1230   15.8110 O.2    63  ASP63      -0.2715
     40  CB        11.4550  -11.4700   13.1420 C.3    63  ASP63       0.1450
     41  CG        11.5170  -11.9900   11.7290 C.2    63  ASP63       0.3671
     42  OD1       10.7630  -12.9430   11.3540 O.co2  63  ASP63      -0.2456
     43  OD2       12.4040  -11.5150   11.0240 O.co2  63  ASP63      -0.2456
     44  N          9.8170  -12.4290   15.5930 N.am   64  THR64      -0.1951
     45  CA         9.7630  -12.6440   17.0190 C.3    64  THR64       0.1897
     46  C         10.6630  -13.8420   17.3910 C.2    64  THR64       0.2313
     47  O         11.1890  -14.4900   16.4850 O.2    64  THR64      -0.2863
     48  CB         8.3770  -13.0400   17.5840 C.3    64  THR64       0.1794
     49  OG1        8.0710  -14.3590   17.1460 O.3    64  THR64      -0.2208
     50  CG2        7.2450  -12.1250   16.9550 C.3    64  THR64       0.0378
     51  N          4.7370  -10.9940   14.2640 N.3    70  PHE70      -0.1241
     52  CA         3.9720   -9.9880   14.9250 C.3    70  PHE70       0.1605
     53  C          3.3960   -9.1010   13.8180 C.2    70  PHE70       0.2264
     54  O          4.1590   -8.4680   13.0410 O.2    70  PHE70      -0.2867
     55  CB         4.9170   -9.1550   15.8290 C.3    70  PHE70       0.0534
     56  CG         4.2470   -7.8920   16.4200 C.ar   70  PHE70      -0.0203
     57  CD1        3.1850   -7.9780   17.2780 C.ar   70  PHE70      -0.0042
     58  CD2        4.7760   -6.6180   16.1750 C.ar   70  PHE70      -0.0042
     59  CE1        2.5630   -6.8510   17.7970 C.ar   70  PHE70      -0.0003
     60  CE2        4.1690   -5.4800   16.7210 C.ar   70  PHE70      -0.0003
     61  CZ         3.0510   -5.6060   17.5330 C.ar   70  PHE70      -0.0000
     62  N          1.3370   -5.7830   12.6920 N.3    72  TYR72      -0.1241
     63  CA         1.1000   -4.4690   13.3620 C.3    72  TYR72       0.1605
     64  C          0.6210   -3.4540   12.3300 C.2    72  TYR72       0.2264
     65  O          1.2510   -3.2240   11.2920 O.2    72  TYR72      -0.2867
     66  CB         2.4420   -4.0260   14.0650 C.3    72  TYR72       0.0534
     67  CG         2.3590   -2.6150   14.6930 C.ar   72  TYR72      -0.0201
     68  CD1        1.2530   -2.2320   15.4920 C.ar   72  TYR72      -0.0009
     69  CD2        3.4340   -1.6740   14.5500 C.ar   72  TYR72      -0.0009
     70  CE1        1.1910   -0.9440   16.0970 C.ar   72  TYR72       0.0417
     71  CE2        3.4070   -0.4010   15.1620 C.ar   72  TYR72       0.0417
     72  CZ         2.2630   -0.0530   15.9130 C.ar   72  TYR72       0.1957
     73  OH         2.2050    1.1530   16.4580 O.3    72  TYR72      -0.2866
     74  N          0.9480  -14.2510   15.2450 N.3   103  TYR103     -0.1241
     75  CA         0.2580  -14.6390   16.4540 C.3   103  TYR103      0.1605
     76  C         -0.7870  -13.6330   16.8890 C.2   103  TYR103      0.2264
     77  O         -1.6040  -13.9690   17.7810 O.2   103  TYR103     -0.2867
     78  CB         1.1850  -14.8700   17.6800 C.3   103  TYR103      0.0534
     79  CG         1.8510  -13.6410   18.2870 C.ar  103  TYR103     -0.0201
     80  CD1        1.3370  -13.0600   19.4790 C.ar  103  TYR103     -0.0009
     81  CD2        3.0090  -13.0680   17.7110 C.ar  103  TYR103     -0.0009
     82  CE1        1.9440  -11.9570   20.1000 C.ar  103  TYR103      0.0417
     83  CE2        3.5850  -11.9540   18.3170 C.ar  103  TYR103      0.0417
     84  CZ         3.0730  -11.4400   19.4910 C.ar  103  TYR103      0.1957
     85  OH         3.5830  -10.3870   20.2000 O.3   103  TYR103     -0.2866
     86  N         -2.1780   -6.3780   15.7800 N.3   106  ARG106     -0.1245
     87  CA        -2.3500   -5.2550   16.7380 C.3   106  ARG106      0.1563
     88  C         -2.5930   -3.9690   15.9160 C.2   106  ARG106      0.2260
     89  O         -1.9080   -3.7630   14.9440 O.2   106  ARG106     -0.2867
     90  CB        -1.0290   -5.0600   17.4980 C.3   106  ARG106      0.0307
     91  CG        -1.0640   -3.7650   18.3520 C.3   106  ARG106      0.0489
     92  CD         0.0660   -3.8030   19.3650 C.3   106  ARG106      0.2205
     93  NE        -0.1710   -4.7910   20.3820 N.pl3 106  ARG106     -0.0865
     94  CZ         0.7710   -5.3420   21.1630 C.cat 106  ARG106      0.5346
     95  NH1        2.0710   -4.8340   21.1030 N.pl3 106  ARG106      0.1354
     96  NH2        0.4710   -6.2820   22.0370 N.pl3 106  ARG106      0.1354
     97  N          3.4550    0.5060   22.1450 N.3   142  ILE142     -0.1231
     98  CA         4.5020    0.8300   21.1790 C.3   142  ILE142      0.1692
     99  C          4.4930    2.3500   20.9630 C.2   142  ILE142      0.2591
    100  O          5.5280    2.9850   21.0720 O.2   142  ILE142     -0.2718
    101  CB         4.2590    0.1040   19.8520 C.3   142  ILE142      0.0266
    102  CG1        4.4700   -1.4310   20.0950 C.3   142  ILE142      0.0019
    103  CG2        5.2910    0.5810   18.8090 C.3   142  ILE142      0.0020
    104  CD1        3.9060   -2.2660   18.9430 C.3   142  ILE142      0.0001
    105  N          3.3180    2.9330   20.6290 N.am  143  GLN143     -0.1979
    106  CA         3.2380    4.4090   20.5050 C.3   143  GLN143      0.1601
    107  C          2.7090    4.9710   21.7940 C.2   143  GLN143      0.2287
    108  O          1.9290    4.3540   22.5060 O.2   143  GLN143     -0.2864
    109  CB         2.2210    4.7770   19.4090 C.3   143  GLN143      0.0394
    110  CG         2.4330    4.0820   18.0860 C.3   143  GLN143      0.0908
    111  CD         3.7820    4.2760   17.4350 C.2   143  GLN143      0.2608
    112  OE1        4.4000    5.3470   17.5480 O.2   143  GLN143     -0.2717
    113  NE2        4.1820    3.2770   16.6120 N.am  143  GLN143     -0.0878
    114  N         17.7180    6.3270   15.7810 N.3   211  ARG211     -0.1245
    115  CA        17.6610    5.5430   14.5580 C.3   211  ARG211      0.1563
    116  C         18.8080    5.9490   13.6060 C.2   211  ARG211      0.2260
    117  O         19.2960    7.1070   13.6770 O.2   211  ARG211     -0.2867
    118  CB        16.3370    5.9180   13.8650 C.3   211  ARG211      0.0307
    119  CG        15.1770    5.4850   14.7870 C.3   211  ARG211      0.0489
    120  CD        13.8710    5.6470   13.9580 C.3   211  ARG211      0.2205
    121  NE        12.6190    5.2820   14.7360 N.pl3 211  ARG211     -0.0865
    122  CZ        12.1240    4.0410   14.7270 C.cat 211  ARG211      0.5346
    123  NH1       12.7970    3.0280   14.1870 N.pl3 211  ARG211      0.1354
    124  NH2       11.0010    3.8270   15.4260 N.pl3 211  ARG211      0.1354
    125  N         17.1550    5.5080    7.9090 N.3   215  TYR215     -0.1241
    126  CA        15.6510    5.4590    8.2350 C.3   215  TYR215      0.1605
    127  C         15.0320    6.7150    7.6630 C.2   215  TYR215      0.2264
    128  O         14.0030    6.6720    6.9730 O.2   215  TYR215     -0.2867
    129  CB        15.5240    5.4330    9.7280 C.3   215  TYR215      0.0534
    130  CG        14.1090    5.2570   10.2520 C.ar  215  TYR215     -0.0201
    131  CD1       13.5380    3.9850   10.3870 C.ar  215  TYR215     -0.0009
    132  CD2       13.3530    6.3940   10.5020 C.ar  215  TYR215     -0.0009
    133  CE1       12.2440    3.8540   10.9380 C.ar  215  TYR215      0.0417
    134  CE2       12.0480    6.2860   11.0840 C.ar  215  TYR215      0.0417
    135  CZ        11.5530    4.9720   11.2450 C.ar  215  TYR215      0.1957
    136  OH        10.3070    4.7140   11.7830 O.3   215  TYR215     -0.2866
    137  N          4.3890  -13.8200   24.8020 N.3   332  LEU332     -0.1231
    138  CA         5.0320  -12.5570   24.3340 C.3   332  LEU332      0.1693
    139  C          4.3850  -11.2800   24.8520 C.2   332  LEU332      0.2591
    140  O          5.0500  -10.2420   24.7470 O.2   332  LEU332     -0.2718
    141  CB         5.0640  -12.4740   22.8160 C.3   332  LEU332      0.0284
    142  CG         5.8800  -13.6020   22.1460 C.3   332  LEU332      0.0019
    143  CD1        5.9510  -13.3680   20.6550 C.3   332  LEU332      0.0001
    144  CD2        7.2840  -13.6960   22.8090 C.3   332  LEU332      0.0001
    145  N          3.1480  -11.3250   25.3540 N.am  333  VAL333     -0.1980
    146  CA         2.4370  -10.0960   25.6940 C.3   333  VAL333      0.1595
    147  C          1.9530  -10.1830   27.1350 C.2   333  VAL333      0.2287
    148  O          1.3950  -11.1980   27.5620 O.2   333  VAL333     -0.2864
    149  CB         1.2420   -9.9230   24.7500 C.3   333  VAL333      0.0276
    150  CG1        0.4670   -8.6660   25.1430 C.3   333  VAL333      0.0022
    151  CG2        1.7400   -9.8160   23.3370 C.3   333  VAL333      0.0022
@<TRIPOS>BOND
     1    21    20    2
     2    20    19    1
     3     4     3    2
     4     1     2    1
     5     3     2    1
     6   128   127    2
     7    10    11    1
     8   127   126    1
     9     2     5    1
    10    11    12    1
    11    11    14    1
    12    18    19    1
    13    18    12   am
    14   125   126    1
    15    19    22    1
    16   126   129    1
    17    12    13    2
    18     5     6    1
    19    22    23    1
    20    14    15    1
    21     6     7    1
    22    16    15    2
    23   129   130    1
    24    15    17   am
    25    23    24   ar
    26    23    25   ar
    27   130   131   ar
    28   130   132   ar
    29   131   133   ar
    30    24    26   ar
    31   132   134   ar
    32     7     8    1
    33   133   135   ar
    34    43    41   ar
    35   134   135   ar
    36   135   136    1
    37    65    64    2
    38    42    41   ar
    39    25    28   ar
    40    25    27   ar
    41     8     9    1
    42    32    33    1
    43    41    40    1
    44    28    30   ar
    45    26    27   ar
    46    33    34    1
    47    64    63    1
    48    27    29   ar
    49    62    63    1
    50    34    36   am
    51    34    35    2
    52    36    37    1
    53    54    53    2
    54    30    31   ar
    55    40    37    1
    56    63    66    1
    57    37    38    1
    58   116   117    2
    59   116   115    1
    60    53    52    1
    61    29    31   ar
    62   118   115    1
    63   118   119    1
    64   120   121    1
    65   120   119    1
    66    66    67    1
    67   123   122    1
    68    51    52    1
    69    69    67   ar
    70    69    71   ar
    71   115   114    1
    72    67    68   ar
    73   122   121    2
    74   122   124    1
    75    52    55    1
    76    89    88    2
    77    38    44   am
    78    38    39    2
    79    71    72   ar
    80    74    75    1
    81    68    70   ar
    82    44    45    1
    83    86    87    1
    84    55    56    1
    85    72    70   ar
    86    72    73    1
    87    88    87    1
    88    58    56   ar
    89    58    60   ar
    90    56    57   ar
    91    75    76    1
    92    75    78    1
    93    47    46    2
    94   113   111   am
    95    60    61   ar
    96    87    90    1
    97    76    77    2
    98    50    48    1
    99    45    46    1
   100    45    48    1
   101    49    48    1
   102    57    59   ar
   103   111   112    2
   104   111   110    1
   105    90    91    1
   106    61    59   ar
   107    78    79    1
   108    81    79   ar
   109    81    83   ar
   110   110   109    1
   111    79    80   ar
   112    83    84   ar
   113    91    92    1
   114   103   101    1
   115   104   102    1
   116    92    93    1
   117   109   106    1
   118    80    82   ar
   119    84    82   ar
   120    84    85    1
   121   101   102    1
   122   101    98    1
   123    93    94    2
   124   106   105    1
   125   106   107    1
   126   105    99   am
   127   143   142    1
   128    99   100    2
   129    99    98    1
   130    95    94    1
   131    94    96    1
   132    98    97    1
   133   107   108    2
   134   142   144    1
   135   142   141    1
   136   141   138    1
   137   151   149    1
   138   138   137    1
   139   138   139    1
   140   140   139    2
   141   149   150    1
   142   149   146    1
   143   139   145   am
   144   145   146    1
   145   146   147    1
   146   147   148    2
