@<TRIPOS>MOLECULE
tmp/4ii9A02.pdb
 96 96 0 0 0
SMALL
GASTEIGER

@<TRIPOS>ATOM
      1  N          9.9230    1.3200    6.9080 N.3    36  LYS36      -0.1245
      2  CA        10.0890    0.1010    7.7930 C.3    36  LYS36       0.1561
      3  C         10.5140   -1.1050    6.9550 C.2    36  LYS36       0.2260
      4  O          9.8100   -2.1060    6.8500 O.2    36  LYS36      -0.2867
      5  CB         8.7950   -0.2540    8.5190 C.3    36  LYS36       0.0271
      6  CG         8.2270    0.8720    9.3570 C.3    36  LYS36       0.0035
      7  CD         9.0320    1.0300   10.6320 C.3    36  LYS36       0.0206
      8  CE         8.3480    2.1030   11.5660 C.3    36  LYS36       0.1093
      9  NZ         9.2010    2.3100   12.7940 N.3    36  LYS36      -0.1314
     10  N         12.6640   -3.4210    7.1370 N.3    38  ASN38      -0.1225
     11  CA        12.9220   -4.6070    7.8050 C.3    38  ASN38       0.1785
     12  C         11.6720   -5.3410    8.2480 C.2    38  ASN38       0.2597
     13  O         11.7870   -6.3840    8.9440 O.2    38  ASN38      -0.2718
     14  CB        13.8750   -4.3130    9.0440 C.3    38  ASN38       0.1169
     15  CG        13.3280   -3.2420   10.0180 C.2    38  ASN38       0.2627
     16  OD1       12.7180   -2.2500    9.5620 O.2    38  ASN38      -0.2716
     17  ND2       13.5410   -3.4340   11.3160 N.am   38  ASN38      -0.0877
     18  N         10.5010   -4.8090    7.8110 N.am   39  TRP39      -0.1976
     19  CA         9.2000   -5.4960    8.0910 C.3    39  TRP39       0.1640
     20  C          8.6000   -5.8840    6.8000 C.2    39  TRP39       0.2290
     21  O          8.9030   -5.3100    5.7330 O.2    39  TRP39      -0.2864
     22  CB         8.2530   -4.5030    8.8100 C.3    39  TRP39       0.0576
     23  CG         8.7460   -4.1090   10.1760 C.ar   39  TRP39       0.0006
     24  CD1        9.9020   -3.3410   10.4790 C.ar   39  TRP39       0.0946
     25  CD2        8.0780   -4.3720   11.4460 C.ar   39  TRP39       0.0152
     26  NE1       10.0260   -3.2310   11.8630 N.ar   39  TRP39      -0.2442
     27  CE2        8.9020   -3.7820   12.4900 C.ar   39  TRP39       0.0810
     28  CE3        6.8460   -5.0040   11.8050 C.ar   39  TRP39       0.0012
     29  CZ2        8.5510   -3.8800   13.8540 C.ar   39  TRP39       0.0191
     30  CZ3        6.5250   -5.1200   13.1370 C.ar   39  TRP39       0.0001
     31  CH2        7.3430   -4.5240   14.1670 C.ar   39  TRP39       0.0015
     32  N          6.1010    3.5750   27.4710 N.3   139  HIS139     -0.1241
     33  CA         6.4360    2.4820   26.5470 C.3   139  HIS139      0.1621
     34  C          5.6630    1.2210   26.8460 C.2   139  HIS139      0.2264
     35  O          5.9910    0.1480   26.3230 O.2   139  HIS139     -0.2867
     36  CB         7.9280    2.2150   26.5440 C.3   139  HIS139      0.0745
     37  CG         8.7040    3.3830   26.0280 C.ar  139  HIS139      0.0817
     38  ND1        8.7870    3.6740   24.7130 N.ar  139  HIS139     -0.2268
     39  CD2        9.4820    4.3360   26.6980 C.ar  139  HIS139      0.1154
     40  CE1        9.6110    4.7710   24.5400 C.ar  139  HIS139      0.1986
     41  NE2       10.0320    5.1650   25.7390 N.ar  139  HIS139     -0.2212
     42  N          3.4550    0.5060   22.1450 N.3   142  ILE142     -0.1245
     43  CA         4.5020    0.8300   21.1790 C.3   142  ILE142      0.1561
     44  C          4.4930    2.3500   20.9630 C.2   142  ILE142      0.2260
     45  O          5.5280    2.9850   21.0720 O.2   142  ILE142     -0.2867
     46  CB         4.2590    0.1040   19.8520 C.3   142  ILE142      0.0252
     47  CG1        4.4700   -1.4310   20.0950 C.3   142  ILE142      0.0019
     48  CG2        5.2910    0.5810   18.8090 C.3   142  ILE142      0.0019
     49  CD1        3.9060   -2.2660   18.9430 C.3   142  ILE142      0.0001
     50  N         20.0320   15.5030   15.9830 N.3   199  TYR199     -0.1241
     51  CA        19.3270   14.3460   16.4980 C.3   199  TYR199      0.1605
     52  C         20.3270   13.4270   17.2410 C.2   199  TYR199      0.2264
     53  O         20.0510   12.9960   18.3330 O.2   199  TYR199     -0.2867
     54  CB        18.7330   13.5990   15.2450 C.3   199  TYR199      0.0534
     55  CG        18.0320   12.2920   15.5420 C.ar  199  TYR199     -0.0201
     56  CD1       16.8460   12.2340   16.2890 C.ar  199  TYR199     -0.0009
     57  CD2       18.5840   11.0980   15.0190 C.ar  199  TYR199     -0.0009
     58  CE1       16.2030   11.0370   16.5130 C.ar  199  TYR199      0.0417
     59  CE2       17.9300    9.8940   15.2410 C.ar  199  TYR199      0.0417
     60  CZ        16.7450    9.8730   15.9710 C.ar  199  TYR199      0.1957
     61  OH        16.1070    8.6990   16.2530 O.3   199  TYR199     -0.2866
     62  N         18.1660    5.8980   22.8980 N.3   209  THR209     -0.1203
     63  CA        18.5070    5.3000   21.6350 C.3   209  THR209      0.1994
     64  C         18.0000    6.1530   20.4580 C.2   209  THR209      0.2618
     65  O         17.1670    7.0750   20.6460 O.2   209  THR209     -0.2717
     66  CB        18.0340    3.8450   21.5500 C.3   209  THR209      0.1784
     67  OG1       16.5860    3.8060   21.6820 O.3   209  THR209     -0.2211
     68  CG2       18.6560    3.0370   22.6730 C.3   209  THR209      0.0376
     69  N         18.5530    5.8680   19.2760 N.am  210  HIS210     -0.1961
     70  CA        18.3460    6.7370   18.0740 C.3   210  HIS210      0.1787
     71  C         18.4170    5.9070   16.8440 C.2   210  HIS210      0.2620
     72  O         19.1170    4.8620   16.8060 O.2   210  HIS210     -0.2715
     73  CB        19.4200    7.8810   18.0350 C.3   210  HIS210      0.0785
     74  CG        20.8660    7.3600   18.2150 C.ar  210  HIS210      0.0821
     75  ND1       21.3710    6.9880   19.4080 N.ar  210  HIS210     -0.2267
     76  CD2       21.8650    7.1330   17.2680 C.ar  210  HIS210      0.1154
     77  CE1       22.6600    6.4730   19.2150 C.ar  210  HIS210      0.1986
     78  NE2       22.9320    6.6020   17.9080 N.ar  210  HIS210     -0.2212
     79  N         17.7180    6.3270   15.7810 N.am  211  ARG211     -0.1964
     80  CA        17.6610    5.5430   14.5580 C.3   211  ARG211      0.1714
     81  C         18.8080    5.9490   13.6060 C.2   211  ARG211      0.2462
     82  O         19.2960    7.1070   13.6770 O.2   211  ARG211     -0.2730
     83  CB        16.3370    5.9180   13.8650 C.3   211  ARG211      0.0347
     84  CG        15.1770    5.4850   14.7870 C.3   211  ARG211      0.0492
     85  CD        13.8710    5.6470   13.9580 C.3   211  ARG211      0.2205
     86  NE        12.6190    5.2820   14.7360 N.pl3 211  ARG211     -0.0865
     87  CZ        12.1240    4.0410   14.7270 C.cat 211  ARG211      0.5346
     88  NH1       12.7970    3.0280   14.1870 N.pl3 211  ARG211      0.1354
     89  NH2       11.0010    3.8270   15.4260 N.pl3 211  ARG211      0.1354
     90  N         19.2050    5.1040   12.6690 N.am  212  PRO212     -0.2651
     91  CA        20.3150    5.4250   11.7630 C.3   212  PRO212      0.1628
     92  C         19.8400    6.3720   10.6920 C.2   212  PRO212      0.2315
     93  O         18.6060    6.4930   10.4660 O.2   212  PRO212     -0.2861
     94  CB        20.6770    4.0440   11.0930 C.2   212  PRO212     -0.0016
     95  CG        19.8160    3.0620   11.7170 C.2   212  PRO212     -0.0072
     96  CD        18.7890    3.6830   12.5550 C.3   212  PRO212      0.1203
@<TRIPOS>BOND
     1    21    20    2
     2    20    19    1
     3     4     3    2
     4     1     2    1
     5     3     2    1
     6    10    11    1
     7     2     5    1
     8    11    12    1
     9    11    14    1
    10    18    19    1
    11    18    12   am
    12    19    22    1
    13    12    13    2
    14     5     6    1
    15    22    23    1
    16    14    15    1
    17     6     7    1
    18    16    15    2
    19    15    17   am
    20    23    24   ar
    21    23    25   ar
    22    93    92    2
    23    24    26   ar
    24     7     8    1
    25    92    91    1
    26    94    95    2
    27    94    91    1
    28    25    28   ar
    29    25    27   ar
    30     8     9    1
    31    95    96    1
    32    91    90    1
    33    28    30   ar
    34    26    27   ar
    35    27    29   ar
    36    96    90    1
    37    90    81   am
    38    30    31   ar
    39    81    82    2
    40    81    80    1
    41    29    31   ar
    42    83    80    1
    43    83    84    1
    44    85    86    1
    45    85    84    1
    46    88    87    1
    47    80    79    1
    48    87    86    2
    49    87    89    1
    50    57    59   ar
    51    57    55   ar
    52    59    60   ar
    53    54    55    1
    54    54    51    1
    55    55    56   ar
    56    79    71   am
    57    60    61    1
    58    60    58   ar
    59    50    51    1
    60    56    58   ar
    61    51    52    1
    62    72    71    2
    63    71    70    1
    64    52    53    2
    65    76    78   ar
    66    76    74   ar
    67    78    77   ar
    68    73    70    1
    69    73    74    1
    70    70    69    1
    71    74    75   ar
    72    48    46    1
    73    49    47    1
    74    77    75   ar
    75    69    64   am
    76    46    47    1
    77    46    43    1
    78    64    65    2
    79    64    63    1
    80    44    45    2
    81    44    43    1
    82    43    42    1
    83    66    63    1
    84    66    67    1
    85    66    68    1
    86    63    62    1
    87    40    38   ar
    88    40    41   ar
    89    38    37   ar
    90    41    39   ar
    91    37    36    1
    92    37    39   ar
    93    35    34    2
    94    36    33    1
    95    33    34    1
    96    33    32    1
