@<TRIPOS>MOLECULE
tmp/4ii9A00.pdb
 216 212 0 0 0
SMALL
GASTEIGER

@<TRIPOS>ATOM
      1  N          5.2070    5.2830   29.5230 N.3   138  MET138     -0.1230
      2  CA         4.8690    5.6400   28.1530 C.3   138  MET138      0.1702
      3  C          5.1120    4.4460   27.1570 C.2   138  MET138      0.2592
      4  O          4.4030    4.3210   26.1150 O.2   138  MET138     -0.2718
      5  CB         5.7220    6.8740   27.7690 C.3   138  MET138      0.0401
      6  CG         5.2810    7.4650   26.4170 C.3   138  MET138      0.0596
      7  SD         6.3420    8.8600   25.9650 S.3   138  MET138     -0.1393
      8  CE         7.8980    8.0280   25.5620 C.3   138  MET138      0.0692
      9  N          6.1010    3.5750   27.4710 N.am  139  HIS139     -0.1976
     10  CA         6.4360    2.4820   26.5470 C.3   139  HIS139      0.1656
     11  C          5.6630    1.2210   26.8460 C.2   139  HIS139      0.2291
     12  O          5.9910    0.1480   26.3230 O.2   139  HIS139     -0.2864
     13  CB         7.9280    2.2150   26.5440 C.3   139  HIS139      0.0771
     14  CG         8.7040    3.3830   26.0280 C.ar  139  HIS139      0.0820
     15  ND1        8.7870    3.6740   24.7130 N.ar  139  HIS139     -0.2267
     16  CD2        9.4820    4.3360   26.6980 C.ar  139  HIS139      0.1154
     17  CE1        9.6110    4.7710   24.5400 C.ar  139  HIS139      0.1986
     18  NE2       10.0320    5.1650   25.7390 N.ar  139  HIS139     -0.2212
     19  N          3.1690    6.1540   22.1800 N.3   144  PRO144     -0.2116
     20  CA         2.5480    6.7900   23.3620 C.3   144  PRO144      0.1372
     21  C          1.0280    6.8950   23.1840 C.2   144  PRO144      0.2244
     22  O          0.5440    7.3160   22.1410 O.2   144  PRO144     -0.2868
     23  CB         3.1900    8.1980   23.4020 C.3   144  PRO144      0.0268
     24  CG         4.5280    8.0160   22.5980 C.3   144  PRO144      0.0207
     25  CD         4.2350    6.9430   21.5290 C.3   144  PRO144      0.0892
     26  N         20.0320   15.5030   15.9830 N.3   199  TYR199     -0.1241
     27  CA        19.3270   14.3460   16.4980 C.3   199  TYR199      0.1605
     28  C         20.3270   13.4270   17.2410 C.2   199  TYR199      0.2264
     29  O         20.0510   12.9960   18.3330 O.2   199  TYR199     -0.2867
     30  CB        18.7330   13.5990   15.2450 C.3   199  TYR199      0.0534
     31  CG        18.0320   12.2920   15.5420 C.ar  199  TYR199     -0.0201
     32  CD1       16.8460   12.2340   16.2890 C.ar  199  TYR199     -0.0009
     33  CD2       18.5840   11.0980   15.0190 C.ar  199  TYR199     -0.0009
     34  CE1       16.2030   11.0370   16.5130 C.ar  199  TYR199      0.0417
     35  CE2       17.9300    9.8940   15.2410 C.ar  199  TYR199      0.0417
     36  CZ        16.7450    9.8730   15.9710 C.ar  199  TYR199      0.1957
     37  OH        16.1070    8.6990   16.2530 O.3   199  TYR199     -0.2866
     38  N         21.4230   15.2560   20.5060 N.3   202  MET202     -0.1245
     39  CA        20.4170   15.1710   21.5290 C.3   202  MET202      0.1570
     40  C         20.3350   13.7380   22.1020 C.2   202  MET202      0.2261
     41  O         20.2220   13.5590   23.3180 O.2   202  MET202     -0.2867
     42  CB        19.1140   15.7260   20.8950 C.3   202  MET202      0.0387
     43  CG        17.7380   15.1840   21.0780 C.3   202  MET202      0.0595
     44  SD        17.2900   13.5260   21.4630 S.3   202  MET202     -0.1393
     45  CE        16.6400   12.7990   19.9300 C.3   202  MET202      0.0692
     46  N         23.1170   13.2180   24.4900 N.3   205  ARG205     -0.1231
     47  CA        22.8900   14.0230   25.6860 C.3   205  ARG205      0.1694
     48  C         21.8400   13.4590   26.6250 C.2   205  ARG205      0.2592
     49  O         21.9820   13.4720   27.8500 O.2   205  ARG205     -0.2718
     50  CB        22.5810   15.4740   25.3180 C.3   205  ARG205      0.0321
     51  CG        22.2050   16.3800   26.4920 C.3   205  ARG205      0.0489
     52  CD        22.0380   17.7970   25.9060 C.3   205  ARG205      0.2205
     53  NE        20.7170   17.9590   25.2640 N.pl3 205  ARG205     -0.0865
     54  CZ        20.6110   18.2330   23.9390 C.cat 205  ARG205      0.5346
     55  NH1       21.6870   18.3140   23.1550 N.pl3 205  ARG205      0.1354
     56  NH2       19.4400   18.3380   23.3750 N.pl3 205  ARG205      0.1354
     57  N         20.7590   12.9040   26.0530 N.am  206  HIS206     -0.1976
     58  CA        19.7010   12.3390   26.8740 C.3   206  HIS206      0.1656
     59  C         19.9220   10.8980   27.2510 C.2   206  HIS206      0.2291
     60  O         19.1500   10.3460   28.0560 O.2   206  HIS206     -0.2864
     61  CB        18.3620   12.4570   26.1220 C.3   206  HIS206      0.0771
     62  CG        17.8520   13.8450   25.9910 C.ar  206  HIS206      0.0820
     63  ND1       17.7730   14.7040   27.0560 N.ar  206  HIS206     -0.2267
     64  CD2       17.3560   14.5310   24.8840 C.ar  206  HIS206      0.1154
     65  CE1       17.2550   15.8870   26.6330 C.ar  206  HIS206      0.1986
     66  NE2       16.9860   15.7760   25.3010 N.ar  206  HIS206     -0.2212
     67  N         19.4920    8.3960   25.2340 N.3   208  ILE208     -0.1245
     68  CA        18.3670    7.5270   24.6540 C.3   208  ILE208      0.1561
     69  C         18.8540    6.9380   23.3520 C.2   208  ILE208      0.2260
     70  O         19.8470    7.3960   22.7460 O.2   208  ILE208     -0.2867
     71  CB        17.0640    8.3110   24.4980 C.3   208  ILE208      0.0252
     72  CG1       17.2740    9.5090   23.5630 C.3   208  ILE208      0.0019
     73  CG2       16.5850    8.6980   25.8920 C.3   208  ILE208      0.0019
     74  CD1       16.0570   10.3880   23.2980 C.3   208  ILE208      0.0001
     75  N          4.4140   16.6870   14.3990 N.3   254  TYR254     -0.1227
     76  CA         5.8350   16.9260   14.7700 C.3   254  TYR254      0.1736
     77  C          6.3410   15.5880   15.2500 C.2   254  TYR254      0.2595
     78  O          5.9650   15.1840   16.3250 O.2   254  TYR254     -0.2718
     79  CB         5.8380   18.0080   15.8400 C.3   254  TYR254      0.0548
     80  CG         7.0180   18.0280   16.7500 C.ar  254  TYR254     -0.0200
     81  CD1        8.3060   18.1060   16.2450 C.ar  254  TYR254     -0.0009
     82  CD2        6.8330   17.9440   18.1240 C.ar  254  TYR254     -0.0009
     83  CE1        9.4080   18.1060   17.1380 C.ar  254  TYR254      0.0417
     84  CE2        7.9010   17.8800   19.0170 C.ar  254  TYR254      0.0417
     85  CZ         9.1690   17.9970   18.5280 C.ar  254  TYR254      0.1957
     86  OH        10.1430   17.9610   19.5230 O.3   254  TYR254     -0.2866
     87  N          7.2040   14.9480   14.4290 N.am  255  MET255     -0.1965
     88  CA         7.5450   13.5370   14.6590 C.3   255  MET255      0.1736
     89  C          8.9220   13.2950   15.2690 C.2   255  MET255      0.2616
     90  O          9.0800   12.4050   16.1100 O.2   255  MET255     -0.2715
     91  CB         7.4900   12.7440   13.3560 C.3   255  MET255      0.0427
     92  CG         6.0900   12.6710   12.7850 C.3   255  MET255      0.0599
     93  SD         5.9610   11.4770   11.3960 S.3   255  MET255     -0.1393
     94  CE         7.1990   10.1990   12.0560 C.3   255  MET255      0.0692
     95  N          9.9040   14.0890   14.8160 N.am  256  TYR256     -0.1960
     96  CA        11.2930   13.9210   15.2720 C.3   256  TYR256      0.1771
     97  C         11.9270   15.2780   15.5080 C.2   256  TYR256      0.2619
     98  O         11.5070   16.2760   14.9020 O.2   256  TYR256     -0.2715
     99  CB        12.1100   13.1880   14.2130 C.3   256  TYR256      0.0574
    100  CG        11.8360   11.7050   14.2150 C.ar  256  TYR256     -0.0198
    101  CD1       10.9290   11.1460   13.3350 C.ar  256  TYR256     -0.0009
    102  CD2       12.4640   10.8730   15.1140 C.ar  256  TYR256     -0.0009
    103  CE1       10.6490    9.7810   13.3630 C.ar  256  TYR256      0.0417
    104  CE2       12.2190    9.5160   15.1240 C.ar  256  TYR256      0.0417
    105  CZ        11.2680    8.9750   14.2870 C.ar  256  TYR256      0.1957
    106  OH        11.0050    7.6100   14.2750 O.3   256  TYR256     -0.2866
    107  N         12.8980   15.3380   16.4030 N.am  257  ALA257     -0.1963
    108  CA        13.5520   16.6390   16.6360 C.3   257  ALA257      0.1728
    109  C         14.9470   16.4250   17.1730 C.2   257  ALA257      0.2617
    110  O         15.2230   15.3170   17.6650 O.2   257  ALA257     -0.2715
    111  CB        12.8080   17.4830   17.6070 C.3   257  ALA257      0.0334
    112  N         15.8140   17.4250   16.9600 N.am  258  GLY258     -0.1940
    113  CA        17.1030   17.3690   17.7510 C.3   258  GLY258      0.2014
    114  C         17.5090   18.7780   18.1200 C.2   258  GLY258      0.2639
    115  O         16.9110   19.7360   17.6730 O.2   258  GLY258     -0.2714
    116  N         18.4320   18.8890   19.0620 N.am  259  SER259     -0.1949
    117  CA        18.9540   20.2180   19.4090 C.3   259  SER259      0.1924
    118  C         20.3840   20.0230   19.8690 C.2   259  SER259      0.2314
    119  O         20.7270   18.9760   20.3890 O.2   259  SER259     -0.2863
    120  CB        18.1220   20.9110   20.5020 C.3   259  SER259      0.2116
    121  OG        18.0600   20.1030   21.6810 O.3   259  SER259     -0.2180
    122  N         23.9710   22.8770   25.2100 N.3   262  GLY262     -0.1210
    123  CA        24.0580   24.1840   25.8640 C.3   262  GLY262      0.1956
    124  C         22.9330   25.0720   25.3680 C.2   262  GLY262      0.2612
    125  O         21.7980   24.6290   25.2660 O.2   262  GLY262     -0.2717
    126  N         23.2500   26.3270   25.1440 N.am  263  ASN263     -0.1960
    127  CA        22.1920   27.3260   24.8910 C.3   263  ASN263      0.1819
    128  C         21.6430   27.2490   23.4660 C.2   263  ASN263      0.2621
    129  O         22.3680   27.3910   22.5000 O.2   263  ASN263     -0.2715
    130  CB        22.7940   28.6630   25.0920 C.3   263  ASN263      0.1195
    131  CG        21.8040   29.8250   24.8910 C.2   263  ASN263      0.2630
    132  OD1       20.5630   29.7310   24.9310 O.2   263  ASN263     -0.2716
    133  ND2       22.3930   30.9560   24.6650 N.am  263  ASN263     -0.0877
    134  N         20.3380   27.0450   23.3430 N.am  264  THR264     -0.1951
    135  CA        19.7660   26.8880   22.0010 C.3   264  THR264      0.1897
    136  C         18.9130   28.1520   21.6780 C.2   264  THR264      0.2313
    137  O         18.2930   28.2010   20.6380 O.2   264  THR264     -0.2863
    138  CB        18.7840   25.6910   22.0030 C.3   264  THR264      0.1794
    139  OG1       17.7140   25.9530   22.8860 O.3   264  THR264     -0.2208
    140  CG2       19.3750   24.3890   22.5060 C.3   264  THR264      0.0378
    141  N         16.2280   29.3080   22.6430 N.3   266  TYR266     -0.1241
    142  CA        14.7820   28.9380   22.4430 C.3   266  TYR266      0.1605
    143  C         14.4660   28.5430   21.0340 C.2   266  TYR266      0.2264
    144  O         13.2770   28.6070   20.6160 O.2   266  TYR266     -0.2867
    145  CB        13.8550   30.0790   22.9180 C.3   266  TYR266      0.0534
    146  CG        13.9030   30.2360   24.4140 C.ar  266  TYR266     -0.0201
    147  CD1       14.6970   31.2040   24.9790 C.ar  266  TYR266     -0.0009
    148  CD2       13.1140   29.4720   25.2690 C.ar  266  TYR266     -0.0009
    149  CE1       14.7480   31.3780   26.3480 C.ar  266  TYR266      0.0417
    150  CE2       13.1610   29.6640   26.6540 C.ar  266  TYR266      0.0417
    151  CZ        13.9860   30.6070   27.1390 C.ar  266  TYR266      0.1957
    152  OH        14.0110   30.8210   28.4870 O.3   266  TYR266     -0.2866
    153  N         13.9690   25.6980   19.7320 N.3   268  PRO268     -0.2116
    154  CA        12.8760   24.6740   19.6020 C.3   268  PRO268      0.1372
    155  C         11.5450   25.3260   19.5450 C.2   268  PRO268      0.2244
    156  O         10.6750   24.7990   18.8350 O.2   268  PRO268     -0.2868
    157  CB        13.0760   23.8240   20.8520 C.3   268  PRO268      0.0268
    158  CG        14.5940   23.7880   20.9780 C.3   268  PRO268      0.0207
    159  CD        14.9150   25.2740   20.7980 C.3   268  PRO268      0.0892
    160  N          1.7410   17.3190   18.5320 N.3   289  LEU289     -0.1231
    161  CA         3.1470   17.2950   19.0690 C.3   289  LEU289      0.1693
    162  C          3.4920   15.9560   19.6180 C.2   289  LEU289      0.2593
    163  O          4.6510   15.7110   20.0160 O.2   289  LEU289     -0.2718
    164  CB         3.3390   18.3340   20.1720 C.3   289  LEU289      0.0284
    165  CG         3.2240   19.7810   19.7010 C.3   289  LEU289      0.0019
    166  CD1        1.8000   20.3530   19.6820 C.3   289  LEU289      0.0001
    167  CD2        4.0470   20.6540   20.6850 C.3   289  LEU289      0.0001
    168  N          2.5690   15.0420   19.5680 N.am  290  GLY290     -0.1942
    169  CA         2.8850   13.6400   19.8500 C.3   290  GLY290      0.2014
    170  C          2.9990   13.3960   21.3680 C.2   290  GLY290      0.2639
    171  O          2.3980   14.0730   22.2210 O.2   290  GLY290     -0.2714
    172  N          3.7190   12.3450   21.6960 N.am  291  GLY291     -0.1954
    173  CA         3.4900   11.7300   22.9860 C.3   291  GLY291      0.1869
    174  C          4.0350   12.3610   24.2110 C.2   291  GLY291      0.2309
    175  O          5.0270   13.1010   24.1490 O.2   291  GLY291     -0.2863
    176  N          9.1590   16.0310   31.4200 N.3   300  SER300     -0.1202
    177  CA         9.7410   17.1750   30.6750 C.3   300  SER300      0.2020
    178  C          9.1220   17.2580   29.2470 C.2   300  SER300      0.2618
    179  O          9.1760   18.3270   28.6530 O.2   300  SER300     -0.2717
    180  CB        11.2530   17.1270   30.6270 C.3   300  SER300      0.2103
    181  OG        11.6130   15.8570   30.1210 O.3   300  SER300     -0.2182
    182  N          8.5700   16.1490   28.7380 N.am  301  LEU301     -0.1979
    183  CA         7.9400   16.1290   27.3940 C.3   301  LEU301      0.1596
    184  C          6.6330   16.9100   27.5220 C.2   301  LEU301      0.2287
    185  O          6.2480   17.7740   26.7070 O.2   301  LEU301     -0.2864
    186  CB         7.5930   14.6700   26.9780 C.3   301  LEU301      0.0297
    187  CG         8.7710   13.7530   26.6020 C.3   301  LEU301      0.0022
    188  CD1        8.2040   12.3800   26.2000 C.3   301  LEU301      0.0001
    189  CD2        9.5040   14.3160   25.4560 C.3   301  LEU301      0.0001
    190  N          6.0190   19.2720   29.8720 N.3   303  VAL303     -0.1231
    191  CA         6.3190   20.6920   30.1700 C.3   303  VAL303      0.1692
    192  C          6.5580   21.4930   28.8660 C.2   303  VAL303      0.2592
    193  O          5.9490   22.5580   28.6840 O.2   303  VAL303     -0.2718
    194  CB         7.4660   20.8140   31.1620 C.3   303  VAL303      0.0266
    195  CG1        8.0130   22.2210   31.2330 C.3   303  VAL303      0.0020
    196  CG2        6.9390   20.2540   32.5070 C.3   303  VAL303      0.0020
    197  N          7.2820   20.9080   27.9310 N.am  304  PHE304     -0.1962
    198  CA         7.5790   21.6040   26.6600 C.3   304  PHE304      0.1771
    199  C          6.3120   21.7000   25.8220 C.2   304  PHE304      0.2619
    200  O          5.9280   22.7900   25.4020 O.2   304  PHE304     -0.2715
    201  CB         8.6800   20.8990   25.9210 C.3   304  PHE304      0.0574
    202  CG         8.9640   21.4500   24.5240 C.ar  304  PHE304     -0.0200
    203  CD1        9.7820   22.5590   24.3570 C.ar  304  PHE304     -0.0042
    204  CD2        8.4400   20.8270   23.3670 C.ar  304  PHE304     -0.0042
    205  CE1       10.0370   23.0470   23.0600 C.ar  304  PHE304     -0.0003
    206  CE2        8.6790   21.3270   22.0600 C.ar  304  PHE304     -0.0003
    207  CZ         9.4910   22.4380   21.9100 C.ar  304  PHE304     -0.0000
    208  N          5.6040   20.5900   25.6990 N.am  305  LYS305     -0.1977
    209  CA         4.4340   20.5600   24.7740 C.3   305  LYS305      0.1596
    210  C          3.2370   21.3500   25.3080 C.2   305  LYS305      0.2287
    211  O          2.5050   21.8890   24.5120 O.2   305  LYS305     -0.2864
    212  CB         4.0550   19.1090   24.4420 C.3   305  LYS305      0.0298
    213  CG         5.2390   18.4270   23.7260 C.3   305  LYS305      0.0038
    214  CD         4.8620   16.9770   23.4140 C.3   305  LYS305      0.0206
    215  CE         6.1580   16.3090   22.8410 C.3   305  LYS305      0.1093
    216  NZ         5.8520   14.9490   22.3460 N.3   305  LYS305     -0.1314
@<TRIPOS>BOND
     1    93    94    1
     2    93    92    1
     3    92    91    1
     4   101   103   ar
     5   101   100   ar
     6    91    88    1
     7   103   105   ar
     8    99   100    1
     9    99    96    1
    10   100   102   ar
    11   106   105    1
    12   105   104   ar
    13    75    76    1
    14    87    88    1
    15    87    77   am
    16    88    89    1
    17    76    77    1
    18    76    79    1
    19    95    89   am
    20    95    96    1
    21    98    97    2
    22    33    35   ar
    23    33    31   ar
    24   102   104   ar
    25    35    36   ar
    26    30    31    1
    27    30    27    1
    28    77    78    2
    29    89    90    2
    30    96    97    1
    31    97   107   am
    32    31    32   ar
    33    79    80    1
    34    36    37    1
    35    36    34   ar
    36    26    27    1
    37    81    80   ar
    38    81    83   ar
    39    32    34   ar
    40   107   108    1
    41    27    28    1
    42   108   109    1
    43   108   111    1
    44    80    82   ar
    45   112   109   am
    46   112   113    1
    47    83    85   ar
    48   109   110    2
    49    28    29    2
    50   115   114    2
    51   113   114    1
    52   114   116   am
    53    82    84   ar
    54    85    84   ar
    55    85    86    1
    56   160   161    1
    57   156   155    2
    58   116   117    1
    59   161   162    1
    60   161   164    1
    61   117   118    1
    62   117   120    1
    63   155   154    1
    64   168   162   am
    65   168   169    1
    66   154   153    1
    67   154   157    1
    68   162   163    2
    69   166   165    1
    70   165   164    1
    71   165   167    1
    72   153   159    1
    73   169   170    1
    74   118   119    2
    75    45    44    1
    76   120   121    1
    77    38    39    1
    78   144   143    2
    79   137   136    2
    80   159   158    1
    81   157   158    1
    82    42    43    1
    83    42    39    1
    84   143   142    1
    85    43    44    1
    86   170   172   am
    87   170   171    2
    88    25    19    1
    89    25    24    1
    90    39    40    1
    91   136   135    1
    92   172   173    1
    93   207   206   ar
    94   207   205   ar
    95   135   138    1
    96   135   134    1
    97   138   140    1
    98   138   139    1
    99   206   204   ar
   100    40    41    2
   101    22    21    2
   102    19    20    1
   103   216   215    1
   104   142   141    1
   105   142   145    1
   106   129   128    2
   107    24    23    1
   108    70    69    2
   109   215   214    1
   110   145   146    1
   111   173   174    1
   112   205   203   ar
   113    55    54    1
   114    21    20    1
   115    74    72    1
   116   134   128   am
   117    69    68    1
   118    20    23    1
   119   204   202   ar
   120    56    54    1
   121   214   213    1
   122   128   127    1
   123    72    71    1
   124   213   212    1
   125    54    53    2
   126   175   174    2
   127   203   202   ar
   128   146   147   ar
   129   146   148   ar
   130   212   209    1
   131    46    47    1
   132    71    68    1
   133    71    73    1
   134   211   210    2
   135   202   201    1
   136    17    15   ar
   137    17    18   ar
   138    68    67    1
   139   133   131   am
   140    15    14   ar
   141   209   210    1
   142   209   208    1
   143    64    66   ar
   144    64    62   ar
   145   127   130    1
   146   127   126    1
   147   131   132    2
   148   131   130    1
   149   147   149   ar
   150   126   124   am
   151   122   123    1
   152    53    52    1
   153   125   124    2
   154   148   150   ar
   155    66    65   ar
   156    50    47    1
   157    50    51    1
   158   124   123    1
   159   200   199    2
   160   189   187    1
   161     8     7    1
   162    47    48    1
   163   208   199   am
   164    18    16   ar
   165   199   198    1
   166    52    51    1
   167   201   198    1
   168     7     6    1
   169    62    61    1
   170    62    63   ar
   171    14    13    1
   172    14    16   ar
   173    57    48   am
   174    57    58    1
   175     4     3    2
   176    61    58    1
   177   188   187    1
   178    12    11    2
   179   149   151   ar
   180     6     5    1
   181    13    10    1
   182    10    11    1
   183    10     9    1
   184   187   186    1
   185    48    49    2
   186    65    63   ar
   187   150   151   ar
   188   198   197    1
   189   185   184    2
   190    58    59    1
   191   186   183    1
   192   151   152    1
   193     3     9   am
   194     3     2    1
   195    59    60    2
   196   183   184    1
   197   183   182    1
   198     5     2    1
   199   197   192   am
   200     2     1    1
   201   179   178    2
   202   193   192    2
   203   182   178   am
   204   192   191    1
   205   178   177    1
   206   190   191    1
   207   181   180    1
   208   191   194    1
   209   180   177    1
   210   177   176    1
   211   194   195    1
   212   194   196    1
