@<TRIPOS>MOLECULE
tmp/4iibA04.pdb
 93 90 0 0 0
SMALL
GASTEIGER

@<TRIPOS>ATOM
      1  N         12.1010  -32.5740   30.0100 N.3   265  SER265     -0.1202
      2  CA        11.0260  -33.4020   30.5980 C.3   265  SER265      0.2020
      3  C         10.1120  -32.4640   31.3530 C.2   265  SER265      0.2619
      4  O         10.5060  -31.3850   31.7570 O.2   265  SER265     -0.2717
      5  CB        11.6220  -34.5020   31.5560 C.3   265  SER265      0.2103
      6  OG        12.1400  -33.8320   32.7690 O.3   265  SER265     -0.2182
      7  N          8.8480  -32.8830   31.6140 N.am  266  GLY266     -0.1956
      8  CA         7.9080  -32.0110   32.3500 C.3   266  GLY266      0.1869
      9  C          8.0810  -32.2620   33.8310 C.2   266  GLY266      0.2309
     10  O          8.6260  -31.4440   34.6130 O.2   266  GLY266     -0.2863
     11  N          8.7630  -27.8080   23.0320 N.3   282  ILE282     -0.1245
     12  CA         9.7300  -28.8850   23.1560 C.3   282  ILE282      0.1561
     13  C         10.8470  -28.7260   22.1300 C.2   282  ILE282      0.2260
     14  O         11.9960  -28.9050   22.4980 O.2   282  ILE282     -0.2867
     15  CB         8.9760  -30.2630   22.9780 C.3   282  ILE282      0.0252
     16  CG1        8.0940  -30.3770   24.2440 C.3   282  ILE282      0.0019
     17  CG2        9.9740  -31.4160   22.9010 C.3   282  ILE282      0.0019
     18  CD1        7.1860  -31.6680   24.2960 C.3   282  ILE282      0.0001
     19  N          4.5740  -26.7240   18.7010 N.3   287  ALA287     -0.1231
     20  CA         3.2260  -26.5910   19.1900 C.3   287  ALA287      0.1694
     21  C          2.9700  -27.5800   20.3850 C.2   287  ALA287      0.2593
     22  O          1.7840  -27.8830   20.7550 O.2   287  ALA287     -0.2718
     23  CB         2.1850  -26.7970   18.0040 C.3   287  ALA287      0.0304
     24  N          4.0460  -28.0680   20.9910 N.am  288  THR288     -0.1939
     25  CA         3.9560  -28.9370   22.1690 C.3   288  THR288      0.2028
     26  C          4.8820  -28.3220   23.2420 C.2   288  THR288      0.2643
     27  O          5.8010  -27.5790   22.8720 O.2   288  THR288     -0.2714
     28  CB         4.4430  -30.3690   21.8130 C.3   288  THR288      0.1808
     29  OG1        5.8360  -30.3390   21.4060 O.3   288  THR288     -0.2208
     30  CG2        3.5570  -30.9960   20.6630 C.3   288  THR288      0.0379
     31  N          4.6590  -28.6860   24.4980 N.am  289  SER289     -0.1935
     32  CA         5.5080  -28.1900   25.5900 C.3   289  SER289      0.2055
     33  C          5.6180  -29.2310   26.6320 C.2   289  SER289      0.2643
     34  O          4.6070  -29.9740   26.9240 O.2   289  SER289     -0.2714
     35  CB         4.7370  -26.9590   26.1380 C.3   289  SER289      0.2130
     36  OG         5.4670  -26.4550   27.2780 O.3   289  SER289     -0.2179
     37  N          6.7430  -29.2830   27.3390 N.am  290  PHE290     -0.1973
     38  CA         6.8200  -30.2320   28.4560 C.3   290  PHE290      0.1639
     39  C          5.9990  -29.6880   29.5870 C.2   290  PHE290      0.2290
     40  O          5.6430  -30.4050   30.4680 O.2   290  PHE290     -0.2864
     41  CB         8.2780  -30.3950   28.9300 C.3   290  PHE290      0.0560
     42  CG         9.1180  -31.2440   28.0460 C.ar  290  PHE290     -0.0200
     43  CD1        8.7510  -32.5560   27.8040 C.ar  290  PHE290     -0.0042
     44  CD2       10.3060  -30.7050   27.4130 C.ar  290  PHE290     -0.0042
     45  CE1        9.5370  -33.4160   26.9850 C.ar  290  PHE290     -0.0003
     46  CE2       11.0800  -31.5520   26.5960 C.ar  290  PHE290     -0.0003
     47  CZ        10.7090  -32.9180   26.3770 C.ar  290  PHE290     -0.0000
     48  N          0.0940  -26.7420   29.1830 N.3   293  THR293     -0.1203
     49  CA        -0.9300  -27.8310   29.3880 C.3   293  THR293      0.1994
     50  C         -0.4270  -29.0470   30.2060 C.2   293  THR293      0.2617
     51  O         -1.1120  -29.4000   31.2120 O.2   293  THR293     -0.2717
     52  CB        -1.2970  -28.3820   28.0230 C.3   293  THR293      0.1784
     53  OG1       -1.8120  -27.2940   27.2170 O.3   293  THR293     -0.2211
     54  CG2       -2.4130  -29.5360   28.1560 C.3   293  THR293      0.0376
     55  N          0.7640  -29.5880   29.8730 N.am  294  ASN294     -0.1974
     56  CA         1.3040  -30.7180   30.6800 C.3   294  ASN294      0.1688
     57  C          1.5510  -30.4290   32.1270 C.2   294  ASN294      0.2292
     58  O          1.3760  -31.3140   33.0140 O.2   294  ASN294     -0.2864
     59  CB         2.6200  -31.2240   30.0800 C.3   294  ASN294      0.1181
     60  CG         2.3960  -32.2470   28.9590 C.2   294  ASN294      0.2629
     61  OD1        1.5940  -33.2060   29.1310 O.2   294  ASN294     -0.2716
     62  ND2        3.1900  -32.1380   27.8370 N.am  294  ASN294     -0.0877
     63  N         -5.8320  -35.0110   26.8700 N.3   693  SER693     -0.1202
     64  CA        -5.3730  -33.5840   26.7960 C.3   693  SER693      0.2020
     65  C         -3.8500  -33.5030   26.9160 C.2   693  SER693      0.2619
     66  O         -3.2360  -32.5110   26.4230 O.2   693  SER693     -0.2717
     67  CB        -5.9890  -32.8170   27.9670 C.3   693  SER693      0.2103
     68  OG        -7.3570  -32.6970   27.7160 O.3   693  SER693     -0.2182
     69  N         -3.2030  -34.4980   27.5350 N.am  694  SER694     -0.1937
     70  CA        -1.7370  -34.4170   27.5870 C.3   694  SER694      0.2055
     71  C         -1.1510  -34.7920   26.2810 C.2   694  SER694      0.2644
     72  O         -0.0270  -34.3190   25.9610 O.2   694  SER694     -0.2714
     73  CB        -1.1270  -35.2840   28.6950 C.3   694  SER694      0.2130
     74  OG        -1.2340  -36.6550   28.2510 O.3   694  SER694     -0.2179
     75  N         -1.7840  -35.6940   25.5070 N.am  695  GLY695     -0.1939
     76  CA        -1.0670  -36.2390   24.2950 C.3   695  GLY695      0.2014
     77  C          0.3070  -36.8620   24.6370 C.2   695  GLY695      0.2639
     78  O          1.1480  -36.9870   23.7600 O.2   695  GLY695     -0.2714
     79  N          0.5790  -37.2580   25.8810 N.am  696  ASP696     -0.1957
     80  CA         1.9100  -37.7720   26.2230 C.3   696  ASP696      0.1825
     81  C          1.9090  -39.2780   25.9870 C.2   696  ASP696      0.2464
     82  O          1.1520  -39.9390   26.6970 O.2   696  ASP696     -0.2730
     83  CB         2.2680  -37.4200   27.6680 C.3   696  ASP696      0.1450
     84  CG         3.5380  -37.9900   28.1130 C.2   696  ASP696      0.3671
     85  OD1        4.3260  -38.6240   27.3460 O.co2 696  ASP696     -0.2456
     86  OD2        3.8550  -37.7340   29.3070 O.co2 696  ASP696     -0.2456
     87  N          2.7640  -39.8060   25.0690 N.am  697  PRO697     -0.2727
     88  CA         2.7740  -41.2770   24.9200 C.3   697  PRO697      0.1402
     89  C          3.1010  -42.0400   26.2740 C.2   697  PRO697      0.2269
     90  O          2.6950  -43.2060   26.4480 O.2   697  PRO697     -0.2865
     91  CB         3.8510  -41.5630   23.8400 C.3   697  PRO697      0.0296
     92  CG         4.1090  -40.2050   23.1480 C.3   697  PRO697      0.0237
     93  CD         3.8170  -39.1600   24.2350 C.3   697  PRO697      0.0939
@<TRIPOS>BOND
     1    23    20    1
     2    19    20    1
     3    20    21    1
     4    21    22    2
     5    21    24   am
     6    30    28    1
     7    24    25    1
     8    29    28    1
     9    28    25    1
    10    13    14    2
    11    13    12    1
    12    25    26    1
    13    27    26    2
    14    17    15    1
    15    15    12    1
    16    15    16    1
    17    11    12    1
    18    92    91    1
    19    92    93    1
    20    26    31   am
    21    78    77    2
    22    91    88    1
    23    93    87    1
    24    16    18    1
    25    76    77    1
    26    76    75    1
    27    31    32    1
    28    77    79   am
    29    88    87    1
    30    88    89    1
    31    87    81   am
    32    75    71   am
    33    32    35    1
    34    32    33    1
    35    79    80    1
    36    72    71    2
    37    81    80    1
    38    81    82    2
    39    35    36    1
    40    80    83    1
    41    89    90    2
    42    71    70    1
    43    47    46   ar
    44    47    45   ar
    45    66    65    2
    46    46    44   ar
    47    33    34    2
    48    33    37   am
    49    64    63    1
    50    64    65    1
    51    64    67    1
    52    65    69   am
    53    45    43   ar
    54    53    52    1
    55    37    38    1
    56    85    84   ar
    57    44    42   ar
    58    69    70    1
    59    70    73    1
    60    83    84    1
    61    68    67    1
    62    43    42   ar
    63    62    60   am
    64    52    54    1
    65    52    49    1
    66    42    41    1
    67    84    86   ar
    68    74    73    1
    69    38    41    1
    70    38    39    1
    71    60    61    2
    72    60    59    1
    73    48    49    1
    74    49    50    1
    75    39    40    2
    76    55    50   am
    77    55    56    1
    78     1     2    1
    79    59    56    1
    80    50    51    2
    81     2     3    1
    82     2     5    1
    83    56    57    1
    84     3     7   am
    85     3     4    2
    86     5     6    1
    87     7     8    1
    88    57    58    2
    89     8     9    1
    90     9    10    2
