@<TRIPOS>MOLECULE
tmp/4iibA02.pdb
 182 178 0 0 0
SMALL
GASTEIGER

@<TRIPOS>ATOM
      1  N         -3.9360  -22.2820   36.1640 N.3    36  ASP36      -0.1225
      2  CA        -3.5680  -21.9450   34.8400 C.3    36  ASP36       0.1805
      3  C         -2.7580  -20.6510   34.7520 C.2    36  ASP36       0.2597
      4  O         -1.8980  -20.5430   33.8600 O.2    36  ASP36      -0.2718
      5  CB        -4.7150  -21.9730   33.8470 C.3    36  ASP36       0.1424
      6  CG        -5.9490  -21.2300   34.3320 C.2    36  ASP36       0.3668
      7  OD1       -6.1840  -21.1440   35.5420 O.co2  36  ASP36      -0.2456
      8  OD2       -6.6270  -20.6000   33.5210 O.co2  36  ASP36      -0.2456
      9  N         -3.0670  -19.6620   35.6030 N.am   37  GLU37      -0.1979
     10  CA        -2.3040  -18.4180   35.6240 C.3    37  GLU37       0.1602
     11  C         -0.8870  -18.7000   36.1140 C.2    37  GLU37       0.2287
     12  O          0.1050  -18.1340   35.5870 O.2    37  GLU37      -0.2864
     13  CB        -2.9730  -17.4090   36.5860 C.3    37  GLU37       0.0415
     14  CG        -4.2870  -16.9510   35.9380 C.3    37  GLU37       0.1163
     15  CD        -5.1590  -16.0590   36.8530 C.2    37  GLU37       0.3649
     16  OE1       -5.0980  -16.1250   38.0870 O.co2  37  GLU37      -0.2457
     17  OE2       -5.9560  -15.2870   36.2880 O.co2  37  GLU37      -0.2457
     18  N          1.1580  -20.2140   33.4090 N.3    40  ASN40      -0.1240
     19  CA         1.5490  -19.1750   32.3810 C.3    40  ASN40       0.1653
     20  C          2.8290  -18.4900   32.7880 C.2    40  ASN40       0.2266
     21  O          3.6350  -18.1810   31.9080 O.2    40  ASN40      -0.2867
     22  CB         0.5120  -18.0900   32.2550 C.3    40  ASN40       0.1155
     23  CG        -0.2670  -18.1810   30.9770 C.2    40  ASN40       0.2627
     24  OD1       -0.2590  -19.1950   30.2880 O.2    40  ASN40      -0.2716
     25  ND2       -0.9420  -17.0660   30.6050 N.am   40  ASN40      -0.0877
     26  N          5.8330  -18.7860   25.4680 N.3    45  THR45      -0.1218
     27  CA         4.6650  -19.0260   24.6170 C.3    45  THR45       0.1862
     28  C          4.9820  -19.6340   23.2340 C.2    45  THR45       0.2287
     29  O          4.0820  -19.7710   22.3430 O.2    45  THR45      -0.2866
     30  CB         3.8690  -17.7350   24.3990 C.3    45  THR45       0.1770
     31  OG1        4.7700  -16.7240   23.9140 O.3    45  THR45      -0.2211
     32  CG2        3.2810  -17.2790   25.7370 C.3    45  THR45       0.0375
     33  N          5.9870  -14.2230   20.0440 N.3    50  GLU50      -0.1245
     34  CA         5.6810  -12.8750   20.4970 C.3    50  GLU50       0.1567
     35  C          6.8720  -11.9290   20.1000 C.2    50  GLU50       0.2260
     36  O          7.2940  -12.0390   18.9640 O.2    50  GLU50      -0.2867
     37  CB         5.2760  -12.7770   21.9770 C.3    50  GLU50       0.0388
     38  CG         4.0010  -13.7260   22.1870 C.3    50  GLU50       0.1160
     39  CD         3.3770  -13.5020   23.5390 C.2    50  GLU50       0.3649
     40  OE1        2.6980  -12.4600   23.6880 O.co2  50  GLU50      -0.2457
     41  OE2        3.6550  -14.2990   24.4480 O.co2  50  GLU50      -0.2457
     42  N          3.2720  -15.7060   28.8400 N.3    57  GLY57      -0.1210
     43  CA         1.9440  -15.0400   28.5570 C.3    57  GLY57       0.1956
     44  C          1.5520  -14.0900   29.6600 C.2    57  GLY57       0.2612
     45  O          0.6300  -13.3260   29.5020 O.2    57  GLY57      -0.2717
     46  N          2.1870  -14.1570   30.8230 N.am   58  GLY58      -0.1942
     47  CA         1.8370  -13.2970   31.9460 C.3    58  GLY58       0.2014
     48  C          0.4310  -13.7090   32.5440 C.2    58  GLY58       0.2639
     49  O         -0.0330  -14.8170   32.3050 O.2    58  GLY58      -0.2714
     50  N         -0.1660  -12.8120   33.3230 N.am   59  VAL59      -0.1963
     51  CA        -1.4360  -13.1410   34.0140 C.3    59  VAL59       0.1712
     52  C         -2.3380  -11.8850   33.8050 C.2    59  VAL59       0.2458
     53  O         -2.3560  -11.0240   34.6850 O.2    59  VAL59      -0.2730
     54  CB        -1.1910  -13.4090   35.5090 C.3    59  VAL59       0.0289
     55  CG1       -2.5380  -13.7590   36.1860 C.3    59  VAL59       0.0023
     56  CG2       -0.2560  -14.6200   35.6890 C.3    59  VAL59       0.0023
     57  N         -3.0620  -11.8030   32.6870 N.am   60  PRO60      -0.2716
     58  CA        -3.7230  -10.5590   32.3530 C.3    60  PRO60       0.1536
     59  C         -4.8020  -10.1520   33.3860 C.2    60  PRO60       0.2598
     60  O         -4.9330   -8.9910   33.6970 O.2    60  PRO60      -0.2715
     61  CB        -4.3790  -10.8250   30.9980 C.3    60  PRO60       0.0310
     62  CG        -4.0650  -12.2190   30.6250 C.3    60  PRO60       0.0237
     63  CD        -3.0340  -12.7730   31.5570 C.3    60  PRO60       0.0939
     64  N         -5.4540  -11.1320   34.0120 N.am   61  ARG61      -0.1978
     65  CA        -6.5100  -10.7790   34.9700 C.3    61  ARG61       0.1597
     66  C         -5.9200  -10.0000   36.1240 C.2    61  ARG61       0.2287
     67  O         -6.6130   -9.2400   36.7820 O.2    61  ARG61      -0.2864
     68  CB        -7.1570  -12.0990   35.4840 C.3    61  ARG61       0.0334
     69  CG        -8.3700  -11.8920   36.4830 C.3    61  ARG61       0.0492
     70  CD        -8.9760  -13.2540   36.8910 C.3    61  ARG61       0.2205
     71  NE        -7.9950  -14.0310   37.7040 N.pl3  61  ARG61      -0.0865
     72  CZ        -7.8310  -13.9580   39.0150 C.cat  61  ARG61       0.5346
     73  NH1       -8.6530  -13.1720   39.7560 N.pl3  61  ARG61       0.1354
     74  NH2       -6.8680  -14.6750   39.6360 N.pl3  61  ARG61       0.1354
     75  N          0.8580   -9.5500   14.8640 N.3   345  LYS345     -0.1231
     76  CA         1.2930   -9.5430   16.2610 C.3   345  LYS345      0.1693
     77  C          2.0940  -10.8130   16.6480 C.2   345  LYS345      0.2592
     78  O          3.0080  -10.7350   17.4950 O.2   345  LYS345     -0.2718
     79  CB         0.0490   -9.3540   17.1720 C.3   345  LYS345      0.0285
     80  CG         0.4400   -9.3820   18.6560 C.3   345  LYS345      0.0035
     81  CD        -0.7920   -9.0450   19.5020 C.3   345  LYS345      0.0206
     82  CE        -0.3850   -8.9620   20.9830 C.3   345  LYS345      0.1093
     83  NZ        -1.4230   -8.2730   21.8440 N.3   345  LYS345     -0.1314
     84  N          1.7360  -11.9570   16.0220 N.am  346  TYR346     -0.1976
     85  CA         2.3780  -13.2440   16.3830 C.3   346  TYR346      0.1639
     86  C          3.1560  -13.6410   15.1700 C.2   346  TYR346      0.2290
     87  O          2.6440  -14.1100   14.1010 O.2   346  TYR346     -0.2864
     88  CB         1.3540  -14.3210   16.8180 C.3   346  TYR346      0.0560
     89  CG         0.4750  -13.7660   17.8750 C.ar  346  TYR346     -0.0198
     90  CD1        0.9660  -13.4760   19.1900 C.ar  346  TYR346     -0.0009
     91  CD2       -0.8980  -13.5170   17.6070 C.ar  346  TYR346     -0.0009
     92  CE1        0.1550  -12.8820   20.1840 C.ar  346  TYR346      0.0417
     93  CE2       -1.7210  -12.9740   18.6010 C.ar  346  TYR346      0.0417
     94  CZ        -1.2120  -12.6720   19.8600 C.ar  346  TYR346      0.1957
     95  OH        -2.0450  -12.0680   20.8250 O.3   346  TYR346     -0.2866
     96  N         -3.7520   -9.6660   15.3930 N.3   353  PRO353     -0.2116
     97  CA        -4.0170   -8.3760   14.7790 C.3   353  PRO353      0.1372
     98  C         -2.7850   -7.8760   14.0090 C.2   353  PRO353      0.2244
     99  O         -1.6520   -8.1110   14.4440 O.2   353  PRO353     -0.2868
    100  CB        -4.3000   -7.4520   15.9710 C.3   353  PRO353      0.0268
    101  CG        -3.9850   -8.2190   17.2240 C.3   353  PRO353      0.0207
    102  CD        -3.9560   -9.6730   16.8580 C.3   353  PRO353      0.0892
    103  N         -0.6150   -4.7190   13.3850 N.3   355  GLU355     -0.1245
    104  CA        -0.5210   -3.5390   14.1870 C.3   355  GLU355      0.1567
    105  C          1.0150   -3.1740   14.2190 C.2   355  GLU355      0.2260
    106  O          1.8600   -3.8270   13.5530 O.2   355  GLU355     -0.2867
    107  CB        -1.0470   -3.8090   15.5960 C.3   355  GLU355      0.0388
    108  CG        -0.4180   -5.0420   16.2530 C.3   355  GLU355      0.1160
    109  CD        -0.9480   -5.3460   17.6490 C.2   355  GLU355      0.3649
    110  OE1       -2.1340   -5.0940   17.9220 O.co2 355  GLU355     -0.2457
    111  OE2       -0.1750   -5.7590   18.5550 O.co2 355  GLU355     -0.2457
    112  N        -14.4540  -18.4410   24.2450 N.3   673  GLY673     -0.1210
    113  CA       -14.2510  -17.3950   23.1890 C.3   673  GLY673      0.1956
    114  C        -12.7870  -17.0590   22.7790 C.2   673  GLY673      0.2612
    115  O        -12.4840  -15.9440   22.3430 O.2   673  GLY673     -0.2717
    116  N        -11.8560  -17.9950   22.8900 N.am  674  LEU674     -0.1965
    117  CA       -10.4190  -17.6330   22.6510 C.3   674  LEU674      0.1728
    118  C         -9.9090  -18.2840   21.3800 C.2   674  LEU674      0.2616
    119  O        -10.0220  -19.5370   21.1460 O.2   674  LEU674     -0.2715
    120  CB        -9.5900  -17.9760   23.8900 C.3   674  LEU674      0.0311
    121  CG        -8.1050  -17.5800   23.8420 C.3   674  LEU674      0.0022
    122  CD1       -7.8100  -16.8300   25.1300 C.3   674  LEU674      0.0001
    123  CD2       -7.3210  -18.8550   23.6440 C.3   674  LEU674      0.0001
    124  N         -9.4020  -17.4240   20.4800 N.am  675  THR675     -0.1951
    125  CA        -8.8260  -17.9560   19.2500 C.3   675  THR675      0.1897
    126  C         -7.4180  -18.4830   19.5710 C.2   675  THR675      0.2313
    127  O         -6.5660  -17.6830   20.0390 O.2   675  THR675     -0.2863
    128  CB        -8.6290  -16.8160   18.2300 C.3   675  THR675      0.1794
    129  OG1       -9.9000  -16.3440   17.8860 O.3   675  THR675     -0.2208
    130  CG2       -7.9860  -17.2930   16.9780 C.3   675  THR675      0.0378
    131  N         -3.8680  -19.3580   18.7540 N.3   677  ILE677     -0.1301
    132  CA        -2.8840  -18.9890   17.6950 C.3   677  ILE677      0.1246
    133  C         -2.0410  -20.1590   17.3470 C.3   677  ILE677      0.2009
    134  O         -1.5880  -20.8740   18.3330 O.3   677  ILE677     -0.2188
    135  CB        -2.0150  -17.8110   18.2400 C.3   677  ILE677      0.0202
    136  CG1       -2.9070  -16.6050   18.5680 C.3   677  ILE677      0.0015
    137  CG2       -0.9090  -17.4950   17.2080 C.3   677  ILE677      0.0016
    138  CD1       -3.7590  -16.0100   17.3910 C.3   677  ILE677      0.0000
    139  N          1.2190  -21.4330   19.2980 N.3   680  PHE680     -0.1241
    140  CA         1.3510  -20.7210   20.5880 C.3   680  PHE680      0.1605
    141  C          1.1000  -21.7210   21.7340 C.2   680  PHE680      0.2264
    142  O          0.1770  -22.5980   21.6470 O.2   680  PHE680     -0.2867
    143  CB         0.2260  -19.6460   20.6210 C.3   680  PHE680      0.0534
    144  CG         0.4440  -18.5690   21.6370 C.ar  680  PHE680     -0.0203
    145  CD1        1.0530  -17.3600   21.2130 C.ar  680  PHE680     -0.0042
    146  CD2        0.1210  -18.6990   22.9780 C.ar  680  PHE680     -0.0042
    147  CE1        1.2560  -16.3140   22.0830 C.ar  680  PHE680     -0.0003
    148  CE2        0.3140  -17.6280   23.9120 C.ar  680  PHE680     -0.0003
    149  CZ         0.9220  -16.4190   23.4390 C.ar  680  PHE680     -0.0000
    150  N         -0.1020  -22.7070   25.4150 N.3   682  TYR682     -0.1228
    151  CA        -1.0860  -22.2710   26.4100 C.3   682  TYR682      0.1721
    152  C         -1.0720  -23.1770   27.6580 C.2   682  TYR682      0.2437
    153  O         -0.4840  -24.2520   27.6240 O.2   682  TYR682     -0.2733
    154  CB        -2.4880  -22.3770   25.7740 C.3   682  TYR682      0.0547
    155  CG        -2.7440  -21.3850   24.6790 C.ar  682  TYR682     -0.0200
    156  CD1       -3.0580  -20.0480   25.0150 C.ar  682  TYR682     -0.0009
    157  CD2       -2.7520  -21.7590   23.3300 C.ar  682  TYR682     -0.0009
    158  CE1       -3.3420  -19.0930   23.9710 C.ar  682  TYR682      0.0417
    159  CE2       -3.0260  -20.7870   22.3040 C.ar  682  TYR682      0.0417
    160  CZ        -3.2730  -19.4900   22.6430 C.ar  682  TYR682      0.1957
    161  OH        -3.5620  -18.5520   21.6310 O.3   682  TYR682     -0.2866
    162  N         -1.7230  -22.7620   28.7530 N.am  683  PRO683     -0.2718
    163  CA        -1.6620  -23.5940   29.9830 C.3   683  PRO683      0.1535
    164  C         -2.8890  -24.5920   30.0620 C.2   683  PRO683      0.2598
    165  O         -3.0310  -25.3140   31.0490 O.2   683  PRO683     -0.2715
    166  CB        -1.8500  -22.5730   31.0820 C.3   683  PRO683      0.0310
    167  CG        -2.6560  -21.4360   30.4880 C.3   683  PRO683      0.0237
    168  CD        -2.2780  -21.4020   28.9760 C.3   683  PRO683      0.0939
    169  N         -3.7800  -24.4870   29.0640 N.am  684  TRP684     -0.1974
    170  CA        -5.1070  -25.0930   29.1420 C.3   684  TRP684      0.1640
    171  C         -5.2120  -26.4910   28.5500 C.2   684  TRP684      0.2290
    172  O         -4.3680  -26.9300   27.7860 O.2   684  TRP684     -0.2864
    173  CB        -6.0590  -24.1660   28.3730 C.3   684  TRP684      0.0576
    174  CG        -6.2770  -22.8510   29.1150 C.ar  684  TRP684      0.0006
    175  CD1       -6.6100  -22.6730   30.4730 C.ar  684  TRP684      0.0946
    176  CD2       -6.1820  -21.5040   28.5540 C.ar  684  TRP684      0.0152
    177  NE1       -6.7340  -21.3270   30.7670 N.ar  684  TRP684     -0.2442
    178  CE2       -6.4750  -20.5970   29.6080 C.ar  684  TRP684      0.0810
    179  CE3       -5.9050  -20.9970   27.2590 C.ar  684  TRP684      0.0012
    180  CZ2       -6.4720  -19.1770   29.4150 C.ar  684  TRP684      0.0191
    181  CZ3       -5.9090  -19.5760   27.0790 C.ar  684  TRP684      0.0001
    182  CH2       -6.2030  -18.7190   28.1170 C.ar  684  TRP684      0.0015
@<TRIPOS>BOND
     1   103   104    1
     2   106   105    2
     3    98    99    2
     4    98    97    1
     5    87    86    2
     6   104   105    1
     7   104   107    1
     8    97    96    1
     9    97   100    1
    10    75    76    1
    11    86    85    1
    12    96   102    1
    13   107   108    1
    14   100   101    1
    15    84    85    1
    16    84    77   am
    17   108   109    1
    18    76    77    1
    19    76    79    1
    20    85    88    1
    21    77    78    2
    22    88    89    1
    23   102   101    1
    24   130   128    1
    25    79    80    1
    26   137   135    1
    27   133   132    1
    28   133   134    1
    29   138   136    1
    30    91    89   ar
    31    91    93   ar
    32   109   110   ar
    33   109   111   ar
    34   132   135    1
    35   132   131    1
    36    89    90   ar
    37   129   128    1
    38   128   125    1
    39   135   136    1
    40    93    94   ar
    41    80    81    1
    42    36    35    2
    43    90    92   ar
    44   125   126    1
    45   125   124    1
    46   139   140    1
    47    81    82    1
    48   126   127    2
    49    94    92   ar
    50    94    95    1
    51    33    34    1
    52    35    34    1
    53   124   118   am
    54    34    37    1
    55   140   143    1
    56   140   141    1
    57   143   144    1
    58    82    83    1
    59   119   118    2
    60   145   144   ar
    61   145   147   ar
    62   118   117    1
    63   161   160    1
    64   144   146   ar
    65   142   141    2
    66    37    38    1
    67   147   149   ar
    68    38    39    1
    69   159   160   ar
    70   159   157   ar
    71   115   114    2
    72    29    28    2
    73   160   158   ar
    74   117   116    1
    75   117   120    1
    76   114   116   am
    77   114   113    1
    78   146   148   ar
    79   113   112    1
    80    28    27    1
    81   157   155   ar
    82   149   148   ar
    83    39    40   ar
    84    39    41   ar
    85   123   121    1
    86   121   120    1
    87   121   122    1
    88    31    30    1
    89   158   156   ar
    90    30    27    1
    91    30    32    1
    92    27    26    1
    93   155   156   ar
    94   155   154    1
    95   150   151    1
    96   154   151    1
    97   151   152    1
    98   181   179   ar
    99   181   182   ar
   100   179   176   ar
   101   153   152    2
   102   152   162   am
   103   172   171    2
   104   182   180   ar
   105   173   174    1
   106   173   170    1
   107   171   170    1
   108   176   174   ar
   109   176   178   ar
   110    43    42    1
   111    43    44    1
   112   162   168    1
   113   162   163    1
   114   168   167    1
   115   169   170    1
   116   169   164   am
   117   174   175   ar
   118   180   178   ar
   119    45    44    2
   120   178   177   ar
   121    44    46   am
   122   163   164    1
   123   163   166    1
   124   164   165    2
   125    24    23    2
   126   175   177   ar
   127   167   166    1
   128    25    23   am
   129    62    61    1
   130    62    63    1
   131    46    47    1
   132    23    22    1
   133    61    58    1
   134    63    57    1
   135    21    20    2
   136    47    48    1
   137    22    19    1
   138    49    48    2
   139    58    57    1
   140    58    59    1
   141    19    20    1
   142    19    18    1
   143    48    50   am
   144    57    52   am
   145    50    51    1
   146    59    60    2
   147    59    64   am
   148     8     6   ar
   149    52    51    1
   150    52    53    2
   151     5     6    1
   152     5     2    1
   153     4     3    2
   154    64    65    1
   155    51    54    1
   156     6     7   ar
   157     3     2    1
   158     3     9   am
   159     2     1    1
   160    65    68    1
   161    65    66    1
   162    68    69    1
   163    54    56    1
   164    54    55    1
   165    12    11    2
   166     9    10    1
   167    10    11    1
   168    10    13    1
   169    14    13    1
   170    14    15    1
   171    66    67    2
   172    17    15   ar
   173    69    70    1
   174    15    16   ar
   175    70    71    1
   176    71    72    2
   177    72    74    1
   178    72    73    1
