@<TRIPOS>MOLECULE
tmp/4iibA03.pdb
 150 144 0 0 0
SMALL
GASTEIGER

@<TRIPOS>ATOM
      1  N         29.6930  -41.8420   34.8080 N.3     2  ALA2       -0.1231
      2  CA        29.4340  -40.9330   35.9530 C.3     2  ALA2        0.1694
      3  C         27.9760  -40.8590   36.2660 C.2     2  ALA2        0.2592
      4  O         27.0620  -40.9760   35.3570 O.2     2  ALA2       -0.2718
      5  CB        30.0090  -39.5190   35.5690 C.3     2  ALA2        0.0304
      6  N         27.6530  -40.6050   37.5470 N.am    3  PHE3       -0.1962
      7  CA        26.2570  -40.7050   37.9370 C.3     3  PHE3        0.1771
      8  C         25.9620  -39.4550   38.8250 C.2     3  PHE3        0.2620
      9  O         26.8260  -39.0660   39.6320 O.2     3  PHE3       -0.2715
     10  CB        26.0780  -42.0100   38.8750 C.3     3  PHE3        0.0574
     11  CG        24.6850  -42.1440   39.4990 C.ar    3  PHE3       -0.0200
     12  CD1       23.5520  -42.5460   38.7140 C.ar    3  PHE3       -0.0042
     13  CD2       24.5000  -41.8500   40.8860 C.ar    3  PHE3       -0.0042
     14  CE1       22.2590  -42.6300   39.3010 C.ar    3  PHE3       -0.0003
     15  CE2       23.1920  -41.9590   41.4600 C.ar    3  PHE3       -0.0003
     16  CZ        22.1080  -42.2790   40.6440 C.ar    3  PHE3       -0.0000
     17  N         24.7460  -38.9630   38.7400 N.am    4  SER4       -0.1936
     18  CA        24.3910  -37.6950   39.4490 C.3     4  SER4        0.2040
     19  C         23.3870  -38.0750   40.5430 C.2     4  SER4        0.2485
     20  O         22.2210  -38.2870   40.2360 O.2     4  SER4       -0.2729
     21  CB        23.7120  -36.6710   38.4770 C.3     4  SER4        0.2129
     22  OG        23.7270  -35.3890   39.0890 O.3     4  SER4       -0.2179
     23  N         23.8350  -38.0770   41.7970 N.am    5  PRO5       -0.2726
     24  CA        22.9270  -38.5400   42.8640 C.3     5  PRO5        0.1402
     25  C         21.7720  -37.6090   43.0770 C.2     5  PRO5        0.2269
     26  O         21.8960  -36.3810   42.7970 O.2     5  PRO5       -0.2865
     27  CB        23.8130  -38.4960   44.1270 C.3     5  PRO5        0.0296
     28  CG        25.1880  -38.2190   43.6710 C.3     5  PRO5        0.0237
     29  CD        25.1790  -37.7170   42.2820 C.3     5  PRO5        0.0939
     30  N         32.5100  -33.9870   37.0120 N.3   199  VAL199     -0.1231
     31  CA        33.4370  -33.1960   37.8270 C.3   199  VAL199      0.1692
     32  C         33.2350  -33.5750   39.3290 C.2   199  VAL199      0.2592
     33  O         32.0770  -33.8020   39.7570 O.2   199  VAL199     -0.2718
     34  CB        33.0380  -31.6450   37.7850 C.3   199  VAL199      0.0266
     35  CG1       34.2090  -30.8490   38.3350 C.3   199  VAL199      0.0020
     36  CG2       32.8520  -31.3210   36.3160 C.3   199  VAL199      0.0020
     37  N         34.3400  -33.5440   40.0620 N.am  200  ASP200     -0.1960
     38  CA        34.3250  -33.9720   41.4890 C.3   200  ASP200      0.1840
     39  C         33.7250  -32.8120   42.3570 C.2   200  ASP200      0.2622
     40  O         33.7080  -31.6320   41.9350 O.2   200  ASP200     -0.2715
     41  CB        35.7490  -34.4070   41.9200 C.3   200  ASP200      0.1450
     42  CG        36.6730  -33.2680   42.0230 C.2   200  ASP200      0.3671
     43  OD1       37.3080  -32.9530   40.9840 O.co2 200  ASP200     -0.2456
     44  OD2       36.7900  -32.6170   43.0570 O.co2 200  ASP200     -0.2456
     45  N         33.3170  -33.1270   43.6060 N.am  201  ASP201     -0.1957
     46  CA        32.5530  -32.1990   44.3880 C.3   201  ASP201      0.1840
     47  C         33.4510  -31.0530   44.8720 C.2   201  ASP201      0.2621
     48  O         32.9990  -29.9170   44.9450 O.2   201  ASP201     -0.2715
     49  CB        31.9470  -32.9850   45.5540 C.3   201  ASP201      0.1450
     50  CG        31.0190  -32.1860   46.3950 C.2   201  ASP201      0.3671
     51  OD1       30.1620  -31.4300   45.8980 O.co2 201  ASP201     -0.2456
     52  OD2       31.0770  -32.4200   47.6530 O.co2 201  ASP201     -0.2456
     53  N         34.7230  -31.3250   45.2150 N.am  202  LYS202     -0.1977
     54  CA        35.5770  -30.2440   45.7330 C.3   202  LYS202      0.1596
     55  C         35.8070  -29.2240   44.4950 C.2   202  LYS202      0.2287
     56  O         35.7250  -28.0350   44.6570 O.2   202  LYS202     -0.2864
     57  CB        36.9520  -30.8250   46.0930 C.3   202  LYS202      0.0298
     58  CG        37.9430  -29.7530   46.5870 C.3   202  LYS202      0.0038
     59  CD        39.2450  -30.4990   47.0580 C.3   202  LYS202      0.0206
     60  CE        40.2480  -29.5530   47.7270 C.3   202  LYS202      0.1093
     61  NZ        40.9750  -28.7700   46.6240 N.3   202  LYS202     -0.1314
     62  N         33.9560  -28.5460   41.8150 N.3   204  ILE204     -0.1245
     63  CA        32.8650  -27.7460   41.4390 C.3   204  ILE204      0.1561
     64  C         32.7220  -26.6510   42.4920 C.2   204  ILE204      0.2260
     65  O         32.4160  -25.4850   42.1160 O.2   204  ILE204     -0.2867
     66  CB        31.5750  -28.5320   41.1760 C.3   204  ILE204      0.0252
     67  CG1       30.5680  -27.7110   40.3210 C.3   204  ILE204      0.0019
     68  CG2       30.8550  -28.9220   42.5210 C.3   204  ILE204      0.0019
     69  CD1       29.3480  -28.5610   39.9700 C.3   204  ILE204      0.0001
     70  N         25.4900  -33.0240   33.5780 N.3   230  ILE230     -0.1231
     71  CA        26.5330  -33.0370   34.6090 C.3   230  ILE230      0.1692
     72  C         26.4160  -34.4630   35.1960 C.2   230  ILE230      0.2592
     73  O         25.3510  -34.8500   35.7350 O.2   230  ILE230     -0.2718
     74  CB        26.2710  -32.0350   35.7990 C.3   230  ILE230      0.0266
     75  CG1       26.3420  -30.5540   35.2380 C.3   230  ILE230      0.0019
     76  CG2       27.4330  -32.1760   36.8130 C.3   230  ILE230      0.0020
     77  CD1       24.9120  -30.0490   34.7570 C.3   230  ILE230      0.0001
     78  N         27.4870  -35.1990   35.0750 N.am  231  ASN231     -0.1974
     79  CA        27.4090  -36.6490   35.5220 C.3   231  ASN231      0.1688
     80  C         26.1870  -37.2940   34.9330 C.2   231  ASN231      0.2292
     81  O         25.4450  -38.0550   35.6370 O.2   231  ASN231     -0.2864
     82  CB        27.3770  -36.8310   37.0580 C.3   231  ASN231      0.1181
     83  CG        28.6360  -36.3820   37.7600 C.2   231  ASN231      0.2629
     84  OD1       29.5900  -35.7860   37.2170 O.2   231  ASN231     -0.2716
     85  ND2       28.6720  -36.7000   39.0570 N.am  231  ASN231     -0.0877
     86  N         18.8490  -31.3680   36.7850 N.3   238  ASN238     -0.1240
     87  CA        19.8710  -32.0260   37.5810 C.3   238  ASN238      0.1653
     88  C         19.5370  -31.6340   39.0160 C.2   238  ASN238      0.2266
     89  O         19.7840  -30.4750   39.4700 O.2   238  ASN238     -0.2867
     90  CB        21.2690  -31.5280   37.2160 C.3   238  ASN238      0.1155
     91  CG        22.3340  -32.3280   37.8920 C.2   238  ASN238      0.2627
     92  OD1       22.4410  -32.3200   39.1070 O.2   238  ASN238     -0.2716
     93  ND2       23.2100  -33.0180   37.0660 N.am  238  ASN238     -0.0877
     94  N         20.9380  -32.4930   41.7410 N.3   240  TYR240     -0.1227
     95  CA        22.0490  -32.2040   42.6050 C.3   240  TYR240      0.1736
     96  C         22.5000  -30.6920   42.3710 C.2   240  TYR240      0.2596
     97  O         22.7370  -29.9740   43.3220 O.2   240  TYR240     -0.2718
     98  CB        23.2020  -33.1640   42.3420 C.3   240  TYR240      0.0548
     99  CG        24.1630  -33.2380   43.5260 C.ar  240  TYR240     -0.0200
    100  CD1       23.9450  -34.2030   44.5790 C.ar  240  TYR240     -0.0009
    101  CD2       25.2270  -32.3350   43.6420 C.ar  240  TYR240     -0.0009
    102  CE1       24.8200  -34.2930   45.6320 C.ar  240  TYR240      0.0417
    103  CE2       26.0990  -32.3970   44.7160 C.ar  240  TYR240      0.0417
    104  CZ        25.8700  -33.3740   45.7190 C.ar  240  TYR240      0.1957
    105  OH        26.6940  -33.4290   46.8530 O.3   240  TYR240     -0.2866
    106  N         22.6640  -30.2810   41.1010 N.am  241  THR241     -0.1953
    107  CA        23.1840  -28.9130   40.9300 C.3   241  THR241      0.1897
    108  C         22.0520  -27.9270   41.2060 C.2   241  THR241      0.2313
    109  O         22.2920  -26.8650   41.8080 O.2   241  THR241     -0.2863
    110  CB        23.6900  -28.6790   39.4830 C.3   241  THR241      0.1794
    111  OG1       22.6060  -28.7880   38.5520 O.3   241  THR241     -0.2208
    112  CG2       24.8580  -29.6640   39.2050 C.3   241  THR241      0.0378
    113  N         20.2530  -29.2430   45.2510 N.3   244  LYS244     -0.1231
    114  CA        21.1820  -29.1980   46.3560 C.3   244  LYS244      0.1693
    115  C         22.1630  -27.9770   46.3170 C.2   244  LYS244      0.2591
    116  O         22.2390  -27.2230   47.3080 O.2   244  LYS244     -0.2718
    117  CB        22.0670  -30.4610   46.4080 C.3   244  LYS244      0.0285
    118  CG        22.7540  -30.5550   47.7840 C.3   244  LYS244      0.0035
    119  CD        23.5940  -31.8740   47.8570 C.3   244  LYS244      0.0206
    120  CE        24.1620  -31.9620   49.2530 C.3   244  LYS244      0.1093
    121  NZ        24.9570  -33.2640   49.4740 N.3   244  LYS244     -0.1314
    122  N         22.9470  -27.8510   45.2280 N.am  245  LEU245     -0.1980
    123  CA        23.9870  -26.8060   45.3170 C.3   245  LEU245      0.1596
    124  C         23.3370  -25.4090   45.2280 C.2   245  LEU245      0.2287
    125  O         23.7160  -24.5240   45.9980 O.2   245  LEU245     -0.2864
    126  CB        24.9690  -26.9970   44.1530 C.3   245  LEU245      0.0297
    127  CG        25.6980  -28.3740   44.2080 C.3   245  LEU245      0.0022
    128  CD1       26.6720  -28.4510   43.0210 C.3   245  LEU245      0.0001
    129  CD2       26.4660  -28.5440   45.5230 C.3   245  LEU245      0.0001
    130  N         34.6940  -32.6940   51.2490 N.3   801  VAL801     -0.1231
    131  CA        33.5740  -33.4800   50.7280 C.3   801  VAL801      0.1692
    132  C         32.9910  -34.4240   51.8590 C.2   801  VAL801      0.2591
    133  O         31.8280  -34.6030   51.9000 O.2   801  VAL801     -0.2718
    134  CB        34.0130  -34.3500   49.5640 C.3   801  VAL801      0.0266
    135  CG1       32.8280  -35.1990   49.0950 C.3   801  VAL801      0.0020
    136  CG2       34.5330  -33.4850   48.3840 C.3   801  VAL801      0.0020
    137  N         33.8250  -34.8350   52.8020 N.am  802  ALA802     -0.1980
    138  CA        33.2790  -35.6340   53.9750 C.3   802  ALA802      0.1597
    139  C         32.3990  -34.7550   54.8900 C.2   802  ALA802      0.2287
    140  O         31.2980  -35.1660   55.3180 O.2   802  ALA802     -0.2864
    141  CB        34.4730  -36.2780   54.7320 C.3   802  ALA802      0.0319
    142  N         30.9140  -31.9690   53.8520 N.3   804  GLN804     -0.1245
    143  CA        29.9870  -31.1220   53.0280 C.3   804  GLN804      0.1566
    144  C         30.0290  -29.7150   53.5360 C.2   804  GLN804      0.2260
    145  O         29.0140  -29.0780   53.7850 O.2   804  GLN804     -0.2867
    146  CB        28.5350  -31.7290   52.9250 C.3   804  GLN804      0.0367
    147  CG        28.5740  -33.0150   52.1070 C.3   804  GLN804      0.0905
    148  CD        28.7360  -32.6610   50.6320 C.2   804  GLN804      0.2608
    149  OE1       27.8720  -31.9440   50.0330 O.2   804  GLN804     -0.2717
    150  NE2       29.8250  -33.0900   50.0720 N.am  804  GLN804     -0.0878
@<TRIPOS>BOND
     1    70    71    1
     2    71    72    1
     3    71    74    1
     4    77    75    1
     5     1     2    1
     6    80    79    1
     7    80    81    2
     8    78    72   am
     9    78    79    1
    10    72    73    2
    11    75    74    1
    12     4     3    2
    13    79    82    1
    14     5     2    1
    15    74    76    1
    16     2     3    1
    17     3     6   am
    18    36    34    1
    19    86    87    1
    20    30    31    1
    21    82    83    1
    22    93    91   am
    23    90    87    1
    24    90    91    1
    25    84    83    2
    26     6     7    1
    27    87    88    1
    28    83    85   am
    29    34    31    1
    30    34    35    1
    31    31    32    1
    32    91    92    2
    33     7     8    1
    34     7    10    1
    35    21    22    1
    36    21    18    1
    37   111   110    1
    38    12    14   ar
    39    12    11   ar
    40    17     8   am
    41    17    18    1
    42     8     9    2
    43    10    11    1
    44    88    89    2
    45   112   110    1
    46    14    16   ar
    47    32    33    2
    48    32    37   am
    49    18    19    1
    50   110   107    1
    51    11    13   ar
    52    69    67    1
    53    37    38    1
    54    20    19    2
    55    67    66    1
    56    19    23   am
    57    16    15   ar
    58    13    15   ar
    59   107   106    1
    60   107   108    1
    61    43    42   ar
    62   106    96   am
    63    66    63    1
    64    66    68    1
    65   108   109    2
    66    63    62    1
    67    63    64    1
    68    38    41    1
    69    38    39    1
    70    94    95    1
    71    23    29    1
    72    23    24    1
    73    41    42    1
    74    40    39    2
    75    42    44   ar
    76    65    64    2
    77    29    28    1
    78    98    95    1
    79    98    99    1
    80    39    45   am
    81    96    95    1
    82    96    97    2
    83    26    25    2
    84    24    25    1
    85    24    27    1
    86   128   127    1
    87    99   101   ar
    88    99   100   ar
    89    45    46    1
    90   101   103   ar
    91    28    27    1
    92   126   127    1
    93   126   123    1
    94   127   129    1
    95    46    47    1
    96    46    49    1
    97    55    56    2
    98    55    54    1
    99   100   102   ar
   100   103   104   ar
   101    47    48    2
   102    47    53   am
   103    53    54    1
   104   124   123    1
   105   124   125    2
   106   122   123    1
   107   122   115   am
   108   113   114    1
   109    49    50    1
   110   102   104   ar
   111   104   105    1
   112    54    57    1
   113    51    50   ar
   114    57    58    1
   115   115   114    1
   116   115   116    2
   117   114   117    1
   118    50    52   ar
   119   117   118    1
   120    58    59    1
   121    61    60    1
   122    59    60    1
   123   118   119    1
   124   119   120    1
   125   136   134    1
   126   135   134    1
   127   120   121    1
   128   134   131    1
   129   149   148    2
   130   150   148   am
   131   148   147    1
   132   131   130    1
   133   131   132    1
   134   132   133    2
   135   132   137   am
   136   147   146    1
   137   137   138    1
   138   146   143    1
   139   143   144    1
   140   143   142    1
   141   144   145    2
   142   138   141    1
   143   138   139    1
   144   139   140    2
