@<TRIPOS>MOLECULE
tmp/4iicB02.pdb
 135 129 0 0 0
SMALL
GASTEIGER

@<TRIPOS>ATOM
      1  N         66.8430    6.2840  -19.7380 N.3    47  TRP47      -0.1241
      2  CA        65.7420    5.8790  -18.8360 C.3    47  TRP47       0.1605
      3  C         66.2140    5.3760  -17.4630 C.2    47  TRP47       0.2264
      4  O         66.9340    4.3460  -17.3790 O.2    47  TRP47      -0.2867
      5  CB        64.9200    4.7980  -19.5040 C.3    47  TRP47       0.0550
      6  CG        63.7550    4.2600  -18.6320 C.ar   47  TRP47       0.0003
      7  CD1       63.5840    2.9330  -18.1980 C.ar   47  TRP47       0.0946
      8  CD2       62.5990    5.0070  -18.1590 C.ar   47  TRP47       0.0152
      9  NE1       62.3740    2.8260  -17.5170 N.ar   47  TRP47      -0.2442
     10  CE2       61.7860    4.0890  -17.4310 C.ar   47  TRP47       0.0810
     11  CE3       62.2160    6.3870  -18.2040 C.ar   47  TRP47       0.0012
     12  CZ2       60.6090    4.5030  -16.7450 C.ar   47  TRP47       0.0191
     13  CZ3       61.0640    6.7880  -17.5460 C.ar   47  TRP47       0.0001
     14  CH2       60.2290    5.8310  -16.8820 C.ar   47  TRP47       0.0015
     15  N         61.7750   11.4700  -13.9470 N.3    53  VAL53      -0.1245
     16  CA        61.2200   10.7120  -15.0310 C.3    53  VAL53       0.1561
     17  C         61.9330   11.0860  -16.3330 C.2    53  VAL53       0.2260
     18  O         62.1780   10.2300  -17.1650 O.2    53  VAL53      -0.2867
     19  CB        59.6710   10.9890  -15.1150 C.3    53  VAL53       0.0252
     20  CG1       59.1150   10.4510  -16.4250 C.3    53  VAL53       0.0019
     21  CG2       58.9950   10.3290  -13.9000 C.3    53  VAL53       0.0019
     22  N         56.4850   13.9370  -14.0370 N.3    71  ASP71      -0.1239
     23  CA        55.0280   13.9090  -13.9910 C.3    71  ASP71       0.1674
     24  C         54.5470   14.3430  -12.6050 C.2    71  ASP71       0.2266
     25  O         55.3560   14.3580  -11.6810 O.2    71  ASP71      -0.2867
     26  CB        54.6830   12.4430  -14.1770 C.3    71  ASP71       0.1410
     27  CG        54.8890   11.9560  -15.5990 C.2    71  ASP71       0.3668
     28  OD1       54.4900   12.7040  -16.5910 O.co2  71  ASP71      -0.2456
     29  OD2       55.4450   10.8120  -15.7640 O.co2  71  ASP71      -0.2456
     30  N         54.7220   12.7740   -9.3640 N.3    77  ARG77      -0.1245
     31  CA        54.6880   11.3220   -9.4540 C.3    77  ARG77       0.1563
     32  C         55.9080   10.6600   -8.8510 C.2    77  ARG77       0.2260
     33  O         56.9960   11.2920   -8.8550 O.2    77  ARG77      -0.2867
     34  CB        54.6830   11.0070  -11.0080 C.3    77  ARG77       0.0307
     35  CG        54.4940    9.5070  -11.2550 C.3    77  ARG77       0.0489
     36  CD        54.5950    9.2800  -12.7690 C.3    77  ARG77       0.2205
     37  NE        54.3670    7.8590  -13.0070 N.pl3  77  ARG77      -0.0865
     38  CZ        54.7850    7.2360  -14.1170 C.cat  77  ARG77       0.5346
     39  NH1       55.2830    7.9460  -15.1390 N.pl3  77  ARG77       0.1354
     40  NH2       54.5570    5.9130  -14.2530 N.pl3  77  ARG77       0.1354
     41  N         55.5840   17.8750  -15.9500 N.3   120  LEU120     -0.1245
     42  CA        55.0330   17.3960  -17.2200 C.3   120  LEU120      0.1561
     43  C         53.4780   17.5230  -17.2440 C.2   120  LEU120      0.2260
     44  O         52.7620   16.5070  -17.1390 O.2   120  LEU120     -0.2867
     45  CB        55.5080   15.9370  -17.4480 C.3   120  LEU120      0.0270
     46  CG        57.0680   15.8870  -17.4160 C.3   120  LEU120      0.0019
     47  CD1       57.5080   14.4020  -17.5710 C.3   120  LEU120      0.0001
     48  CD2       57.6180   16.6720  -18.6390 C.3   120  LEU120      0.0001
     49  N         42.4280    8.9340  -21.6120 N.3   135  ARG135     -0.1245
     50  CA        43.2060    9.9270  -20.8890 C.3   135  ARG135      0.1563
     51  C         42.4380   11.2510  -20.9030 C.2   135  ARG135      0.2260
     52  O         43.0080   12.2310  -20.4650 O.2   135  ARG135     -0.2867
     53  CB        44.6230   10.0840  -21.4800 C.3   135  ARG135      0.0307
     54  CG        45.4600    8.7920  -21.2850 C.3   135  ARG135      0.0489
     55  CD        46.8990    8.9710  -21.7950 C.3   135  ARG135      0.2205
     56  NE        47.6260    9.7360  -20.7800 N.pl3 135  ARG135     -0.0865
     57  CZ        48.8630   10.1960  -20.9770 C.cat 135  ARG135      0.5346
     58  NH1       49.4190    9.9700  -22.1680 N.pl3 135  ARG135      0.1354
     59  NH2       49.5120   10.8860  -20.0020 N.pl3 135  ARG135      0.1354
     60  N         50.8350   19.5150  -22.8080 N.3   168  LYS168     -0.1231
     61  CA        50.8890   18.2320  -23.5170 C.3   168  LYS168      0.1693
     62  C         49.4580   17.7330  -23.7760 C.2   168  LYS168      0.2592
     63  O         48.5240   18.2880  -23.2230 O.2   168  LYS168     -0.2718
     64  CB        51.7040   17.1680  -22.6930 C.3   168  LYS168      0.0285
     65  CG        50.9660   16.6450  -21.4280 C.3   168  LYS168      0.0035
     66  CD        51.8820   15.7020  -20.6170 C.3   168  LYS168      0.0206
     67  CE        51.1070   14.9840  -19.4630 C.3   168  LYS168      0.1093
     68  NZ        52.0980   14.1580  -18.6780 N.3   168  LYS168     -0.1314
     69  N         49.2360   16.7440  -24.6650 N.am  169  HIS169     -0.1976
     70  CA        50.2120   16.1850  -25.6410 C.3   169  HIS169      0.1656
     71  C         49.8850   16.8190  -26.9850 C.2   169  HIS169      0.2291
     72  O         48.7240   16.8390  -27.3960 O.2   169  HIS169     -0.2864
     73  CB        50.0000   14.6610  -25.7650 C.3   169  HIS169      0.0771
     74  CG        50.0760   13.9620  -24.4270 C.ar  169  HIS169      0.0820
     75  ND1       49.0200   13.9050  -23.5360 N.ar  169  HIS169     -0.2267
     76  CD2       51.1250   13.3830  -23.8100 C.ar  169  HIS169      0.1154
     77  CE1       49.4200   13.2820  -22.4250 C.ar  169  HIS169      0.1986
     78  NE2       50.6980   12.9620  -22.5830 N.ar  169  HIS169     -0.2212
     79  N         55.0400   19.1910  -24.9740 N.3   224  MET224     -0.1245
     80  CA        55.4130   17.8080  -25.3060 C.3   224  MET224      0.1570
     81  C         54.6830   17.3020  -26.5120 C.2   224  MET224      0.2261
     82  O         53.4240   17.3680  -26.5390 O.2   224  MET224     -0.2867
     83  CB        55.0490   16.8260  -24.1030 C.3   224  MET224      0.0387
     84  CG        55.5160   15.3770  -24.3700 C.3   224  MET224      0.0595
     85  SD        54.8580   14.3140  -23.0420 S.3   224  MET224     -0.1393
     86  CE        55.6070   15.0740  -21.5470 C.3   224  MET224      0.0692
     87  N         52.6990   10.7810  -29.2330 N.3   227  TYR227     -0.1241
     88  CA        53.1180    9.4500  -29.7470 C.3   227  TYR227      0.1605
     89  C         52.4490    9.1850  -31.0980 C.2   227  TYR227      0.2264
     90  O         52.9430    8.3970  -31.9050 O.2   227  TYR227     -0.2867
     91  CB        52.4900    8.4160  -28.7860 C.3   227  TYR227      0.0534
     92  CG        53.2590    8.2190  -27.5170 C.ar  227  TYR227     -0.0201
     93  CD1       54.6210    7.8600  -27.5720 C.ar  227  TYR227     -0.0009
     94  CD2       52.5830    8.2740  -26.2620 C.ar  227  TYR227     -0.0009
     95  CE1       55.3440    7.5770  -26.3530 C.ar  227  TYR227      0.0417
     96  CE2       53.2500    8.0070  -25.0340 C.ar  227  TYR227      0.0417
     97  CZ        54.6310    7.6560  -25.0940 C.ar  227  TYR227      0.1957
     98  OH        55.3340    7.3900  -23.9480 O.3   227  TYR227     -0.2866
     99  N         57.4410   13.0730  -26.1850 N.3   259  ASP259     -0.1225
    100  CA        56.9360   12.0960  -25.2200 C.3   259  ASP259      0.1805
    101  C         57.9500   10.8440  -25.2060 C.2   259  ASP259      0.2597
    102  O         58.9090   10.8080  -26.0050 O.2   259  ASP259     -0.2718
    103  CB        55.4830   11.7220  -25.6200 C.3   259  ASP259      0.1424
    104  CG        54.7270   11.0740  -24.5020 C.2   259  ASP259      0.3668
    105  OD1       55.3590   10.6030  -23.4900 O.co2 259  ASP259     -0.2456
    106  OD2       53.4750   11.1580  -24.5690 O.co2 259  ASP259     -0.2456
    107  N         57.7910    9.8980  -24.2350 N.am  260  TRP260     -0.1976
    108  CA        58.9090    9.0010  -23.8660 C.3   260  TRP260      0.1640
    109  C         58.8160    7.8030  -24.7610 C.2   260  TRP260      0.2290
    110  O         57.8820    6.9600  -24.6160 O.2   260  TRP260     -0.2864
    111  CB        58.6990    8.5960  -22.3860 C.3   260  TRP260      0.0576
    112  CG        59.3860    9.4540  -21.3430 C.ar  260  TRP260      0.0006
    113  CD1       60.1150    8.9610  -20.2720 C.ar  260  TRP260      0.0946
    114  CD2       59.3980   10.9060  -21.1860 C.ar  260  TRP260      0.0152
    115  NE1       60.5770    9.9830  -19.4850 N.ar  260  TRP260     -0.2442
    116  CE2       60.1100   11.1800  -19.9840 C.ar  260  TRP260      0.0810
    117  CE3       58.7660   11.9700  -21.8590 C.ar  260  TRP260      0.0012
    118  CZ2       60.3320   12.5180  -19.4850 C.ar  260  TRP260      0.0191
    119  CZ3       58.9710   13.3270  -21.3740 C.ar  260  TRP260      0.0001
    120  CH2       59.7300   13.5730  -20.1710 C.ar  260  TRP260      0.0015
    121  N         50.7190    7.4610  -16.1570 N.3   430  SER430     -0.1217
    122  CA        51.7150    8.4680  -15.7410 C.3   430  SER430      0.1889
    123  C         51.0860    9.6970  -15.0790 C.2   430  SER430      0.2288
    124  O         51.8040   10.4760  -14.4410 O.2   430  SER430     -0.2866
    125  CB        52.5100    8.9740  -16.9870 C.3   430  SER430      0.2089
    126  OG        51.5890    9.6740  -17.8530 O.3   430  SER430     -0.2183
    127  N         46.1370    5.5770  -18.8430 N.3   488  GLU488     -0.1245
    128  CA        47.0660    5.5610  -19.9130 C.3   488  GLU488      0.1567
    129  C         47.1460    4.1380  -20.5330 C.2   488  GLU488      0.2260
    130  O         47.0880    3.1290  -19.8200 O.2   488  GLU488     -0.2867
    131  CB        48.4510    5.9590  -19.4050 C.3   488  GLU488      0.0388
    132  CG        49.3270    6.3590  -20.5720 C.3   488  GLU488      0.1160
    133  CD        50.6540    7.0060  -20.1680 C.2   488  GLU488      0.3649
    134  OE1       50.7580    7.5860  -19.0390 O.co2 488  GLU488     -0.2457
    135  OE2       51.5690    6.9800  -21.0150 O.co2 488  GLU488     -0.2457
@<TRIPOS>BOND
     1    90    89    2
     2    89    88    1
     3    88    87    1
     4    88    91    1
     5    91    92    1
     6    93    92   ar
     7    93    95   ar
     8    92    94   ar
     9    72    71    2
    10    71    70    1
    11    82    81    2
    12    81    80    1
    13    95    97   ar
    14    94    96   ar
    15    99   100    1
    16   102   101    2
    17    73    70    1
    18    73    74    1
    19    70    69    1
    20   103   100    1
    21   103   104    1
    22    80    79    1
    23    80    83    1
    24   100   101    1
    25   101   107   am
    26    97    96   ar
    27    97    98    1
    28   109   110    2
    29   109   108    1
    30    69    62   am
    31   106   104   ar
    32   104   105   ar
    33    74    76   ar
    34    74    75   ar
    35    84    83    1
    36    84    85    1
    37   107   108    1
    38   108   111    1
    39    76    78   ar
    40    62    61    1
    41    62    63    2
    42    75    77   ar
    43    61    60    1
    44    61    64    1
    45    85    86    1
    46    64    65    1
    47    78    77   ar
    48   111   112    1
    49    58    57    1
    50   117   119   ar
    51   117   114   ar
    52    55    54    1
    53    55    56    1
    54    49    50    1
    55    53    54    1
    56    53    50    1
    57    65    66    1
    58   119   120   ar
    59   112   114   ar
    60   112   113   ar
    61   114   116   ar
    62   135   133   ar
    63    57    56    2
    64    57    59    1
    65    51    50    1
    66    51    52    2
    67    66    67    1
    68   132   133    1
    69   132   131    1
    70   129   128    1
    71   129   130    2
    72   113   115   ar
    73   120   118   ar
    74   133   134   ar
    75   116   118   ar
    76   116   115   ar
    77   128   131    1
    78   128   127    1
    79     1     2    1
    80     5     2    1
    81     5     6    1
    82    67    68    1
    83     2     3    1
    84    48    46    1
    85     6     7   ar
    86     6     8   ar
    87    11     8   ar
    88    11    13   ar
    89     7     9   ar
    90     8    10   ar
    91   126   125    1
    92    47    46    1
    93    13    14   ar
    94     9    10   ar
    95     3     4    2
    96    45    46    1
    97    45    42    1
    98    10    12   ar
    99    43    42    1
   100    43    44    2
   101    42    41    1
   102    18    17    2
   103   125   122    1
   104    14    12   ar
   105    28    27   ar
   106    20    19    1
   107    17    16    1
   108   121   122    1
   109    29    27   ar
   110   122   123    1
   111    27    26    1
   112    39    38    1
   113    19    16    1
   114    19    21    1
   115   123   124    2
   116    16    15    1
   117    40    38    1
   118    26    23    1
   119    38    37    2
   120    22    23    1
   121    23    24    1
   122    37    36    1
   123    36    35    1
   124    24    25    2
   125    35    34    1
   126    34    31    1
   127    31    30    1
   128    31    32    1
   129    33    32    2
