@<TRIPOS>MOLECULE
tmp/4iidB04.pdb
 138 134 0 0 0
SMALL
GASTEIGER

@<TRIPOS>ATOM
      1  N        -46.5840    9.8530   46.0620 N.3     2  ALA2       -0.1231
      2  CA       -46.8060   11.2550   45.7140 C.3     2  ALA2        0.1694
      3  C        -48.3150   11.6120   45.6710 C.2     2  ALA2        0.2592
      4  O        -49.1630   10.7890   45.3900 O.2     2  ALA2       -0.2718
      5  CB       -46.1120   11.6170   44.3990 C.3     2  ALA2        0.0304
      6  N        -48.6190   12.8660   45.9420 N.am    3  PHE3       -0.1962
      7  CA       -49.9780   13.3080   46.1890 C.3     3  PHE3        0.1771
      8  C        -50.1950   14.6140   45.4390 C.2     3  PHE3        0.2620
      9  O        -49.2820   15.4740   45.3780 O.2     3  PHE3       -0.2715
     10  CB       -50.1930   13.5480   47.7340 C.3     3  PHE3        0.0574
     11  CG       -51.5670   14.0750   48.0720 C.ar    3  PHE3       -0.0200
     12  CD1      -52.7150   13.2280   48.0050 C.ar    3  PHE3       -0.0042
     13  CD2      -51.7490   15.4250   48.4360 C.ar    3  PHE3       -0.0042
     14  CE1      -54.0180   13.7440   48.2680 C.ar    3  PHE3       -0.0003
     15  CE2      -53.0360   15.9310   48.7030 C.ar    3  PHE3       -0.0003
     16  CZ       -54.1690   15.0900   48.6320 C.ar    3  PHE3       -0.0000
     17  N        -51.3980   14.7800   44.8930 N.am    4  SER4       -0.1936
     18  CA       -51.7120   15.9470   44.0880 C.3     4  SER4        0.2040
     19  C        -52.6970   16.8250   44.8500 C.2     4  SER4        0.2485
     20  O        -53.8490   16.4720   44.9950 O.2     4  SER4       -0.2729
     21  CB       -52.2020   15.5210   42.6610 C.3     4  SER4        0.2129
     22  OG       -52.2230   16.6180   41.7510 O.3     4  SER4       -0.2179
     23  N        -52.2400   17.9870   45.3520 N.am    5  PRO5       -0.2726
     24  CA       -53.1040   18.8540   46.2090 C.3     5  PRO5        0.1402
     25  C        -54.2970   19.3740   45.3990 C.2     5  PRO5        0.2269
     26  O        -54.1430   19.5480   44.2030 O.2     5  PRO5       -0.2865
     27  CB       -52.1810   20.0190   46.6160 C.3     5  PRO5        0.0296
     28  CG       -50.8080   19.5810   46.2700 C.3     5  PRO5        0.0237
     29  CD       -50.8990   18.5540   45.1660 C.3     5  PRO5        0.0939
     30  N        -43.3660   14.8920   39.9000 N.3   199  VAL199     -0.1231
     31  CA       -42.5070   15.9860   39.5070 C.3   199  VAL199      0.1692
     32  C        -42.6540   17.1350   40.5280 C.2   199  VAL199      0.2592
     33  O        -43.7770   17.5040   40.9310 O.2   199  VAL199     -0.2718
     34  CB       -42.8880   16.4940   38.0640 C.3   199  VAL199      0.0266
     35  CG1      -41.9500   17.5820   37.5450 C.3   199  VAL199      0.0020
     36  CG2      -42.9120   15.3090   37.0690 C.3   199  VAL199      0.0020
     37  N        -41.5190   17.6780   40.9280 N.am  200  ASP200     -0.1960
     38  CA       -41.4950   18.8180   41.8470 C.3   200  ASP200      0.1840
     39  C        -42.0290   20.0930   41.1380 C.2   200  ASP200      0.2622
     40  O        -42.0950   20.1510   39.9210 O.2   200  ASP200     -0.2715
     41  CB       -40.0850   18.9880   42.4740 C.3   200  ASP200      0.1450
     42  CG       -39.1090   19.6620   41.5190 C.2   200  ASP200      0.3671
     43  OD1      -38.9890   20.9130   41.5100 O.co2 200  ASP200     -0.2456
     44  OD2      -38.4750   18.9490   40.7280 O.co2 200  ASP200     -0.2456
     45  N        -42.4260   21.0950   41.8980 N.am  201  ASP201     -0.1971
     46  CA       -43.1250   22.2850   41.3470 C.3   201  ASP201      0.1709
     47  C        -42.2340   23.1960   40.5110 C.2   201  ASP201      0.2293
     48  O        -42.6950   23.7920   39.5260 O.2   201  ASP201     -0.2864
     49  CB       -43.7700   23.0510   42.5090 C.3   201  ASP201      0.1436
     50  CG       -44.6710   24.2210   42.0760 C.2   201  ASP201      0.3671
     51  OD1      -45.5060   24.1250   41.1230 O.co2 201  ASP201     -0.2456
     52  OD2      -44.5420   25.2600   42.7500 O.co2 201  ASP201     -0.2456
     53  N        -41.5240   21.5020   36.9880 N.3   204  ILE204     -0.1245
     54  CA       -42.7080   21.5810   36.0910 C.3   204  ILE204      0.1561
     55  C        -42.8070   22.9770   35.4730 C.2   204  ILE204      0.2260
     56  O        -43.0100   23.0830   34.2740 O.2   204  ILE204     -0.2867
     57  CB       -44.0930   21.0830   36.7120 C.3   204  ILE204      0.0252
     58  CG1      -45.1110   20.7730   35.5970 C.3   204  ILE204      0.0019
     59  CG2      -44.7640   22.1220   37.6540 C.3   204  ILE204      0.0019
     60  CD1      -46.2120   19.8030   36.0080 C.3   204  ILE204      0.0001
     61  N        -50.3940   12.5880   37.2970 N.3   230  ILE230     -0.1231
     62  CA       -49.3530   13.3940   37.8630 C.3   230  ILE230      0.1692
     63  C        -49.5810   13.2700   39.3560 C.2   230  ILE230      0.2592
     64  O        -50.7050   13.5040   39.8590 O.2   230  ILE230     -0.2718
     65  CB       -49.4500   14.8850   37.3990 C.3   230  ILE230      0.0266
     66  CG1      -49.3030   14.9930   35.8680 C.3   230  ILE230      0.0019
     67  CG2      -48.3730   15.7280   38.0460 C.3   230  ILE230      0.0020
     68  CD1      -50.6130   14.9950   35.1340 C.3   230  ILE230      0.0001
     69  N        -48.5480   12.8620   40.0860 N.am  231  ASN231     -0.1974
     70  CA       -48.6440   12.6170   41.5350 C.3   231  ASN231      0.1688
     71  C        -49.9410   11.8640   41.8170 C.2   231  ASN231      0.2292
     72  O        -50.6750   12.2260   42.7740 O.2   231  ASN231     -0.2864
     73  CB       -48.6870   13.9130   42.3590 C.3   231  ASN231      0.1181
     74  CG       -47.4430   14.7990   42.2040 C.2   231  ASN231      0.2629
     75  OD1      -46.5410   14.5340   41.4240 O.2   231  ASN231     -0.2716
     76  ND2      -47.4330   15.8620   42.9650 N.am  231  ASN231     -0.0877
     77  N        -54.9400   20.4090   40.1100 N.3   240  TYR240     -0.1227
     78  CA       -53.7090   21.1750   40.1920 C.3   240  TYR240      0.1736
     79  C        -53.1710   21.5840   38.7800 C.2   240  TYR240      0.2596
     80  O        -52.9330   22.7800   38.4830 O.2   240  TYR240     -0.2718
     81  CB       -52.6160   20.4550   41.0880 C.3   240  TYR240      0.0548
     82  CG       -51.6130   21.4590   41.6440 C.ar  240  TYR240     -0.0200
     83  CD1      -51.7740   21.9950   42.9490 C.ar  240  TYR240     -0.0009
     84  CD2      -50.5610   21.9590   40.8450 C.ar  240  TYR240     -0.0009
     85  CE1      -50.8850   22.9490   43.4590 C.ar  240  TYR240      0.0417
     86  CE2      -49.6630   22.9090   41.3380 C.ar  240  TYR240      0.0417
     87  CZ       -49.8330   23.4070   42.6540 C.ar  240  TYR240      0.1957
     88  OH       -48.9820   24.3680   43.1720 O.3   240  TYR240     -0.2866
     89  N        -53.0170   20.6350   37.8820 N.am  241  THR241     -0.1953
     90  CA       -52.4830   20.9700   36.5130 C.3   241  THR241      0.1897
     91  C        -53.5000   21.7450   35.7110 C.2   241  THR241      0.2313
     92  O        -53.1190   22.7600   35.0650 O.2   241  THR241     -0.2863
     93  CB       -52.0180   19.7590   35.7220 C.3   241  THR241      0.1794
     94  OG1      -53.0900   18.8450   35.5730 O.3   241  THR241     -0.2208
     95  CG2      -50.9320   19.0040   36.4700 C.3   241  THR241      0.0378
     96  N        -55.3410   24.9710   38.5240 N.3   244  LYS244     -0.1231
     97  CA       -54.3460   25.9350   39.0070 C.3   244  LYS244      0.1693
     98  C        -53.3640   26.3750   37.9510 C.2   244  LYS244      0.2591
     99  O        -53.2670   27.5880   37.6070 O.2   244  LYS244     -0.2718
    100  CB       -53.5750   25.4310   40.2310 C.3   244  LYS244      0.0285
    101  CG       -52.7400   26.5620   40.8580 C.3   244  LYS244      0.0035
    102  CD       -52.0990   26.1260   42.1750 C.3   244  LYS244      0.0206
    103  CE       -51.2880   27.2870   42.7830 C.3   244  LYS244      0.1093
    104  NZ       -50.4150   26.7120   43.8510 N.3   244  LYS244     -0.1314
    105  N        -52.5900   25.4020   37.4750 N.am  245  LEU245     -0.1980
    106  CA       -51.5120   25.6850   36.5230 C.3   245  LEU245      0.1596
    107  C        -52.0920   26.2540   35.1640 C.2   245  LEU245      0.2287
    108  O        -51.8150   27.4150   34.8040 O.2   245  LEU245     -0.2864
    109  CB       -50.6500   24.3960   36.3370 C.3   245  LEU245      0.0297
    110  CG       -49.7950   23.9570   37.5450 C.3   245  LEU245      0.0022
    111  CD1      -48.6670   23.0590   37.1370 C.3   245  LEU245      0.0001
    112  CD2      -49.2340   25.2230   38.2370 C.3   245  LEU245      0.0001
    113  N        -40.9200   28.2900   44.7340 N.3   799  VAL799     -0.1231
    114  CA       -42.0440   27.5080   45.2530 C.3   799  VAL799      0.1692
    115  C        -42.6590   28.2010   46.4810 C.2   799  VAL799      0.2592
    116  O        -43.8730   28.2160   46.5910 O.2   799  VAL799     -0.2718
    117  CB       -41.6640   26.0300   45.5530 C.3   799  VAL799      0.0266
    118  CG1      -41.2000   25.3040   44.2850 C.3   799  VAL799      0.0020
    119  CG2      -40.5210   25.9530   46.5660 C.3   799  VAL799      0.0020
    120  N        -41.8340   28.8180   47.3590 N.am  800  ALA800     -0.1966
    121  CA       -42.3680   29.5930   48.5130 C.3   800  ALA800      0.1728
    122  C        -43.2550   30.7890   48.0840 C.2   800  ALA800      0.2616
    123  O        -44.2970   31.0350   48.6810 O.2   800  ALA800     -0.2715
    124  CB       -41.2510   30.0530   49.4660 C.3   800  ALA800      0.0334
    125  N        -42.8800   31.5030   47.0280 N.am  801  ALA801     -0.1963
    126  CA       -43.5770   32.7320   46.6870 C.3   801  ALA801      0.1728
    127  C        -44.7190   32.3800   45.7290 C.2   801  ALA801      0.2616
    128  O        -45.6030   33.2140   45.3990 O.2   801  ALA801     -0.2715
    129  CB       -42.6100   33.7020   46.0340 C.3   801  ALA801      0.0334
    130  N        -44.6830   31.1450   45.2480 N.am  802  GLN802     -0.1977
    131  CA       -45.5500   30.7700   44.1380 C.3   802  GLN802      0.1601
    132  C        -45.4550   31.7910   42.9760 C.2   802  GLN802      0.2287
    133  O        -46.4840   32.2310   42.3910 O.2   802  GLN802     -0.2864
    134  CB       -46.9840   30.4870   44.6210 C.3   802  GLN802      0.0394
    135  CG       -47.0910   29.1470   45.3550 C.3   802  GLN802      0.0908
    136  CD       -46.8240   27.8550   44.4740 C.2   802  GLN802      0.2608
    137  OE1      -47.6400   27.5070   43.5700 O.2   802  GLN802     -0.2717
    138  NE2      -45.7330   27.1110   44.7780 N.am  802  GLN802     -0.0878
@<TRIPOS>BOND
     1    56    55    2
     2   108   107    2
     3    92    91    2
     4    68    66    1
     5   107   106    1
     6    55    54    1
     7    94    93    1
     8    58    60    1
     9    58    57    1
    10    91    90    1
    11    93    95    1
    12    93    90    1
    13    66    65    1
    14    54    57    1
    15    54    53    1
    16   109   106    1
    17   109   110    1
    18    90    89    1
    19   106   105    1
    20    57    59    1
    21    36    34    1
    22   111   110    1
    23    61    62    1
    24    65    62    1
    25    65    67    1
    26   105    98   am
    27   110   112    1
    28    35    34    1
    29    99    98    2
    30    62    63    1
    31    89    79   am
    32    98    97    1
    33    34    31    1
    34    80    79    2
    35    96    97    1
    36    79    78    1
    37    97   100    1
    38    63    64    2
    39    63    69   am
    40    31    30    1
    41    31    32    1
    42    48    47    2
    43    40    39    2
    44    69    70    1
    45    77    78    1
    46    78    81    1
    47   100   101    1
    48    47    46    1
    49    32    37   am
    50    32    33    2
    51    44    42   ar
    52    84    86   ar
    53    84    82   ar
    54   101   102    1
    55    37    38    1
    56    81    82    1
    57    51    50   ar
    58    39    38    1
    59    39    45   am
    60    86    87   ar
    61    46    45    1
    62    46    49    1
    63    75    74    2
    64    43    42   ar
    65    42    41    1
    66    70    71    1
    67    70    73    1
    68    82    83   ar
    69    22    21    1
    70    71    72    2
    71    38    41    1
    72    50    49    1
    73    50    52   ar
    74   102   103    1
    75    74    73    1
    76    74    76   am
    77   133   132    2
    78    87    88    1
    79    87    85   ar
    80    21    18    1
    81   103   104    1
    82    83    85   ar
    83   132   131    1
    84   137   136    2
    85    18    19    1
    86    18    17    1
    87   131   134    1
    88   131   130    1
    89    26    25    2
    90   118   117    1
    91     5     2    1
    92   136   138   am
    93   136   135    1
    94   134   135    1
    95   113   114    1
    96    19    20    2
    97    19    23   am
    98    17     8   am
    99    29    23    1
   100    29    28    1
   101   130   127   am
   102   114   117    1
   103   114   115    1
   104    23    24    1
   105     9     8    2
   106     4     3    2
   107   128   127    2
   108    25    24    1
   109     8     7    1
   110   117   119    1
   111     3     2    1
   112     3     6   am
   113     2     1    1
   114   127   126    1
   115     6     7    1
   116   129   126    1
   117     7    10    1
   118    24    27    1
   119    28    27    1
   120   115   116    2
   121   115   120   am
   122   126   125    1
   123   125   122   am
   124   120   121    1
   125    10    11    1
   126    12    11   ar
   127    12    14   ar
   128    11    13   ar
   129   122   121    1
   130   122   123    2
   131    14    16   ar
   132    13    15   ar
   133   121   124    1
   134    16    15   ar
