@<TRIPOS>MOLECULE
tmp/4iidB01.pdb
 146 139 0 0 0
SMALL
GASTEIGER

@<TRIPOS>ATOM
      1  N        -67.1220    6.1080   19.9150 N.3    47  TRP47      -0.1241
      2  CA       -65.9990    5.7530   19.0520 C.3    47  TRP47       0.1605
      3  C        -66.4710    5.2640   17.6910 C.2    47  TRP47       0.2264
      4  O        -67.2130    4.2960   17.6500 O.2    47  TRP47      -0.2867
      5  CB       -65.1540    4.7370   19.7440 C.3    47  TRP47       0.0550
      6  CG       -64.0040    4.1860   18.9000 C.ar   47  TRP47       0.0003
      7  CD1      -63.8090    2.8200   18.5270 C.ar   47  TRP47       0.0946
      8  CD2      -62.8710    4.9030   18.3800 C.ar   47  TRP47       0.0152
      9  NE1      -62.6540    2.7000   17.8000 N.ar   47  TRP47      -0.2442
     10  CE2      -62.0500    3.9490   17.6970 C.ar   47  TRP47       0.0810
     11  CE3      -62.4690    6.2540   18.4120 C.ar   47  TRP47       0.0012
     12  CZ2      -60.8430    4.3190   17.0410 C.ar   47  TRP47       0.0191
     13  CZ3      -61.3010    6.6220   17.7430 C.ar   47  TRP47       0.0001
     14  CH2      -60.4990    5.6550   17.0590 C.ar   47  TRP47       0.0015
     15  N        -62.0290   11.2690   13.9660 N.3    53  VAL53      -0.1245
     16  CA       -61.4440   10.6570   15.1470 C.3    53  VAL53       0.1561
     17  C        -62.2010   11.0400   16.4410 C.2    53  VAL53       0.2260
     18  O        -62.4380   10.2040   17.2600 O.2    53  VAL53      -0.2867
     19  CB       -59.9170   11.0030   15.1820 C.3    53  VAL53       0.0252
     20  CG1      -59.2710   10.6950   16.5330 C.3    53  VAL53       0.0019
     21  CG2      -59.2540   10.2880   13.9850 C.3    53  VAL53       0.0019
     22  N        -56.7170   13.7980   14.1420 N.3    71  ASP71      -0.1239
     23  CA       -55.2570   13.6490   14.1200 C.3    71  ASP71       0.1674
     24  C        -54.7520   14.1400   12.7230 C.2    71  ASP71       0.2266
     25  O        -55.5840   14.2630   11.8020 O.2    71  ASP71      -0.2867
     26  CB       -54.9510   12.1570   14.2850 C.3    71  ASP71       0.1410
     27  CG       -55.1470   11.6530   15.7200 C.2    71  ASP71       0.3668
     28  OD1      -54.8120   12.4140   16.6590 O.co2  71  ASP71      -0.2456
     29  OD2      -55.6070   10.4780   15.9250 O.co2  71  ASP71      -0.2456
     30  N        -54.7530   12.6350    9.3980 N.3    77  ARG77      -0.1245
     31  CA       -54.8360   11.2080    9.5900 C.3    77  ARG77       0.1563
     32  C        -56.1020   10.5700    8.9610 C.2    77  ARG77       0.2260
     33  O        -57.2010   11.1420    8.9570 O.2    77  ARG77      -0.2867
     34  CB       -54.8580   10.9090   11.0730 C.3    77  ARG77       0.0307
     35  CG       -54.6560    9.4360   11.3250 C.3    77  ARG77       0.0489
     36  CD       -54.7990    9.1360   12.8040 C.3    77  ARG77       0.2205
     37  NE       -54.4840    7.7480   13.0180 N.pl3  77  ARG77      -0.0865
     38  CZ       -54.7480    7.0980   14.1420 C.cat  77  ARG77       0.5346
     39  NH1      -55.2990    7.7910   15.1850 N.pl3  77  ARG77       0.1354
     40  NH2      -54.4270    5.7910   14.2340 N.pl3  77  ARG77       0.1354
     41  N        -55.7250   17.8280   16.0550 N.3   120  LEU120     -0.1245
     42  CA       -55.2430   17.2980   17.3350 C.3   120  LEU120      0.1561
     43  C        -53.7190   17.4260   17.2910 C.2   120  LEU120      0.2260
     44  O        -52.9880   16.4070   17.2270 O.2   120  LEU120     -0.2867
     45  CB       -55.6870   15.8140   17.5220 C.3   120  LEU120      0.0270
     46  CG       -57.2100   15.7230   17.5460 C.3   120  LEU120      0.0019
     47  CD1      -57.6590   14.2520   17.6930 C.3   120  LEU120      0.0001
     48  CD2      -57.8110   16.5730   18.6800 C.3   120  LEU120      0.0001
     49  N        -42.6470    8.9720   21.7110 N.3   135  ARG135     -0.1245
     50  CA       -43.3760   10.0250   20.9380 C.3   135  ARG135      0.1563
     51  C        -42.6400   11.3190   20.9280 C.2   135  ARG135      0.2260
     52  O        -43.2080   12.3780   20.6260 O.2   135  ARG135     -0.2867
     53  CB       -44.7960   10.2260   21.5040 C.3   135  ARG135      0.0307
     54  CG       -45.5660    8.8470   21.4810 C.3   135  ARG135      0.0489
     55  CD       -47.0030    9.0320   21.9500 C.3   135  ARG135      0.2205
     56  NE       -47.7640    9.8200   20.9770 N.pl3 135  ARG135     -0.0865
     57  CZ       -49.0550   10.1360   21.0940 C.cat 135  ARG135      0.5346
     58  NH1      -49.7250    9.8370   22.2070 N.pl3 135  ARG135      0.1354
     59  NH2      -49.6460   10.7870   20.0870 N.pl3 135  ARG135      0.1354
     60  N        -50.9830   19.5170   22.8820 N.3   168  LYS168     -0.1231
     61  CA       -51.0620   18.2290   23.6020 C.3   168  LYS168      0.1693
     62  C        -49.6690   17.6750   23.8640 C.2   168  LYS168      0.2592
     63  O        -48.6910   18.1430   23.2400 O.2   168  LYS168     -0.2718
     64  CB       -51.9190   17.2190   22.8100 C.3   168  LYS168      0.0285
     65  CG       -51.1560   16.5630   21.6590 C.3   168  LYS168      0.0035
     66  CD       -52.0600   15.8330   20.6630 C.3   168  LYS168      0.0206
     67  CE       -51.2810   14.8250   19.8160 C.3   168  LYS168      0.1093
     68  NZ       -52.2080   14.1250   18.8630 N.3   168  LYS168     -0.1314
     69  N        -49.5040   16.7270   24.7980 N.am  169  HIS169     -0.1976
     70  CA       -50.4640   16.2060   25.7670 C.3   169  HIS169      0.1656
     71  C        -50.1270   16.8500   27.0930 C.2   169  HIS169      0.2291
     72  O        -48.9620   16.8260   27.5330 O.2   169  HIS169     -0.2864
     73  CB       -50.2530   14.6760   25.9000 C.3   169  HIS169      0.0771
     74  CG       -50.3100   13.9600   24.5770 C.ar  169  HIS169      0.0820
     75  ND1      -49.2000   13.7660   23.7990 N.ar  169  HIS169     -0.2267
     76  CD2      -51.3450   13.4310   23.8740 C.ar  169  HIS169      0.1154
     77  CE1      -49.5370   13.1670   22.6620 C.ar  169  HIS169      0.1986
     78  NE2      -50.8350   12.9620   22.6810 N.ar  169  HIS169     -0.2212
     79  N        -48.6960    3.8260   30.0170 N.3   179  ARG179     -0.1245
     80  CA       -49.5250    5.0130   29.8370 C.3   179  ARG179      0.1563
     81  C        -51.0240    4.6850   29.8990 C.2   179  ARG179      0.2260
     82  O        -51.8180    5.6130   30.1070 O.2   179  ARG179     -0.2867
     83  CB       -49.2380    5.7170   28.4990 C.3   179  ARG179      0.0307
     84  CG       -49.7990    4.9710   27.2730 C.3   179  ARG179      0.0489
     85  CD       -49.5190    5.6980   25.9510 C.3   179  ARG179      0.2205
     86  NE       -50.2730    5.0630   24.8970 N.pl3 179  ARG179     -0.0865
     87  CZ       -50.8530    5.6730   23.8520 C.cat 179  ARG179      0.5346
     88  NH1      -50.7770    7.0270   23.6750 N.pl3 179  ARG179      0.1354
     89  NH2      -51.5990    4.9270   23.0270 N.pl3 179  ARG179      0.1354
     90  N        -55.2140   19.2510   25.1310 N.3   224  MET224     -0.1245
     91  CA       -55.5920   17.8300   25.3570 C.3   224  MET224      0.1570
     92  C        -54.8450   17.2750   26.5480 C.2   224  MET224      0.2261
     93  O        -53.5660   17.2290   26.5110 O.2   224  MET224     -0.2867
     94  CB       -55.2920   16.9510   24.1440 C.3   224  MET224      0.0387
     95  CG       -55.7410   15.4900   24.3820 C.3   224  MET224      0.0595
     96  SD       -55.0500   14.3520   23.1820 S.3   224  MET224     -0.1393
     97  CE       -55.7410   14.9550   21.6240 C.3   224  MET224      0.0692
     98  N        -52.9300   10.8050   29.3260 N.3   227  TYR227     -0.1241
     99  CA       -53.3570    9.4900   29.8110 C.3   227  TYR227      0.1605
    100  C        -52.7730    9.1810   31.1680 C.2   227  TYR227      0.2264
    101  O        -53.3210    8.3660   31.9120 O.2   227  TYR227     -0.2867
    102  CB       -52.7920    8.4340   28.9250 C.3   227  TYR227      0.0534
    103  CG       -53.5490    8.1580   27.6760 C.ar  227  TYR227     -0.0201
    104  CD1      -54.8980    7.8320   27.7210 C.ar  227  TYR227     -0.0009
    105  CD2      -52.9050    8.2230   26.4080 C.ar  227  TYR227     -0.0009
    106  CE1      -55.6010    7.5440   26.5650 C.ar  227  TYR227      0.0417
    107  CE2      -53.5970    7.8700   25.2300 C.ar  227  TYR227      0.0417
    108  CZ       -54.9490    7.5610   25.3160 C.ar  227  TYR227      0.1957
    109  OH       -55.6870    7.2450   24.1860 O.3   227  TYR227     -0.2866
    110  N        -57.7740   13.0670   26.4430 N.3   259  ASP259     -0.1225
    111  CA       -57.2530   12.0590   25.5170 C.3   259  ASP259      0.1805
    112  C        -58.2740   10.8840   25.4190 C.2   259  ASP259      0.2597
    113  O        -59.2710   10.8540   26.1680 O.2   259  ASP259     -0.2718
    114  CB       -55.8300   11.6180   25.9080 C.3   259  ASP259      0.1424
    115  CG       -55.0330   11.2490   24.7040 C.2   259  ASP259      0.3668
    116  OD1      -55.6750   10.9850   23.6880 O.co2 259  ASP259     -0.2456
    117  OD2      -53.7930   11.1740   24.7360 O.co2 259  ASP259     -0.2456
    118  N        -58.0420    9.9440   24.5020 N.am  260  TRP260     -0.1976
    119  CA       -59.0870    9.0170   24.0600 C.3   260  TRP260      0.1640
    120  C        -59.0610    7.7730   24.9560 C.2   260  TRP260      0.2290
    121  O        -58.1920    6.8630   24.7750 O.2   260  TRP260     -0.2864
    122  CB       -58.8210    8.6380   22.6130 C.3   260  TRP260      0.0576
    123  CG       -59.4790    9.4310   21.5360 C.ar  260  TRP260      0.0006
    124  CD1      -60.2430    8.9160   20.5100 C.ar  260  TRP260      0.0946
    125  CD2      -59.4940   10.8880   21.3440 C.ar  260  TRP260      0.0152
    126  NE1      -60.7180    9.9540   19.6910 N.ar  260  TRP260     -0.2442
    127  CE2      -60.2630   11.1540   20.1640 C.ar  260  TRP260      0.0810
    128  CE3      -58.8940   11.9470   21.9930 C.ar  260  TRP260      0.0012
    129  CZ2      -60.4660   12.4390   19.6620 C.ar  260  TRP260      0.0191
    130  CZ3      -59.0830   13.2700   21.4750 C.ar  260  TRP260      0.0001
    131  CH2      -59.8610   13.4950   20.3380 C.ar  260  TRP260      0.0015
    132  N        -50.8340    7.3100   16.2440 N.3   430  SER430     -0.1217
    133  CA       -51.8580    8.2790   15.8350 C.3   430  SER430      0.1889
    134  C        -51.2240    9.5170   15.1700 C.2   430  SER430      0.2288
    135  O        -51.9260   10.3080   14.5870 O.2   430  SER430     -0.2866
    136  CB       -52.6430    8.7230   17.0810 C.3   430  SER430      0.2089
    137  OG       -51.7810    9.6060   17.8470 O.3   430  SER430     -0.2183
    138  N        -46.0510    5.5440   19.0950 N.3   488  GLU488     -0.1245
    139  CA       -47.0360    5.4760   20.1280 C.3   488  GLU488      0.1567
    140  C        -47.1970    4.0500   20.7340 C.2   488  GLU488      0.2260
    141  O        -47.1310    3.0420   20.0240 O.2   488  GLU488     -0.2867
    142  CB       -48.3770    5.9890   19.5670 C.3   488  GLU488      0.0388
    143  CG       -49.3900    6.2130   20.6610 C.3   488  GLU488      0.1160
    144  CD       -50.7100    6.7760   20.1760 C.2   488  GLU488      0.3649
    145  OE1      -50.7980    7.2230   19.0010 O.co2 488  GLU488     -0.2457
    146  OE2      -51.6750    6.7210   20.9620 O.co2 488  GLU488     -0.2457
@<TRIPOS>BOND
     1    33    32    2
     2    32    31    1
     3    30    31    1
     4    31    34    1
     5    34    35    1
     6    35    36    1
     7    25    24    2
     8    24    23    1
     9    36    37    1
    10    37    38    2
    11    15    16    1
    12    21    19    1
    13    23    22    1
    14    23    26    1
    15    38    40    1
    16    38    39    1
    17    26    27    1
    18   135   134    2
    19    16    19    1
    20    16    17    1
    21   134   133    1
    22    19    20    1
    23    27    29   ar
    24    27    28   ar
    25   133   132    1
    26   133   136    1
    27    41    42    1
    28    17    18    2
    29    12    14   ar
    30    12    10   ar
    31    14    13   ar
    32   136   137    1
    33    44    43    2
    34    43    42    1
    35    42    45    1
    36    45    46    1
    37    46    47    1
    38    46    48    1
    39     4     3    2
    40     3     2    1
    41    10     9   ar
    42    10     8   ar
    43    13    11   ar
    44     9     7   ar
    45     8    11   ar
    46     8     6   ar
    47     7     6   ar
    48    68    67    1
    49     6     5    1
    50   145   144   ar
    51     2     5    1
    52     2     1    1
    53   138   139    1
    54   142   139    1
    55   142   143    1
    56   129   127   ar
    57   129   131   ar
    58   126   127   ar
    59   126   124   ar
    60    67    66    1
    61   141   140    2
    62    59    57    1
    63   139   140    1
    64   127   125   ar
    65   144   143    1
    66   144   146   ar
    67   131   130   ar
    68   124   123   ar
    69    52    51    2
    70    66    65    1
    71    51    50    1
    72    50    53    1
    73    50    49    1
    74    56    57    2
    75    56    55    1
    76    57    58    1
    77   125   123   ar
    78   125   128   ar
    79   130   128   ar
    80    54    53    1
    81    54    55    1
    82   123   122    1
    83    97    96    1
    84    65    64    1
    85   122   119    1
    86    77    78   ar
    87    77    75   ar
    88    78    76   ar
    89    64    61    1
    90    60    61    1
    91    89    87    1
    92    96    95    1
    93    63    62    2
    94    61    62    1
    95    88    87    1
    96   116   115   ar
    97    75    74   ar
    98    87    86    2
    99    62    69   am
   100    76    74   ar
   101   119   118    1
   102   119   120    1
   103    94    95    1
   104    94    91    1
   105   109   108    1
   106   118   112   am
   107    74    73    1
   108   115   117   ar
   109   115   114    1
   110   121   120    2
   111    69    70    1
   112    86    85    1
   113    90    91    1
   114   107   108   ar
   115   107   105   ar
   116   108   106   ar
   117    91    92    1
   118   112   111    1
   119   112   113    2
   120   111   114    1
   121   111   110    1
   122    70    73    1
   123    70    71    1
   124    85    84    1
   125   105   103   ar
   126    93    92    2
   127   106   104   ar
   128    71    72    2
   129    84    83    1
   130   103   104   ar
   131   103   102    1
   132    83    80    1
   133   102    99    1
   134    98    99    1
   135    99   100    1
   136    80    81    1
   137    80    79    1
   138    81    82    2
   139   100   101    2
