@<TRIPOS>MOLECULE
tmp/4iieB07.pdb
 87 83 0 0 0
SMALL
GASTEIGER

@<TRIPOS>ATOM
      1  N         31.2110   -0.1790   -3.2110 N.3   402  GLU402     -0.1245
      2  CA        32.6510   -0.3320   -3.0740 C.3   402  GLU402      0.1567
      3  C         33.3110    1.0240   -3.2550 C.2   402  GLU402      0.2260
      4  O         34.2860    1.2750   -2.5850 O.2   402  GLU402     -0.2867
      5  CB        33.1580   -1.2740   -4.1310 C.3   402  GLU402      0.0388
      6  CG        34.7010   -1.4180   -4.0160 C.3   402  GLU402      0.1160
      7  CD        35.3000   -2.4730   -4.9840 C.2   402  GLU402      0.3649
      8  OE1       34.5690   -3.3670   -5.3940 O.co2 402  GLU402     -0.2457
      9  OE2       36.5210   -2.4920   -5.2160 O.co2 402  GLU402     -0.2457
     10  N         41.5680   -2.1450   -0.4120 N.3   408  SER408     -0.1202
     11  CA        42.1860   -3.0840    0.5200 C.3   408  SER408      0.2020
     12  C         43.6950   -3.2820    0.3310 C.2   408  SER408      0.2618
     13  O         44.3320   -3.9050    1.1790 O.2   408  SER408     -0.2717
     14  CB        41.4210   -4.4540    0.3820 C.3   408  SER408      0.2103
     15  OG        41.7520   -4.9360   -0.9540 O.3   408  SER408     -0.2182
     16  N         44.2720   -2.8940   -0.7880 N.am  409  TYR409     -0.1975
     17  CA        45.7440   -2.9390   -0.9610 C.3   409  TYR409      0.1639
     18  C         46.4290   -1.6760   -0.4680 C.2   409  TYR409      0.2290
     19  O         47.6690   -1.5060   -0.6290 O.2   409  TYR409     -0.2864
     20  CB        46.1050   -3.0740   -2.4830 C.3   409  TYR409      0.0560
     21  CG        45.6010   -4.3310   -3.1480 C.ar  409  TYR409     -0.0198
     22  CD1       45.2450   -5.4710   -2.3840 C.ar  409  TYR409     -0.0009
     23  CD2       45.4910   -4.3970   -4.5630 C.ar  409  TYR409     -0.0009
     24  CE1       44.7630   -6.6030   -3.0340 C.ar  409  TYR409      0.0417
     25  CE2       45.0320   -5.5270   -5.1990 C.ar  409  TYR409      0.0417
     26  CZ        44.7010   -6.6290   -4.4240 C.ar  409  TYR409      0.1957
     27  OH        44.2230   -7.7690   -5.0620 O.3   409  TYR409     -0.2866
     28  N         48.0250   -0.1110   -5.8650 N.3   414  CYS414     -0.1235
     29  CA        48.0460   -0.5500   -7.2840 C.3   414  CYS414      0.1677
     30  C         49.0000    0.3410   -7.9350 C.2   414  CYS414      0.2270
     31  O         48.9010    1.5900   -7.8210 O.2   414  CYS414     -0.2867
     32  CB        46.6450   -0.4620   -7.9470 C.3   414  CYS414      0.0956
     33  SG        45.4180   -1.4770   -7.0060 S.3   414  CYS414     -0.0801
     34  N         46.7440    1.3430  -11.0870 N.3   418  GLY418     -0.1210
     35  CA        46.2190    0.4790  -12.1550 C.3   418  GLY418      0.1956
     36  C         45.2150   -0.5490  -11.6320 C.2   418  GLY418      0.2612
     37  O         45.3820   -1.7290  -11.8540 O.2   418  GLY418     -0.2717
     38  N         44.1780   -0.1070  -10.9110 N.am  419  CYS419     -0.1956
     39  CA        43.0200   -0.9430  -10.5450 C.3   419  CYS419      0.1843
     40  C         41.8290   -0.0410  -10.2130 C.2   419  CYS419      0.2625
     41  O         41.9820    1.1960  -10.1110 O.2   419  CYS419     -0.2714
     42  CB        43.3300   -1.8410   -9.3330 C.3   419  CYS419      0.0997
     43  SG        43.4870   -0.8680   -7.7760 S.3   419  CYS419     -0.0797
     44  N         40.6480   -0.6320  -10.0270 N.am  420  ASP420     -0.1957
     45  CA        39.5170    0.1900   -9.6490 C.3   420  ASP420      0.1840
     46  C         38.9440   -0.3300   -8.3350 C.2   420  ASP420      0.2622
     47  O         37.7700   -0.7510   -8.2800 O.2   420  ASP420     -0.2715
     48  CB        38.4580    0.1490  -10.7210 C.3   420  ASP420      0.1450
     49  CG        37.2380    0.9920  -10.3960 C.2   420  ASP420      0.3671
     50  OD1       37.4130    2.1060   -9.8060 O.co2 420  ASP420     -0.2456
     51  OD2       36.0920    0.5140  -10.6970 O.co2 420  ASP420     -0.2456
     52  N         39.7280   -0.2650   -7.2550 N.am  421  ASN421     -0.1972
     53  CA        39.3000   -0.9220   -5.9820 C.3   421  ASN421      0.1688
     54  C         39.0780    0.1270   -4.9060 C.2   421  ASN421      0.2292
     55  O         39.9140    0.9830   -4.7100 O.2   421  ASN421     -0.2864
     56  CB        40.3620   -1.9060   -5.5040 C.3   421  ASN421      0.1181
     57  CG        40.4880   -3.1390   -6.4100 C.2   421  ASN421      0.2629
     58  OD1       39.9160   -3.2010   -7.5400 O.2   421  ASN421     -0.2716
     59  ND2       41.2540   -4.1550   -5.9200 N.am  421  ASN421     -0.0877
     60  N         42.9860   -2.6900  -17.1780 N.3   493  VAL493     -0.1231
     61  CA        42.2250   -3.1600  -16.0250 C.3   493  VAL493      0.1692
     62  C         40.9480   -3.7670  -16.5310 C.2   493  VAL493      0.2592
     63  O         40.1670   -3.0690  -17.2360 O.2   493  VAL493     -0.2718
     64  CB        41.8090   -2.0020  -15.0490 C.3   493  VAL493      0.0266
     65  CG1       41.0800   -2.5170  -13.8030 C.3   493  VAL493      0.0020
     66  CG2       43.0850   -1.3100  -14.6240 C.3   493  VAL493      0.0020
     67  N         40.7510   -5.0540  -16.1610 N.am  494  ASP494     -0.1960
     68  CA        39.5770   -5.8290  -16.6300 C.3   494  ASP494      0.1840
     69  C         39.3970   -5.7790  -18.1840 C.2   494  ASP494      0.2622
     70  O         38.2910   -5.6480  -18.6880 O.2   494  ASP494     -0.2715
     71  CB        38.2850   -5.3870  -15.9010 C.3   494  ASP494      0.1450
     72  CG        37.1080   -6.3250  -16.1880 C.2   494  ASP494      0.3671
     73  OD1       37.3390   -7.5480  -16.2200 O.co2 494  ASP494     -0.2456
     74  OD2       35.9580   -5.8570  -16.3860 O.co2 494  ASP494     -0.2456
     75  N         40.4940   -5.7920  -18.9440 N.am  495  GLY495     -0.1954
     76  CA        40.3950   -5.7700  -20.4050 C.3   495  GLY495      0.1869
     77  C         40.1610   -4.3820  -20.9850 C.2   495  GLY495      0.2309
     78  O         40.0240   -4.2320  -22.2030 O.2   495  GLY495     -0.2863
     79  N         31.7040   -2.5100  -11.6460 N.3   507  LYS507     -0.1245
     80  CA        31.3680   -3.2160  -10.3950 C.3   507  LYS507      0.1561
     81  C         29.9020   -3.2210  -10.0760 C.2   507  LYS507      0.2260
     82  O         29.5330   -2.9170   -8.9420 O.2   507  LYS507     -0.2867
     83  CB        32.2560   -2.6780   -9.2560 C.3   507  LYS507      0.0271
     84  CG        33.7490   -2.8480   -9.7200 C.3   507  LYS507      0.0035
     85  CD        34.6720   -3.2540   -8.6110 C.3   507  LYS507      0.0206
     86  CE        36.0870   -3.4710   -9.1130 C.3   507  LYS507      0.1093
     87  NZ        36.8480   -3.6970   -7.8500 N.3   507  LYS507     -0.1314
@<TRIPOS>BOND
     1    78    77    2
     2    77    76    1
     3    76    75    1
     4    75    69   am
     5    70    69    2
     6    69    68    1
     7    63    62    2
     8    60    61    1
     9    68    67    1
    10    68    71    1
    11    62    67   am
    12    62    61    1
    13    74    72   ar
    14    73    72   ar
    15    72    71    1
    16    61    64    1
    17    64    66    1
    18    64    65    1
    19    35    36    1
    20    35    34    1
    21    37    36    2
    22    79    80    1
    23    36    38   am
    24    38    39    1
    25    48    49    1
    26    48    45    1
    27    51    49   ar
    28    39    40    1
    29    39    42    1
    30    49    50   ar
    31    80    81    1
    32    80    83    1
    33    40    41    2
    34    40    44   am
    35    81    82    2
    36    44    45    1
    37    84    83    1
    38    84    85    1
    39    45    46    1
    40    42    43    1
    41    86    85    1
    42    86    87    1
    43    46    47    2
    44    46    52   am
    45    32    29    1
    46    32    33    1
    47    30    31    2
    48    30    29    1
    49    43    33    1
    50    58    57    2
    51    29    28    1
    52    52    53    1
    53    57    59   am
    54    57    56    1
    55    53    56    1
    56    53    54    1
    57     8     7   ar
    58     9     7   ar
    59    25    23   ar
    60    25    26   ar
    61    27    26    1
    62     7     6    1
    63    54    55    2
    64    23    21   ar
    65    26    24   ar
    66     5     6    1
    67     5     2    1
    68     3     2    1
    69     3     4    2
    70     1     2    1
    71    21    20    1
    72    21    22   ar
    73    24    22   ar
    74    20    17    1
    75    17    16    1
    76    17    18    1
    77    15    14    1
    78    16    12   am
    79    19    18    2
    80    10    11    1
    81    12    11    1
    82    12    13    2
    83    14    11    1
