@<TRIPOS>MOLECULE
tmp/4iieB02.pdb
 144 136 0 0 0
SMALL
GASTEIGER

@<TRIPOS>ATOM
      1  N         61.7500   11.4190  -14.0540 N.3    53  VAL53      -0.1245
      2  CA        61.2520   10.6490  -15.1700 C.3    53  VAL53       0.1561
      3  C         61.8960   11.0820  -16.5050 C.2    53  VAL53       0.2260
      4  O         62.0320   10.2650  -17.3850 O.2    53  VAL53      -0.2867
      5  CB        59.6620   10.5010  -15.2120 C.3    53  VAL53       0.0252
      6  CG1       58.9020   10.4290  -13.8540 C.3    53  VAL53       0.0019
      7  CG2       59.0210   11.3460  -16.2150 C.3    53  VAL53       0.0019
      8  N         56.4600   13.9080  -14.0890 N.3    71  ASP71      -0.1239
      9  CA        55.0050   13.7940  -14.1070 C.3    71  ASP71       0.1674
     10  C         54.5400   14.2600  -12.6870 C.2    71  ASP71       0.2266
     11  O         55.3600   14.2830  -11.7810 O.2    71  ASP71      -0.2867
     12  CB        54.6810   12.3340  -14.3500 C.3    71  ASP71       0.1410
     13  CG        54.7150   11.9780  -15.8630 C.2    71  ASP71       0.3668
     14  OD1       54.3750   12.8650  -16.6700 O.co2  71  ASP71      -0.2456
     15  OD2       55.0230   10.8210  -16.2460 O.co2  71  ASP71      -0.2456
     16  N         54.6080   12.7330   -9.4800 N.3    77  ARG77      -0.1245
     17  CA        54.6430   11.2820   -9.6210 C.3    77  ARG77       0.1563
     18  C         55.8810   10.6430   -8.9710 C.2    77  ARG77       0.2260
     19  O         56.9820   11.2180   -8.9970 O.2    77  ARG77      -0.2867
     20  CB        54.6640   10.9540  -11.1570 C.3    77  ARG77       0.0307
     21  CG        54.3830    9.4600  -11.3910 C.3    77  ARG77       0.0489
     22  CD        54.4900    9.1660  -12.8900 C.3    77  ARG77       0.2205
     23  NE        54.2740    7.7330  -13.0660 N.pl3  77  ARG77      -0.0865
     24  CZ        54.6920    7.0500  -14.1340 C.cat  77  ARG77       0.5346
     25  NH1       55.2140    7.7050  -15.1570 N.pl3  77  ARG77       0.1354
     26  NH2       54.4900    5.7340  -14.2230 N.pl3  77  ARG77       0.1354
     27  N         55.5290   17.9370  -16.0570 N.3   120  LEU120     -0.1245
     28  CA        55.0040   17.4570  -17.3430 C.3   120  LEU120      0.1561
     29  C         53.4640   17.5500  -17.3030 C.2   120  LEU120      0.2260
     30  O         52.7600   16.5100  -17.2260 O.2   120  LEU120     -0.2867
     31  CB        55.4480   15.9860  -17.5470 C.3   120  LEU120      0.0270
     32  CG        57.0200   15.8870  -17.5420 C.3   120  LEU120      0.0019
     33  CD1       57.4700   14.4480  -17.6420 C.3   120  LEU120      0.0001
     34  CD2       57.5570   16.7180  -18.7910 C.3   120  LEU120      0.0001
     35  N         42.4110    8.9290  -21.6840 N.3   135  ARG135     -0.1245
     36  CA        43.1470    9.9560  -20.9320 C.3   135  ARG135      0.1563
     37  C         42.3910   11.2410  -20.9590 C.2   135  ARG135      0.2260
     38  O         42.9510   12.2420  -20.5670 O.2   135  ARG135     -0.2867
     39  CB        44.6120   10.1740  -21.4930 C.3   135  ARG135      0.0307
     40  CG        45.4340    8.8460  -21.5430 C.3   135  ARG135      0.0489
     41  CD        46.8950    9.0580  -22.0010 C.3   135  ARG135      0.2205
     42  NE        47.6720    9.7260  -20.9880 N.pl3 135  ARG135     -0.0865
     43  CZ        48.9680   10.0210  -21.0880 C.cat 135  ARG135      0.5346
     44  NH1       49.6370    9.7630  -22.1910 N.pl3 135  ARG135      0.1354
     45  NH2       49.5550   10.6550  -20.0650 N.pl3 135  ARG135      0.1354
     46  N         50.7960   19.6240  -22.9260 N.3   168  LYS168     -0.1231
     47  CA        50.8700   18.3240  -23.6120 C.3   168  LYS168      0.1693
     48  C         49.4380   17.7630  -23.8700 C.2   168  LYS168      0.2592
     49  O         48.4680   18.2900  -23.3440 O.2   168  LYS168     -0.2718
     50  CB        51.6290   17.2220  -22.7730 C.3   168  LYS168      0.0285
     51  CG        50.8650   16.6720  -21.5460 C.3   168  LYS168      0.0035
     52  CD        51.7540   15.7830  -20.6520 C.3   168  LYS168      0.0206
     53  CE        50.9640   15.0090  -19.5910 C.3   168  LYS168      0.1093
     54  NZ        51.8800   14.1710  -18.7020 N.3   168  LYS168     -0.1314
     55  N         49.2550   16.7050  -24.7020 N.am  169  HIS169     -0.1976
     56  CA        50.2230   16.2240  -25.6910 C.3   169  HIS169      0.1656
     57  C         49.8440   16.7860  -27.0200 C.2   169  HIS169      0.2291
     58  O         48.6610   16.6820  -27.4290 O.2   169  HIS169     -0.2864
     59  CB        50.0990   14.6170  -25.7970 C.3   169  HIS169      0.0771
     60  CG        50.1140   13.9640  -24.4380 C.ar  169  HIS169      0.0820
     61  ND1       48.9700   13.8030  -23.6820 N.ar  169  HIS169     -0.2267
     62  CD2       51.1330   13.4460  -23.6920 C.ar  169  HIS169      0.1154
     63  CE1       49.2890   13.2580  -22.5100 C.ar  169  HIS169      0.1986
     64  NE2       50.5930   13.0140  -22.5000 N.ar  169  HIS169     -0.2212
     65  N         48.5290    3.7280  -29.9740 N.3   179  ARG179     -0.1245
     66  CA        49.3110    4.9750  -29.8640 C.3   179  ARG179      0.1563
     67  C         50.8160    4.6430  -29.9490 C.2   179  ARG179      0.2260
     68  O         51.6010    5.5470  -30.2300 O.2   179  ARG179     -0.2867
     69  CB        49.0850    5.6790  -28.4780 C.3   179  ARG179      0.0307
     70  CG        49.6130    4.8240  -27.3090 C.3   179  ARG179      0.0489
     71  CD        49.3090    5.5220  -25.9720 C.3   179  ARG179      0.2205
     72  NE        49.9580    4.7420  -24.9250 N.pl3 179  ARG179     -0.0865
     73  CZ        50.5320    5.3040  -23.8420 C.cat 179  ARG179      0.5346
     74  NH1       50.4720    6.6520  -23.6470 N.pl3 179  ARG179      0.1354
     75  NH2       51.1650    4.5160  -22.9780 N.pl3 179  ARG179      0.1354
     76  N         54.9590   19.3450  -25.1180 N.3   224  MET224     -0.1245
     77  CA        55.3590   17.9260  -25.3380 C.3   224  MET224      0.1570
     78  C         54.6300   17.3920  -26.5720 C.2   224  MET224      0.2261
     79  O         53.3750   17.4030  -26.5980 O.2   224  MET224     -0.2867
     80  CB        55.0330   17.0120  -24.1140 C.3   224  MET224      0.0387
     81  CG        55.4990   15.5630  -24.3870 C.3   224  MET224      0.0595
     82  SD        54.8800   14.4430  -23.1290 S.3   224  MET224     -0.1393
     83  CE        55.4930   15.2390  -21.6030 C.3   224  MET224      0.0692
     84  N         52.6550   10.8370  -29.3560 N.3   227  TYR227     -0.1241
     85  CA        53.0810    9.5140  -29.8660 C.3   227  TYR227      0.1605
     86  C         52.4310    9.2880  -31.2260 C.2   227  TYR227      0.2264
     87  O         52.9300    8.5030  -32.0220 O.2   227  TYR227     -0.2867
     88  CB        52.4760    8.3890  -28.9470 C.3   227  TYR227      0.0534
     89  CG        53.1850    8.2230  -27.6560 C.ar  227  TYR227     -0.0201
     90  CD1       54.5350    7.8650  -27.6390 C.ar  227  TYR227     -0.0009
     91  CD2       52.4880    8.3200  -26.4210 C.ar  227  TYR227     -0.0009
     92  CE1       55.1840    7.6480  -26.4170 C.ar  227  TYR227      0.0417
     93  CE2       53.1270    8.1210  -25.2040 C.ar  227  TYR227      0.0417
     94  CZ        54.4730    7.8100  -25.2190 C.ar  227  TYR227      0.1957
     95  OH        55.1380    7.5590  -24.0320 O.3   227  TYR227     -0.2866
     96  N         57.4720   13.1520  -26.4170 N.3   259  ASP259     -0.1225
     97  CA        56.9400   12.1530  -25.5090 C.3   259  ASP259      0.1805
     98  C         57.9450   10.9300  -25.4480 C.2   259  ASP259      0.2597
     99  O         58.9300   10.9080  -26.1670 O.2   259  ASP259     -0.2718
    100  CB        55.4560   11.8140  -25.8750 C.3   259  ASP259      0.1424
    101  CG        54.6970   11.2900  -24.7010 C.2   259  ASP259      0.3668
    102  OD1       55.3530   10.9000  -23.7070 O.co2 259  ASP259     -0.2456
    103  OD2       53.4400   11.2130  -24.7400 O.co2 259  ASP259     -0.2456
    104  N         57.7670    9.9930  -24.4890 N.am  260  TRP260     -0.1976
    105  CA        58.8430    9.1260  -24.0270 C.3   260  TRP260      0.1640
    106  C         58.8420    7.9320  -24.9630 C.2   260  TRP260      0.2290
    107  O         57.9830    7.0320  -24.8390 O.2   260  TRP260     -0.2864
    108  CB        58.5370    8.7100  -22.5770 C.3   260  TRP260      0.0576
    109  CG        59.2080    9.5250  -21.5090 C.ar  260  TRP260      0.0006
    110  CD1       60.0040    9.0170  -20.4660 C.ar  260  TRP260      0.0946
    111  CD2       59.2620   10.9730  -21.3620 C.ar  260  TRP260      0.0152
    112  NE1       60.4570   10.0650  -19.6660 N.ar  260  TRP260     -0.2442
    113  CE2       59.9930   11.2540  -20.1830 C.ar  260  TRP260      0.0810
    114  CE3       58.6740   12.0510  -22.0450 C.ar  260  TRP260      0.0012
    115  CZ2       60.2320   12.6140  -19.7230 C.ar  260  TRP260      0.0191
    116  CZ3       58.8700   13.3760  -21.5680 C.ar  260  TRP260      0.0001
    117  CH2       59.6180   13.6370  -20.4450 C.ar  260  TRP260      0.0015
    118  N         50.5360    7.3220  -16.1270 N.3   430  SER430     -0.1217
    119  CA        51.5740    8.2480  -15.7140 C.3   430  SER430      0.1889
    120  C         50.9620    9.5300  -15.1040 C.2   430  SER430      0.2288
    121  O         51.6950   10.3200  -14.5040 O.2   430  SER430     -0.2866
    122  CB        52.3730    8.6300  -16.9990 C.3   430  SER430      0.2089
    123  OG        51.6090    9.6120  -17.7330 O.3   430  SER430     -0.2183
    124  N         45.9430    5.4980  -18.9070 N.3   488  GLU488     -0.1245
    125  CA        46.8550    5.4880  -20.0040 C.3   488  GLU488      0.1567
    126  C         46.9750    4.0370  -20.6080 C.2   488  GLU488      0.2260
    127  O         46.8680    3.0690  -19.8680 O.2   488  GLU488     -0.2867
    128  CB        48.2030    5.9350  -19.4510 C.3   488  GLU488      0.0388
    129  CG        49.1910    6.2440  -20.5710 C.3   488  GLU488      0.1160
    130  CD        50.5460    6.7270  -20.0960 C.2   488  GLU488      0.3649
    131  OE1       50.6260    7.2730  -18.9960 O.co2 488  GLU488     -0.2457
    132  OE2       51.5190    6.5890  -20.8770 O.co2 488  GLU488     -0.2457
    133  N         49.2290    1.7900  -21.4310 N.3   490  TYR490     -0.1241
    134  CA        50.1860    0.7040  -21.0890 C.3   490  TYR490      0.1605
    135  C         49.6300   -0.1970  -19.9410 C.2   490  TYR490      0.2264
    136  O         50.1950   -1.2140  -19.6270 O.2   490  TYR490     -0.2867
    137  CB        51.6050    1.2590  -20.7860 C.3   490  TYR490      0.0534
    138  CG        51.6690    2.0250  -19.4820 C.ar  490  TYR490     -0.0201
    139  CD1       52.0510    1.4000  -18.3080 C.ar  490  TYR490     -0.0009
    140  CD2       51.3790    3.4530  -19.4370 C.ar  490  TYR490     -0.0009
    141  CE1       52.1190    2.1010  -17.0860 C.ar  490  TYR490      0.0417
    142  CE2       51.4400    4.1320  -18.2240 C.ar  490  TYR490      0.0417
    143  CZ        51.8550    3.4850  -17.0810 C.ar  490  TYR490      0.1957
    144  OH        51.9740    4.1710  -15.9060 O.3   490  TYR490     -0.2866
@<TRIPOS>BOND
     1    87    86    2
     2    86    85    1
     3    68    67    2
     4    65    66    1
     5    67    66    1
     6    85    84    1
     7    85    88    1
     8    66    69    1
     9    88    89    1
    10    69    70    1
    11    89    90   ar
    12    89    91   ar
    13    90    92   ar
    14    58    57    2
    15    70    71    1
    16    57    56    1
    17    79    78    2
    18    78    77    1
    19    91    93   ar
    20    92    94   ar
    21    96    97    1
    22    99    98    2
    23    71    72    1
    24   100    97    1
    25   100   101    1
    26    59    56    1
    27    59    60    1
    28    56    55    1
    29    97    98    1
    30    98   104   am
    31    77    76    1
    32    77    80    1
    33    94    93   ar
    34    94    95    1
    35   106   107    2
    36   106   105    1
    37    72    73    2
    38   103   101   ar
    39    55    48   am
    40   101   102   ar
    41   104   105    1
    42    60    62   ar
    43    60    61   ar
    44    81    80    1
    45    81    82    1
    46   105   108    1
    47    48    47    1
    48    48    49    2
    49    73    74    1
    50    73    75    1
    51    62    64   ar
    52    61    63   ar
    53    47    46    1
    54    47    50    1
    55    82    83    1
    56    50    51    1
    57   108   109    1
    58    63    64   ar
    59    44    43    1
    60   114   116   ar
    61   114   111   ar
    62    41    40    1
    63    41    42    1
    64    35    36    1
    65   116   117   ar
    66    51    52    1
    67    40    39    1
    68   109   111   ar
    69   109   110   ar
    70    39    36    1
    71   133   134    1
    72   111   113   ar
    73   134   137    1
    74   134   135    1
    75    43    42    2
    76    43    45    1
    77    37    36    1
    78    37    38    2
    79   132   130   ar
    80   137   138    1
    81    52    53    1
    82   126   125    1
    83   126   127    2
    84   129   130    1
    85   129   128    1
    86   110   112   ar
    87   117   115   ar
    88   113   115   ar
    89   113   112   ar
    90   130   131   ar
    91   125   128    1
    92   125   124    1
    93   135   136    2
    94    53    54    1
    95   138   140   ar
    96   138   139   ar
    97   140   142   ar
    98    34    32    1
    99   139   141   ar
   100   142   143   ar
   101   123   122    1
   102    33    32    1
   103    31    32    1
   104    31    28    1
   105     4     3    2
   106    28    29    1
   107    28    27    1
   108    29    30    2
   109   141   143   ar
   110   143   144    1
   111   122   119    1
   112    14    13   ar
   113     3     2    1
   114    15    13   ar
   115     7     5    1
   116   118   119    1
   117    13    12    1
   118   119   120    1
   119     5     2    1
   120     5     6    1
   121     2     1    1
   122    25    24    1
   123   120   121    2
   124    12     9    1
   125    26    24    1
   126    24    23    2
   127     9     8    1
   128     9    10    1
   129    23    22    1
   130    22    21    1
   131    10    11    2
   132    21    20    1
   133    20    17    1
   134    17    16    1
   135    17    18    1
   136    19    18    2
