@<TRIPOS>MOLECULE
tmp/4iieB05.pdb
 158 152 0 0 0
SMALL
GASTEIGER

@<TRIPOS>ATOM
      1  N         46.2680    9.8710  -45.9550 N.3     2  ALA2       -0.1231
      2  CA        46.4440   11.2720  -45.5560 C.3     2  ALA2        0.1694
      3  C         47.9400   11.6020  -45.5870 C.2     2  ALA2        0.2592
      4  O         48.8060   10.7460  -45.3200 O.2     2  ALA2       -0.2718
      5  CB        45.9190   11.4860  -44.1440 C.3     2  ALA2        0.0304
      6  N         48.2710   12.8440  -45.9340 N.am    3  PHE3       -0.1962
      7  CA        49.6550   13.1790  -46.1480 C.3     3  PHE3        0.1771
      8  C         49.9150   14.4700  -45.3950 C.2     3  PHE3        0.2620
      9  O         49.0150   15.3420  -45.3690 O.2     3  PHE3       -0.2715
     10  CB        49.8580   13.4660  -47.6660 C.3     3  PHE3        0.0574
     11  CG        51.2270   14.0380  -47.9840 C.ar    3  PHE3       -0.0200
     12  CD1       52.3680   13.2170  -47.9270 C.ar    3  PHE3       -0.0042
     13  CD2       51.3620   15.3890  -48.3720 C.ar    3  PHE3       -0.0042
     14  CE1       53.6720   13.7390  -48.2090 C.ar    3  PHE3       -0.0003
     15  CE2       52.6500   15.8890  -48.6670 C.ar    3  PHE3       -0.0003
     16  CZ        53.7840   15.0760  -48.5440 C.ar    3  PHE3       -0.0000
     17  N         51.1230   14.6450  -44.8580 N.am    4  SER4       -0.1936
     18  CA        51.3640   15.8780  -44.0270 C.3     4  SER4        0.2043
     19  C         52.3390   16.8140  -44.7580 C.2     4  SER4        0.2522
     20  O         53.5270   16.4790  -44.9180 O.2     4  SER4       -0.2726
     21  CB        51.9300   15.4550  -42.6280 C.3     4  SER4        0.2129
     22  OG        51.9260   16.5810  -41.7470 O.3     4  SER4       -0.2179
     23  N         51.8710   17.9970  -45.2130 N.am    5  PRO5       -0.2503
     24  CA        52.8120   18.7290  -46.0780 C.3     5  PRO5        0.1487
     25  C         53.9580   19.3660  -45.3110 C.2     5  PRO5        0.2276
     26  O         53.8200   19.5850  -44.1120 O.2     5  PRO5       -0.2865
     27  CB        51.9500   19.8010  -46.7910 C.3     5  PRO5        0.0556
     28  CG        50.5960   19.7550  -46.1740 C.2     5  PRO5       -0.0078
     29  CD        50.5000   18.5260  -45.2250 C.2     5  PRO5        0.0634
     30  N         43.1060   14.8970  -39.8280 N.3   199  VAL199     -0.1231
     31  CA        42.1770   15.9780  -39.4840 C.3   199  VAL199      0.1692
     32  C         42.3440   17.1650  -40.4590 C.2   199  VAL199      0.2592
     33  O         43.4740   17.5420  -40.8140 O.2   199  VAL199     -0.2718
     34  CB        42.4720   16.5370  -38.0260 C.3   199  VAL199      0.0266
     35  CG1       41.3370   17.4290  -37.5730 C.3   199  VAL199      0.0020
     36  CG2       42.5680   15.3320  -37.0740 C.3   199  VAL199      0.0020
     37  N         41.2350   17.7450  -40.8580 N.am  200  ASP200     -0.1960
     38  CA        41.2580   18.8710  -41.8270 C.3   200  ASP200      0.1840
     39  C         41.7630   20.1390  -41.1110 C.2   200  ASP200      0.2622
     40  O         41.7400   20.2530  -39.8620 O.2   200  ASP200     -0.2715
     41  CB        39.8460   19.1030  -42.4880 C.3   200  ASP200      0.1450
     42  CG        38.8450   19.6150  -41.4880 C.2   200  ASP200      0.3671
     43  OD1       38.2830   18.7660  -40.7560 O.co2 200  ASP200     -0.2456
     44  OD2       38.6430   20.8810  -41.3210 O.co2 200  ASP200     -0.2456
     45  N         42.1770   21.1040  -41.8850 N.am  201  ASP201     -0.1957
     46  CA        42.8080   22.3450  -41.3550 C.3   201  ASP201      0.1840
     47  C         41.8620   23.2160  -40.5560 C.2   201  ASP201      0.2621
     48  O         42.2550   23.7500  -39.4870 O.2   201  ASP201     -0.2715
     49  CB        43.4800   23.0790  -42.5260 C.3   201  ASP201      0.1450
     50  CG        44.3580   24.2560  -42.1130 C.2   201  ASP201      0.3671
     51  OD1       45.2080   24.2060  -41.1670 O.co2 201  ASP201     -0.2456
     52  OD2       44.2450   25.2350  -42.8660 O.co2 201  ASP201     -0.2456
     53  N         40.6130   23.3430  -40.9940 N.am  202  LYS202     -0.1977
     54  CA        39.6650   24.1550  -40.2580 C.3   202  LYS202      0.1596
     55  C         39.4150   23.5500  -38.8220 C.2   202  LYS202      0.2287
     56  O         39.4130   24.2830  -37.8320 O.2   202  LYS202     -0.2864
     57  CB        38.3160   24.2010  -40.9670 C.3   202  LYS202      0.0298
     58  CG        37.2840   25.1280  -40.2890 C.3   202  LYS202      0.0038
     59  CD        36.0340   25.1590  -41.1890 C.3   202  LYS202      0.0206
     60  CE        34.9630   26.1370  -40.7150 C.3   202  LYS202      0.1093
     61  NZ        34.2810   25.4750  -39.5670 N.3   202  LYS202     -0.1314
     62  N         41.2300   21.4770  -37.0870 N.3   204  ILE204     -0.1245
     63  CA        42.3330   21.4760  -36.1680 C.3   204  ILE204      0.1561
     64  C         42.4290   22.9110  -35.5270 C.2   204  ILE204      0.2260
     65  O         42.6570   23.0470  -34.3000 O.2   204  ILE204     -0.2867
     66  CB        43.7140   20.9960  -36.7900 C.3   204  ILE204      0.0252
     67  CG1       44.5850   20.4000  -35.6190 C.3   204  ILE204      0.0019
     68  CG2       44.4690   22.1990  -37.5330 C.3   204  ILE204      0.0019
     69  CD1       45.9850   19.9860  -35.9820 C.3   204  ILE204      0.0001
     70  N         50.1280   12.5890  -37.2630 N.3   230  ILE230     -0.1231
     71  CA        49.1010   13.3910  -37.7830 C.3   230  ILE230      0.1692
     72  C         49.2880   13.3450  -39.3050 C.2   230  ILE230      0.2592
     73  O         50.3730   13.6580  -39.8330 O.2   230  ILE230     -0.2718
     74  CB        49.2170   14.8450  -37.2870 C.3   230  ILE230      0.0266
     75  CG1       49.1240   14.9080  -35.6980 C.3   230  ILE230      0.0019
     76  CG2       48.1270   15.7240  -37.9530 C.3   230  ILE230      0.0020
     77  CD1       50.4980   14.8140  -35.0910 C.3   230  ILE230      0.0001
     78  N         48.2430   12.9450  -39.9960 N.am  231  ASN231     -0.1974
     79  CA        48.3440   12.6420  -41.4790 C.3   231  ASN231      0.1688
     80  C         49.6220   11.8550  -41.8130 C.2   231  ASN231      0.2292
     81  O         50.3670   12.2240  -42.7730 O.2   231  ASN231     -0.2864
     82  CB        48.4190   13.9690  -42.2460 C.3   231  ASN231      0.1181
     83  CG        47.1360   14.7650  -42.2050 C.2   231  ASN231      0.2629
     84  OD1       46.1760   14.4530  -41.4680 O.2   231  ASN231     -0.2716
     85  ND2       47.1540   15.8790  -42.9590 N.am  231  ASN231     -0.0877
     86  N         56.7180   16.3530  -36.9580 N.3   238  ASN238     -0.1240
     87  CA        55.6840   16.7850  -37.9250 C.3   238  ASN238      0.1653
     88  C         55.9580   18.2680  -38.1960 C.2   238  ASN238      0.2266
     89  O         55.6980   19.0850  -37.3190 O.2   238  ASN238     -0.2867
     90  CB        54.2940   16.5880  -37.3200 C.3   238  ASN238      0.1155
     91  CG        53.2250   16.7790  -38.3540 C.2   238  ASN238      0.2627
     92  OD1       53.0690   17.8860  -38.9000 O.2   238  ASN238     -0.2716
     93  ND2       52.4850   15.6860  -38.6580 N.am  238  ASN238     -0.0877
     94  N         54.6650   20.2640  -40.1100 N.3   240  TYR240     -0.1227
     95  CA        53.4550   21.1140  -40.1910 C.3   240  TYR240      0.1736
     96  C         52.9010   21.5530  -38.8090 C.2   240  TYR240      0.2596
     97  O         52.6620   22.7650  -38.5690 O.2   240  TYR240     -0.2718
     98  CB        52.3240   20.4370  -41.0430 C.3   240  TYR240      0.0548
     99  CG        51.3550   21.4710  -41.6050 C.ar  240  TYR240     -0.0200
    100  CD1       51.5570   22.0020  -42.9140 C.ar  240  TYR240     -0.0009
    101  CD2       50.2270   21.9360  -40.8430 C.ar  240  TYR240     -0.0009
    102  CE1       50.6720   22.9350  -43.4660 C.ar  240  TYR240      0.0417
    103  CE2       49.3700   22.9580  -41.3460 C.ar  240  TYR240      0.0417
    104  CZ        49.5730   23.4110  -42.6990 C.ar  240  TYR240      0.1957
    105  OH        48.7440   24.3750  -43.2760 O.3   240  TYR240     -0.2866
    106  N         52.6570   20.6000  -37.9180 N.am  241  THR241     -0.1953
    107  CA        52.1470   20.9640  -36.5690 C.3   241  THR241      0.1897
    108  C         53.1780   21.7260  -35.7520 C.2   241  THR241      0.2313
    109  O         52.7960   22.7000  -35.0710 O.2   241  THR241     -0.2863
    110  CB        51.6230   19.7860  -35.7330 C.3   241  THR241      0.1794
    111  OG1       52.6840   18.8940  -35.4400 O.3   241  THR241     -0.2208
    112  CG2       50.5520   18.9890  -36.5070 C.3   241  THR241      0.0378
    113  N         55.0250   24.9080  -38.5640 N.3   244  LYS244     -0.1231
    114  CA        54.0170   25.8880  -39.0530 C.3   244  LYS244      0.1693
    115  C         53.0260   26.2950  -37.9760 C.2   244  LYS244      0.2591
    116  O         52.8480   27.5240  -37.6780 O.2   244  LYS244     -0.2718
    117  CB        53.2300   25.3840  -40.3040 C.3   244  LYS244      0.0285
    118  CG        52.5250   26.6110  -41.0110 C.3   244  LYS244      0.0035
    119  CD        51.6420   26.1500  -42.1770 C.3   244  LYS244      0.0206
    120  CE        51.0450   27.3840  -42.9090 C.3   244  LYS244      0.1093
    121  NZ        50.2830   26.8690  -44.0830 N.3   244  LYS244     -0.1314
    122  N         52.3110   25.2980  -37.4250 N.am  245  LEU245     -0.1980
    123  CA        51.1690   25.6510  -36.5350 C.3   245  LEU245      0.1596
    124  C         51.6890   26.2440  -35.1700 C.2   245  LEU245      0.2287
    125  O         51.3820   27.3930  -34.7800 O.2   245  LEU245     -0.2864
    126  CB        50.1720   24.4820  -36.3530 C.3   245  LEU245      0.0297
    127  CG        49.4540   24.0080  -37.6260 C.3   245  LEU245      0.0022
    128  CD1       48.4630   22.9360  -37.2020 C.3   245  LEU245      0.0001
    129  CD2       48.7640   25.2220  -38.2330 C.3   245  LEU245      0.0001
    130  N         39.7690   30.1530  -42.1400 N.3   798  ASP798     -0.1225
    131  CA        39.4810   30.1290  -43.6340 C.3   798  ASP798      0.1805
    132  C         40.6740   29.4810  -44.2860 C.2   798  ASP798      0.2598
    133  O         41.7470   30.0530  -44.3320 O.2   798  ASP798     -0.2718
    134  CB        39.3180   31.6000  -44.0520 C.3   798  ASP798      0.1424
    135  CG        39.0630   31.7870  -45.5490 C.2   798  ASP798      0.3668
    136  OD1       39.4700   30.9700  -46.3980 O.co2 798  ASP798     -0.2456
    137  OD2       38.4760   32.8260  -45.8460 O.co2 798  ASP798     -0.2456
    138  N         40.5270   28.2450  -44.7600 N.am  799  VAL799     -0.1966
    139  CA        41.6910   27.5110  -45.2770 C.3   799  VAL799      0.1727
    140  C         42.3350   28.1610  -46.5430 C.2   799  VAL799      0.2616
    141  O         43.5830   28.1340  -46.6600 O.2   799  VAL799     -0.2715
    142  CB        41.3680   25.9890  -45.4680 C.3   799  VAL799      0.0290
    143  CG1       40.8610   25.4120  -44.1480 C.3   799  VAL799      0.0023
    144  CG2       40.2110   25.8170  -46.4870 C.3   799  VAL799      0.0023
    145  N         41.5230   28.7800  -47.4190 N.am  800  ALA800     -0.1977
    146  CA        42.0000   29.5840  -48.5900 C.3   800  ALA800      0.1597
    147  C         42.8810   30.7860  -48.1490 C.2   800  ALA800      0.2287
    148  O         44.0110   30.9450  -48.6290 O.2   800  ALA800     -0.2864
    149  CB        40.8290   29.9920  -49.5270 C.3   800  ALA800      0.0319
    150  N         44.2990   31.0600  -45.1590 N.3   802  GLN802     -0.1245
    151  CA        45.2190   30.7260  -44.1130 C.3   802  GLN802      0.1566
    152  C         45.1050   31.7620  -42.9730 C.2   802  GLN802      0.2260
    153  O         46.1230   32.2810  -42.4140 O.2   802  GLN802     -0.2867
    154  CB        46.6570   30.4800  -44.7040 C.3   802  GLN802      0.0367
    155  CG        46.7560   29.1080  -45.3880 C.3   802  GLN802      0.0905
    156  CD        46.4940   27.8770  -44.4440 C.2   802  GLN802      0.2608
    157  OE1       47.2460   27.6440  -43.4810 O.2   802  GLN802     -0.2717
    158  NE2       45.4270   27.1170  -44.7190 N.am  802  GLN802     -0.0878
@<TRIPOS>BOND
     1   149   146    1
     2    15    16   ar
     3    15    13   ar
     4   148   147    2
     5   146   147    1
     6   146   145    1
     7    16    14   ar
     8    13    11   ar
     9    14    12   ar
    10    11    12   ar
    11    11    10    1
    12    10     7    1
    13   145   140   am
    14    27    28    1
    15    27    24    1
    16   141   140    2
    17   140   139    1
    18   144   142    1
    19   136   135   ar
    20    28    29    2
    21     7     6    1
    22     7     8    1
    23    24    25    1
    24    24    23    1
    25     1     2    1
    26     6     3   am
    27   137   135   ar
    28     3     2    1
    29     3     4    2
    30     2     5    1
    31   135   134    1
    32   142   139    1
    33   142   143    1
    34     8     9    2
    35     8    17   am
    36   155   154    1
    37   155   156    1
    38    25    26    2
    39   139   138    1
    40    29    23    1
    41    23    19   am
    42   150   151    1
    43    20    19    2
    44    17    18    1
    45   138   132   am
    46    19    18    1
    47   158   156   am
    48   154   151    1
    49   156   157    2
    50   133   132    2
    51   132   131    1
    52   151   152    1
    53   121   120    1
    54   134   131    1
    55    18    21    1
    56   131   130    1
    57   102   100   ar
    58   102   104   ar
    59   105   104    1
    60   152   153    2
    61    85    83   am
    62   100    99   ar
    63   120   119    1
    64    52    50   ar
    65    81    80    2
    66   104   103   ar
    67    21    22    1
    68    49    50    1
    69    49    46    1
    70    41    38    1
    71    41    42    1
    72    82    83    1
    73    82    79    1
    74    83    84    2
    75   119   118    1
    76    50    51   ar
    77    45    46    1
    78    45    39   am
    79    38    39    1
    80    38    37    1
    81    80    79    1
    82    99    98    1
    83    99   101   ar
    84    42    44   ar
    85    42    43   ar
    86    79    78    1
    87    46    47    1
    88   103   101   ar
    89    59    60    1
    90    59    58    1
    91    39    40    2
    92    98    95    1
    93   118   117    1
    94    53    47   am
    95    53    54    1
    96    57    58    1
    97    57    54    1
    98    37    32   am
    99    33    32    2
   100    60    61    1
   101    47    48    2
   102    32    31    1
   103   117   114    1
   104    54    55    1
   105    95    94    1
   106    95    96    1
   107    78    72   am
   108    73    72    2
   109    30    31    1
   110    31    34    1
   111    72    71    1
   112   114   113    1
   113   114   115    1
   114    92    91    2
   115    55    56    2
   116    96    97    2
   117    96   106   am
   118    93    91   am
   119    91    90    1
   120   129   127    1
   121    88    87    1
   122    88    89    2
   123    34    35    1
   124    34    36    1
   125   115   116    2
   126   115   122   am
   127    76    74    1
   128    87    90    1
   129    87    86    1
   130   106   107    1
   131    71    74    1
   132    71    70    1
   133   127   128    1
   134   127   126    1
   135    68    66    1
   136   122   123    1
   137    74    75    1
   138    62    63    1
   139    66    63    1
   140    66    67    1
   141   107   108    1
   142   107   110    1
   143   123   126    1
   144   123   124    1
   145   112   110    1
   146    63    64    1
   147    69    67    1
   148   108   109    2
   149   110   111    1
   150    75    77    1
   151    64    65    2
   152   124   125    2
