@<TRIPOS>MOLECULE
tmp/4iieB04.pdb
 190 187 0 0 0
SMALL
GASTEIGER

@<TRIPOS>ATOM
      1  N         79.0300   20.5360  -27.6020 N.3    36  ASP36      -0.1225
      2  CA        78.6140   19.3530  -26.7650 C.3    36  ASP36       0.1805
      3  C         77.8150   19.7880  -25.5220 C.2    36  ASP36       0.2597
      4  O         77.0090   18.9760  -25.0200 O.2    36  ASP36      -0.2718
      5  CB        79.8230   18.4900  -26.3260 C.3    36  ASP36       0.1424
      6  CG        80.9660   19.3090  -25.7990 C.2    36  ASP36       0.3668
      7  OD1       81.1940   20.5040  -26.1800 O.co2  36  ASP36      -0.2456
      8  OD2       81.6490   18.7490  -24.9460 O.co2  36  ASP36      -0.2456
      9  N         77.9850   21.0670  -25.0890 N.am   37  GLU37      -0.1979
     10  CA        77.2300   21.5870  -23.9730 C.3    37  GLU37       0.1602
     11  C         75.8100   21.9190  -24.4350 C.2    37  GLU37       0.2287
     12  O         74.8210   21.5330  -23.7910 O.2    37  GLU37      -0.2864
     13  CB        77.9060   22.8150  -23.3360 C.3    37  GLU37       0.0415
     14  CG        79.2080   22.4600  -22.5990 C.3    37  GLU37       0.1163
     15  CD        79.9960   23.6650  -22.1340 C.2    37  GLU37       0.3649
     16  OE1       79.8390   24.7880  -22.7170 O.co2  37  GLU37      -0.2457
     17  OE2       80.7300   23.5340  -21.1630 O.co2  37  GLU37      -0.2457
     18  N         74.0790   18.6430  -24.8050 N.3    40  ASN40      -0.1240
     19  CA        73.6050   18.2060  -23.4460 C.3    40  ASN40       0.1653
     20  C         72.2320   18.7710  -23.0250 C.2    40  ASN40       0.2266
     21  O         71.4300   18.0220  -22.4490 O.2    40  ASN40      -0.2867
     22  CB        74.6200   18.5820  -22.3390 C.3    40  ASN40       0.1155
     23  CG        75.3440   17.3450  -21.7800 C.2    40  ASN40       0.2627
     24  OD1       75.4460   16.3110  -22.4430 O.2    40  ASN40      -0.2716
     25  ND2       75.8490   17.4530  -20.5480 N.am   40  ASN40      -0.0877
     26  N         69.3020   11.8330  -20.4000 N.3    45  THR45      -0.1218
     27  CA        70.5160   11.0450  -20.1560 C.3    45  THR45       0.1862
     28  C         70.2190    9.5200  -20.1510 C.2    45  THR45       0.2287
     29  O         71.1290    8.7260  -19.9910 O.2    45  THR45      -0.2866
     30  CB        71.2410   11.4880  -18.9000 C.3    45  THR45       0.1770
     31  OG1       70.2760   11.4220  -17.8080 O.3    45  THR45      -0.2211
     32  CG2       71.8080   12.9380  -19.0790 C.3    45  THR45       0.0375
     33  N         69.0010    8.7340  -13.9930 N.3    50  GLU50      -0.1245
     34  CA        69.2140    9.7340  -12.9220 C.3    50  GLU50       0.1567
     35  C         67.9850    9.7340  -11.9830 C.2    50  GLU50       0.2260
     36  O         67.5380    8.6180  -11.6170 O.2    50  GLU50      -0.2867
     37  CB        69.6040   11.0990  -13.5230 C.3    50  GLU50       0.0388
     38  CG        70.9740   11.0060  -14.2500 C.3    50  GLU50       0.1160
     39  CD        71.4960   12.4100  -14.6390 C.2    50  GLU50       0.3649
     40  OE1       72.1890   13.0410  -13.7770 O.co2  50  GLU50      -0.2457
     41  OE2       71.2120   12.8320  -15.8080 O.co2  50  GLU50      -0.2457
     42  N         71.5870   16.2540  -18.8330 N.3    57  GLY57      -0.1210
     43  CA        72.8280   16.3480  -18.1010 C.3    57  GLY57       0.1956
     44  C         73.2260   17.7060  -17.6870 C.2    57  GLY57       0.2612
     45  O         74.1120   17.8610  -16.8360 O.2    57  GLY57      -0.2717
     46  N         72.6140   18.7050  -18.2900 N.am   58  GLY58      -0.1942
     47  CA        72.9660   20.1010  -17.9800 C.3    58  GLY58       0.2014
     48  C         74.3070   20.5840  -18.5000 C.2    58  GLY58       0.2639
     49  O         74.9090   19.9860  -19.3710 O.2    58  GLY58      -0.2714
     50  N         74.7870   21.7140  -17.9560 N.am   59  VAL59      -0.1963
     51  CA        76.0510   22.2670  -18.4750 C.3    59  VAL59       0.1712
     52  C         76.8940   22.5730  -17.2470 C.2    59  VAL59       0.2458
     53  O         76.8550   23.7200  -16.7320 O.2    59  VAL59      -0.2730
     54  CB        75.8260   23.5310  -19.3870 C.3    59  VAL59       0.0289
     55  CG1       77.1730   24.1430  -19.8780 C.3    59  VAL59       0.0023
     56  CG2       74.9880   23.1370  -20.6380 C.3    59  VAL59       0.0023
     57  N         77.6130   21.5750  -16.7500 N.am   60  PRO60      -0.2716
     58  CA        78.2350   21.9470  -15.4180 C.3    60  PRO60       0.1536
     59  C         79.2780   23.0990  -15.4240 C.2    60  PRO60       0.2598
     60  O         79.3950   23.8250  -14.4510 O.2    60  PRO60      -0.2715
     61  CB        78.9840   20.6820  -14.9770 C.3    60  PRO60       0.0310
     62  CG        78.9060   19.7170  -16.1460 C.3    60  PRO60       0.0237
     63  CD        77.7050   20.1270  -17.0140 C.3    60  PRO60       0.0939
     64  N         79.9400   23.3540  -16.5380 N.am   61  ARG61      -0.1978
     65  CA        81.0520   24.3400  -16.5460 C.3    61  ARG61       0.1597
     66  C         80.4060   25.7010  -16.3790 C.2    61  ARG61       0.2287
     67  O         81.0380   26.6160  -15.9080 O.2    61  ARG61      -0.2864
     68  CB        81.7970   24.2980  -17.9010 C.3    61  ARG61       0.0334
     69  CG        82.8970   25.3580  -18.0640 C.3    61  ARG61       0.0492
     70  CD        83.6430   25.1400  -19.4370 C.3    61  ARG61       0.2205
     71  NE        82.7140   25.4100  -20.5380 N.pl3  61  ARG61      -0.0865
     72  CZ        82.4710   26.6390  -21.0220 C.cat  61  ARG61       0.5346
     73  NH1       83.1370   27.6850  -20.5550 N.pl3  61  ARG61       0.1354
     74  NH2       81.5580   26.8240  -21.9810 N.pl3  61  ARG61       0.1354
     75  N         73.9180    6.0880   -7.3530 N.3   345  LYS345     -0.1231
     76  CA        73.5270    7.4060   -7.9500 C.3   345  LYS345      0.1693
     77  C         72.8010    7.1960   -9.3410 C.2   345  LYS345      0.2592
     78  O         71.8450    7.9360   -9.7070 O.2   345  LYS345     -0.2718
     79  CB        74.7890    8.2960   -8.1190 C.3   345  LYS345      0.0285
     80  CG        74.4170    9.7010   -8.7020 C.3   345  LYS345      0.0035
     81  CD        75.6010   10.6020   -8.7540 C.3   345  LYS345      0.0206
     82  CE        75.0840   11.7790   -9.5180 C.3   345  LYS345      0.1093
     83  NZ        75.8880   12.9290   -9.0580 N.3   345  LYS345     -0.1314
     84  N         73.2190    6.1840  -10.1210 N.am  346  TYR346     -0.1976
     85  CA        72.5770    5.9360  -11.4480 C.3   346  TYR346      0.1639
     86  C         71.8280    4.6340  -11.3970 C.2   346  TYR346      0.2290
     87  O         72.4400    3.5670  -11.4330 O.2   346  TYR346     -0.2864
     88  CB        73.6660    5.8960  -12.5780 C.3   346  TYR346      0.0560
     89  CG        74.5280    7.1000  -12.4730 C.ar  346  TYR346     -0.0198
     90  CD1       73.9770    8.3800  -12.6910 C.ar  346  TYR346     -0.0009
     91  CD2       75.8810    7.0240  -12.0920 C.ar  346  TYR346     -0.0009
     92  CE1       74.7450    9.5040  -12.5600 C.ar  346  TYR346      0.0417
     93  CE2       76.6630    8.1810  -11.9380 C.ar  346  TYR346      0.0417
     94  CZ        76.1060    9.4130  -12.1590 C.ar  346  TYR346      0.1957
     95  OH        76.8600   10.6430  -11.9890 O.3   346  TYR346     -0.2866
     96  N         78.4890    6.7490   -7.5220 N.2   353  PRO353     -0.2584
     97  CA        78.6860    6.6210   -6.0410 C.3   353  PRO353      0.1895
     98  C         77.4570    6.0420   -5.3200 C.2   353  PRO353      0.2359
     99  O         76.3200    6.2870   -5.7660 O.2   353  PRO353     -0.2858
    100  CB        79.0250    8.0280   -5.5830 C.2   353  PRO353      0.0071
    101  CG        78.8880    8.9100   -6.7620 C.2   353  PRO353      0.0180
    102  CD        78.6360    8.1250   -8.0280 C.2   353  PRO353      0.0937
    103  N         75.1330    6.4740   -2.3920 N.3   355  GLU355     -0.1245
    104  CA        74.9890    7.7820   -1.6920 C.3   355  GLU355      0.1567
    105  C         73.5050    8.0360   -1.4120 C.2   355  GLU355      0.2260
    106  O         72.6820    7.1680   -1.6990 O.2   355  GLU355     -0.2867
    107  CB        75.5470    8.9390   -2.5320 C.3   355  GLU355      0.0388
    108  CG        74.8580    9.1590   -3.9240 C.3   355  GLU355      0.1160
    109  CD        75.4070   10.3970   -4.6640 C.2   355  GLU355      0.3649
    110  OE1       76.6340   10.6970   -4.5450 O.co2 355  GLU355     -0.2457
    111  OE2       74.6380   11.0950   -5.3890 O.co2 355  GLU355     -0.2457
    112  N         89.5300   11.6860  -18.6620 N.3   671  GLY671     -0.1210
    113  CA        89.3680   11.2620  -17.2440 C.3   671  GLY671      0.1956
    114  C         87.9300   10.8090  -16.8860 C.2   671  GLY671      0.2612
    115  O         87.6100   10.6550  -15.7290 O.2   671  GLY671     -0.2717
    116  N         87.0410   10.6290  -17.8440 N.am  672  LEU672     -0.1965
    117  CA        85.6360   10.5330  -17.4390 C.3   672  LEU672      0.1728
    118  C         85.2360    9.0710  -17.4500 C.2   672  LEU672      0.2616
    119  O         85.4510    8.3720  -18.4340 O.2   672  LEU672     -0.2715
    120  CB        84.7410   11.3760  -18.3710 C.3   672  LEU672      0.0311
    121  CG        83.2310   10.9840  -18.1840 C.3   672  LEU672      0.0022
    122  CD1       82.5130   12.0600  -17.4510 C.3   672  LEU672      0.0001
    123  CD2       82.5820   10.6110  -19.4880 C.3   672  LEU672      0.0001
    124  N         84.6820    8.5750  -16.3570 N.am  673  THR673     -0.1951
    125  CA        84.0960    7.2060  -16.4100 C.3   673  THR673      0.1897
    126  C         82.7100    7.1970  -17.0200 C.2   673  THR673      0.2313
    127  O         81.7640    7.7800  -16.4390 O.2   673  THR673     -0.2863
    128  CB        83.8790    6.6140  -14.9820 C.3   673  THR673      0.1794
    129  OG1       85.1380    6.6070  -14.3360 O.3   673  THR673     -0.2208
    130  CG2       83.3490    5.1430  -15.0540 C.3   673  THR673      0.0378
    131  N         79.1780    5.9340  -17.5660 N.3   675  ILE675     -0.1301
    132  CA        78.2070    5.0640  -16.9080 C.3   675  ILE675      0.1246
    133  C         77.4420    4.2610  -17.9960 C.3   675  ILE675      0.2009
    134  O         77.0520    4.8540  -19.0720 O.3   675  ILE675     -0.2188
    135  CB        77.2640    6.0330  -16.0780 C.3   675  ILE675      0.0202
    136  CG1       78.1140    6.8330  -15.0830 C.3   675  ILE675      0.0015
    137  CG2       76.0520    5.2890  -15.4820 C.3   675  ILE675      0.0016
    138  CD1       78.8990    5.9530  -14.0630 C.3   675  ILE675      0.0000
    139  N         74.2010    5.3030  -20.0190 N.3   678  PHE678     -0.1227
    140  CA        74.0590    6.8180  -19.9400 C.3   678  PHE678      0.1736
    141  C         74.2960    7.4620  -21.3170 C.2   678  PHE678      0.2595
    142  O         75.2930    7.1030  -22.0170 O.2   678  PHE678     -0.2718
    143  CB        75.0850    7.3670  -18.9920 C.3   678  PHE678      0.0547
    144  CG        74.7470    8.7040  -18.3840 C.ar  678  PHE678     -0.0202
    145  CD1       74.1230    8.7560  -17.1110 C.ar  678  PHE678     -0.0042
    146  CD2       75.1230    9.9080  -19.0320 C.ar  678  PHE678     -0.0042
    147  CE1       73.8420    9.9820  -16.5110 C.ar  678  PHE678     -0.0003
    148  CE2       74.8570   11.1460  -18.4420 C.ar  678  PHE678     -0.0003
    149  CZ        74.2170   11.1800  -17.1650 C.ar  678  PHE678     -0.0000
    150  N         73.4300    8.4160  -21.7030 N.am  679  ILE679     -0.1966
    151  CA        73.5310    9.0840  -23.0240 C.3   679  ILE679      0.1727
    152  C         74.3820   10.3590  -22.8560 C.2   679  ILE679      0.2616
    153  O         74.0940   11.2660  -22.0160 O.2   679  ILE679     -0.2715
    154  CB        72.1350    9.4140  -23.6280 C.3   679  ILE679      0.0290
    155  CG1       71.3170    8.1090  -23.7400 C.3   679  ILE679      0.0022
    156  CG2       72.2420   10.1550  -24.9670 C.3   679  ILE679      0.0023
    157  CD1       72.0180    6.9370  -24.4880 C.3   679  ILE679      0.0001
    158  N         75.4740   10.4290  -23.6390 N.am  680  TYR680     -0.1960
    159  CA        76.3910   11.5750  -23.5760 C.3   680  TYR680      0.1756
    160  C         76.3720   12.3220  -24.9240 C.2   680  TYR680      0.2461
    161  O         75.9040   11.7360  -25.9300 O.2   680  TYR680     -0.2730
    162  CB        77.8230   10.9940  -23.3330 C.3   680  TYR680      0.0574
    163  CG        78.0710   10.4470  -21.9400 C.ar  680  TYR680     -0.0198
    164  CD1       78.2050   11.2820  -20.8410 C.ar  680  TYR680     -0.0009
    165  CD2       78.1540    9.0280  -21.7200 C.ar  680  TYR680     -0.0009
    166  CE1       78.4580   10.7440  -19.5540 C.ar  680  TYR680      0.0417
    167  CE2       78.4220    8.4890  -20.4490 C.ar  680  TYR680      0.0417
    168  CZ        78.5450    9.3310  -19.3820 C.ar  680  TYR680      0.1957
    169  OH        78.8340    8.7970  -18.1530 O.3   680  TYR680     -0.2866
    170  N         76.9720   13.5610  -24.9980 N.am  681  PRO681     -0.2716
    171  CA        77.0160   14.3420  -26.2430 C.3   681  PRO681      0.1536
    172  C         78.2990   14.0140  -27.1300 C.2   681  PRO681      0.2598
    173  O         78.4000   14.4320  -28.2770 O.2   681  PRO681     -0.2715
    174  CB        77.0560   15.8170  -25.7190 C.3   681  PRO681      0.0310
    175  CG        77.8400   15.6840  -24.4120 C.3   681  PRO681      0.0237
    176  CD        77.4970   14.3040  -23.8450 C.3   681  PRO681      0.0939
    177  N         79.2230   13.2070  -26.6170 N.am  682  TRP682     -0.1974
    178  CA        80.5770   13.0900  -27.1430 C.3   682  TRP682      0.1640
    179  C         80.7700   11.9460  -28.1390 C.2   682  TRP682      0.2290
    180  O         79.9430   11.0680  -28.2550 O.2   682  TRP682     -0.2864
    181  CB        81.5010   12.8270  -25.9560 C.3   682  TRP682      0.0576
    182  CG        81.6220   14.0170  -25.0610 C.ar  682  TRP682      0.0006
    183  CD1       81.8750   15.3450  -25.4580 C.ar  682  TRP682      0.0946
    184  CD2       81.4660   14.0590  -23.6170 C.ar  682  TRP682      0.0152
    185  NE1       81.9620   16.1500  -24.3560 N.ar  682  TRP682     -0.2442
    186  CE2       81.6980   15.4220  -23.2150 C.ar  682  TRP682      0.0810
    187  CE3       81.1670   13.0990  -22.6440 C.ar  682  TRP682      0.0012
    188  CZ2       81.6500   15.8270  -21.8850 C.ar  682  TRP682      0.0191
    189  CZ3       81.1070   13.5020  -21.2790 C.ar  682  TRP682      0.0001
    190  CH2       81.3750   14.8500  -20.9220 C.ar  682  TRP682      0.0015
@<TRIPOS>BOND
     1   173   172    2
     2   180   179    2
     3   179   178    1
     4     1     2    1
     5   178   177    1
     6   178   181    1
     7   172   177   am
     8   172   171    1
     9     2     5    1
    10     2     3    1
    11     5     6    1
    12   171   174    1
    13   171   170    1
    14     7     6   ar
    15   181   182    1
    16   161   160    2
    17     6     8   ar
    18   174   175    1
    19     3     9   am
    20     3     4    2
    21   183   182   ar
    22   183   185   ar
    23     9    10    1
    24   182   184   ar
    25   170   160   am
    26   170   176    1
    27   156   154    1
    28   160   159    1
    29    18    19    1
    30   157   155    1
    31    11    10    1
    32    11    12    2
    33   175   176    1
    34   185   186   ar
    35    10    13    1
    36   155   154    1
    37   158   159    1
    38   158   152   am
    39   154   151    1
    40   184   186   ar
    41   184   187   ar
    42   159   162    1
    43    19    20    1
    44    19    22    1
    45    13    14    1
    46   162   163    1
    47   186   188   ar
    48    20    21    2
    49   151   152    1
    50   151   150    1
    51   152   153    2
    52    16    15   ar
    53   187   189   ar
    54    14    15    1
    55    24    23    2
    56    22    23    1
    57    15    17   ar
    58   142   141    2
    59    74    72    1
    60   163   165   ar
    61   163   164   ar
    62   188   190   ar
    63    23    25   am
    64   165   167   ar
    65   150   141   am
    66   141   140    1
    67   189   190   ar
    68    72    73    1
    69    72    71    2
    70   164   166   ar
    71    56    54    1
    72    71    70    1
    73   167   168   ar
    74    26    27    1
    75    27    28    1
    76    27    30    1
    77    28    29    2
    78   139   140    1
    79   140   143    1
    80    55    54    1
    81   166   168   ar
    82   123   121    1
    83    70    69    1
    84    54    51    1
    85   168   169    1
    86    49    48    2
    87    32    30    1
    88   134   133    1
    89   146   148   ar
    90   146   144   ar
    91   143   144    1
    92    30    31    1
    93    42    43    1
    94   112   113    1
    95    48    47    1
    96    48    50   am
    97    51    50    1
    98    51    52    1
    99   148   149   ar
   100   119   118    2
   101   144   145   ar
   102   120   121    1
   103   120   117    1
   104    46    47    1
   105    46    44   am
   106   121   122    1
   107    43    44    1
   108    69    68    1
   109   133   132    1
   110    68    65    1
   111   116   117    1
   112   116   114   am
   113    44    45    2
   114   131   132    1
   115   118   117    1
   116   118   124   am
   117    52    57   am
   118    52    53    2
   119   113   114    1
   120   149   147   ar
   121   145   147   ar
   122   126   127    2
   123   126   125    1
   124    63    57    1
   125    63    62    1
   126   132   135    1
   127   114   115    2
   128    57    58    1
   129    65    64    1
   130    65    66    1
   131    64    59   am
   132   125   124    1
   133   125   128    1
   134    66    67    2
   135    62    61    1
   136   135   137    1
   137   135   136    1
   138    41    39   ar
   139    59    58    1
   140    59    60    2
   141    58    61    1
   142   136   138    1
   143   130   128    1
   144   128   129    1
   145    39    38    1
   146    39    40   ar
   147    38    37    1
   148    33    34    1
   149    37    34    1
   150    34    35    1
   151    90    92   ar
   152    90    89   ar
   153    88    89    1
   154    88    85    1
   155    92    94   ar
   156    89    91   ar
   157    94    95    1
   158    94    93   ar
   159    91    93   ar
   160    35    36    2
   161    85    86    1
   162    85    84    1
   163    87    86    2
   164    84    77   am
   165    78    77    2
   166    82    83    1
   167    82    81    1
   168    77    76    1
   169    81    80    1
   170    80    79    1
   171    79    76    1
   172   102    96    2
   173   102   101    1
   174    76    75    1
   175    96    97    1
   176   101   100    2
   177    97   100    1
   178    97    98    1
   179    99    98    2
   180   111   109   ar
   181   109   110   ar
   182   109   108    1
   183   108   107    1
   184   107   104    1
   185   103   104    1
   186   106   105    2
   187   104   105    1
