@<TRIPOS>MOLECULE
tmp/4iieB08.pdb
 143 140 0 0 0
SMALL
GASTEIGER

@<TRIPOS>ATOM
      1  N         40.6480   -0.6320  -10.0270 N.3   420  ASP420     -0.1239
      2  CA        39.5170    0.1900   -9.6490 C.3   420  ASP420      0.1674
      3  C         38.9440   -0.3300   -8.3350 C.2   420  ASP420      0.2266
      4  O         37.7700   -0.7510   -8.2800 O.2   420  ASP420     -0.2867
      5  CB        38.4580    0.1490  -10.7210 C.3   420  ASP420      0.1410
      6  CG        37.2380    0.9920  -10.3960 C.2   420  ASP420      0.3668
      7  OD1       37.4130    2.1060   -9.8060 O.co2 420  ASP420     -0.2456
      8  OD2       36.0920    0.5140  -10.6970 O.co2 420  ASP420     -0.2456
      9  N         30.7180   -4.2280   -0.7680 N.3   461  ASP461     -0.1239
     10  CA        30.7010   -5.3510   -1.7530 C.3   461  ASP461      0.1674
     11  C         29.5060   -5.2040   -2.6530 C.2   461  ASP461      0.2266
     12  O         28.3660   -5.3700   -2.2000 O.2   461  ASP461     -0.2867
     13  CB        30.6720   -6.7220   -0.9820 C.3   461  ASP461      0.1410
     14  CG        30.7700   -7.9240   -1.9030 C.2   461  ASP461      0.3668
     15  OD1       30.2600   -7.8960   -3.0410 O.co2 461  ASP461     -0.2456
     16  OD2       31.4340   -8.9020   -1.5080 O.co2 461  ASP461     -0.2456
     17  N         28.1630   -6.9360   -4.9330 N.3   463  TRP463     -0.1227
     18  CA        27.3180   -8.1070   -5.1270 C.3   463  TRP463      0.1737
     19  C         26.7100   -8.5990   -3.8380 C.2   463  TRP463      0.2595
     20  O         26.1030   -9.6680   -3.8100 O.2   463  TRP463     -0.2718
     21  CB        28.1110   -9.2010   -5.8480 C.3   463  TRP463      0.0564
     22  CG        28.2090   -8.9350   -7.3330 C.ar  463  TRP463      0.0003
     23  CD1       27.3420   -9.3570   -8.2730 C.ar  463  TRP463      0.0946
     24  CD2       29.1580   -8.1130   -8.0060 C.ar  463  TRP463      0.0152
     25  NE1       27.7300   -8.9190   -9.5050 N.ar  463  TRP463     -0.2442
     26  CE2       28.8550   -8.1740   -9.3730 C.ar  463  TRP463      0.0810
     27  CE3       30.3080   -7.4310   -7.6000 C.ar  463  TRP463      0.0012
     28  CZ2       29.6280   -7.5220  -10.3730 C.ar  463  TRP463      0.0191
     29  CZ3       31.0680   -6.7230   -8.5940 C.ar  463  TRP463      0.0001
     30  CH2       30.7100   -6.8070   -9.9610 C.ar  463  TRP463      0.0015
     31  N         26.9020   -7.8750   -2.7410 N.am  464  ALA464     -0.1966
     32  CA        26.2450   -8.2660   -1.5070 C.3   464  ALA464      0.1728
     33  C         24.8060   -7.6280   -1.4670 C.2   464  ALA464      0.2616
     34  O         24.4990   -6.7680   -0.6130 O.2   464  ALA464     -0.2715
     35  CB        27.1250   -7.8090   -0.3070 C.3   464  ALA464      0.0334
     36  N         23.9280   -7.9810   -2.4400 N.am  465  LEU465     -0.1963
     37  CA        22.6820   -7.2350   -2.6200 C.3   465  LEU465      0.1728
     38  C         21.6610   -7.5480   -1.5690 C.2   465  LEU465      0.2617
     39  O         20.8460   -6.7410   -1.2000 O.2   465  LEU465     -0.2715
     40  CB        22.1080   -7.4360   -4.0360 C.3   465  LEU465      0.0311
     41  CG        23.1070   -6.9330   -5.0850 C.3   465  LEU465      0.0022
     42  CD1       22.5220   -7.0900   -6.4720 C.3   465  LEU465      0.0001
     43  CD2       23.4820   -5.4610   -4.8750 C.3   465  LEU465      0.0001
     44  N         21.6940   -8.7780   -1.0740 N.am  466  SER466     -0.1936
     45  CA        20.8640   -9.1190    0.0620 C.3   466  SER466      0.2055
     46  C         21.1120   -8.2060    1.2870 C.2   466  SER466      0.2642
     47  O         20.1840   -7.6180    1.8680 O.2   466  SER466     -0.2714
     48  CB        21.1460  -10.6090    0.4300 C.3   466  SER466      0.2130
     49  OG        20.4660  -10.7730    1.6400 O.3   466  SER466     -0.2179
     50  N         22.3840   -8.0150    1.6730 N.am  467  GLN467     -0.1976
     51  CA        22.6430   -7.1280    2.7730 C.3   467  GLN467      0.1601
     52  C         22.2640   -5.6650    2.3550 C.2   467  GLN467      0.2287
     53  O         21.7610   -4.8420    3.1730 O.2   467  GLN467     -0.2864
     54  CB        24.1780   -7.1240    3.1180 C.3   467  GLN467      0.0394
     55  CG        24.6390   -8.3470    3.9030 C.3   467  GLN467      0.0908
     56  CD        24.9750   -9.5040    3.0080 C.2   467  GLN467      0.2608
     57  OE1       24.7370   -9.4690    1.7790 O.2   467  GLN467     -0.2717
     58  NE2       25.6320  -10.5280    3.6010 N.am  467  GLN467     -0.0878
     59  N         42.9860   -2.6900  -17.1780 N.3   493  VAL493     -0.1231
     60  CA        42.2250   -3.1600  -16.0250 C.3   493  VAL493      0.1692
     61  C         40.9480   -3.7670  -16.5310 C.2   493  VAL493      0.2592
     62  O         40.1670   -3.0690  -17.2360 O.2   493  VAL493     -0.2718
     63  CB        41.8090   -2.0020  -15.0490 C.3   493  VAL493      0.0266
     64  CG1       41.0800   -2.5170  -13.8030 C.3   493  VAL493      0.0020
     65  CG2       43.0850   -1.3100  -14.6240 C.3   493  VAL493      0.0020
     66  N         40.7510   -5.0540  -16.1610 N.am  494  ASP494     -0.1974
     67  CA        39.5770   -5.8290  -16.6300 C.3   494  ASP494      0.1709
     68  C         39.3970   -5.7790  -18.1840 C.2   494  ASP494      0.2293
     69  O         38.2910   -5.6480  -18.6880 O.2   494  ASP494     -0.2864
     70  CB        38.2850   -5.3870  -15.9010 C.3   494  ASP494      0.1436
     71  CG        37.1080   -6.3250  -16.1880 C.2   494  ASP494      0.3671
     72  OD1       37.3390   -7.5480  -16.2200 O.co2 494  ASP494     -0.2456
     73  OD2       35.9580   -5.8570  -16.3860 O.co2 494  ASP494     -0.2456
     74  N         40.1450   -3.3350  -20.1430 N.3   496  ASN496     -0.1240
     75  CA        40.0740   -1.9400  -20.6870 C.3   496  ASN496      0.1653
     76  C         41.5230   -1.4900  -20.8890 C.2   496  ASN496      0.2266
     77  O         42.2260   -1.1710  -19.9170 O.2   496  ASN496     -0.2867
     78  CB        39.3290   -0.9940  -19.7190 C.3   496  ASN496      0.1155
     79  CG        37.8870   -1.4500  -19.4420 C.2   496  ASN496      0.2627
     80  OD1       36.9250   -1.0060  -20.0510 O.2   496  ASN496     -0.2716
     81  ND2       37.7360   -2.2950  -18.4060 N.am  496  ASN496     -0.0877
     82  N         36.1360    0.2860  -22.4780 N.3   501  ASN501     -0.1225
     83  CA        35.3840   -0.4960  -23.4560 C.3   501  ASN501      0.1785
     84  C         33.9060   -0.0460  -23.5320 C.2   501  ASN501      0.2597
     85  O         33.2090   -0.3090  -24.5300 O.2   501  ASN501     -0.2718
     86  CB        35.4150   -1.9650  -22.9690 C.3   501  ASN501      0.1169
     87  CG        36.7810   -2.5710  -23.1970 C.2   501  ASN501      0.2627
     88  OD1       37.4960   -2.1090  -24.0740 O.2   501  ASN501     -0.2716
     89  ND2       37.1770   -3.5390  -22.3780 N.am  501  ASN501     -0.0877
     90  N         33.4090    0.5930  -22.4740 N.am  502  ASN502     -0.1974
     91  CA        32.0480    1.0830  -22.5250 C.3   502  ASN502      0.1688
     92  C         31.8490    2.2380  -21.5350 C.2   502  ASN502      0.2292
     93  O         32.7920    2.6050  -20.7900 O.2   502  ASN502     -0.2864
     94  CB        31.0470   -0.0950  -22.2470 C.3   502  ASN502      0.1181
     95  CG        31.2090   -0.7100  -20.8530 C.2   502  ASN502      0.2629
     96  OD1       31.2000    0.0080  -19.8460 O.2   502  ASN502     -0.2716
     97  ND2       31.4040   -2.0400  -20.7710 N.am  502  ASN502     -0.0877
     98  N         29.3230    2.1740  -19.2140 N.3   504  THR504     -0.1203
     99  CA        28.4570    1.6400  -18.1350 C.3   504  THR504      0.1994
    100  C         29.2090    1.6540  -16.7720 C.2   504  THR504      0.2618
    101  O         30.4680    1.4920  -16.7260 O.2   504  THR504     -0.2717
    102  CB        28.1400    0.1620  -18.5450 C.3   504  THR504      0.1784
    103  OG1       27.3610    0.2640  -19.7290 O.3   504  THR504     -0.2211
    104  CG2       27.3790   -0.6360  -17.4890 C.3   504  THR504      0.0376
    105  N         28.4950    1.8780  -15.6790 N.am  505  LEU505     -0.1965
    106  CA        29.1390    1.8810  -14.3160 C.3   505  LEU505      0.1728
    107  C         29.8670    0.5090  -14.1320 C.2   505  LEU505      0.2616
    108  O         29.2780   -0.5440  -14.4560 O.2   505  LEU505     -0.2715
    109  CB        28.0360    2.0310  -13.2460 C.3   505  LEU505      0.0311
    110  CG        27.3390    3.4210  -13.2360 C.3   505  LEU505      0.0022
    111  CD1       26.1390    3.4360  -12.2730 C.3   505  LEU505      0.0001
    112  CD2       28.3890    4.5050  -12.9640 C.3   505  LEU505      0.0001
    113  N         31.1020    0.5190  -13.6040 N.am  506  TRP506     -0.1960
    114  CA        31.8260   -0.6970  -13.2400 C.3   506  TRP506      0.1771
    115  C         31.2440   -1.2980  -11.9650 C.2   506  TRP506      0.2620
    116  O         30.4450   -0.6510  -11.2810 O.2   506  TRP506     -0.2715
    117  CB        33.3100   -0.2990  -12.9260 C.3   506  TRP506      0.0590
    118  CG        34.0190    0.0380  -14.2200 C.ar  506  TRP506      0.0006
    119  CD1       33.4450    0.5510  -15.3420 C.ar  506  TRP506      0.0946
    120  CD2       35.4300   -0.0780  -14.4770 C.ar  506  TRP506      0.0152
    121  NE1       34.4310    0.7170  -16.3230 N.ar  506  TRP506     -0.2442
    122  CE2       35.6460    0.3590  -15.8000 C.ar  506  TRP506      0.0810
    123  CE3       36.5080   -0.5610  -13.7240 C.ar  506  TRP506      0.0012
    124  CZ2       36.9200    0.3350  -16.4150 C.ar  506  TRP506      0.0191
    125  CZ3       37.7930   -0.5640  -14.2990 C.ar  506  TRP506      0.0001
    126  CH2       37.9830   -0.1150  -15.6350 C.ar  506  TRP506      0.0015
    127  N         31.7040   -2.5100  -11.6460 N.am  507  LYS507     -0.1963
    128  CA        31.3680   -3.2160  -10.3950 C.3   507  LYS507      0.1728
    129  C         29.9020   -3.2210  -10.0760 C.2   507  LYS507      0.2616
    130  O         29.5330   -2.9170   -8.9420 O.2   507  LYS507     -0.2715
    131  CB        32.2560   -2.6780   -9.2560 C.3   507  LYS507      0.0311
    132  CG        33.7490   -2.8480   -9.7200 C.3   507  LYS507      0.0038
    133  CD        34.6720   -3.2540   -8.6110 C.3   507  LYS507      0.0206
    134  CE        36.0870   -3.4710   -9.1130 C.3   507  LYS507      0.1093
    135  NZ        36.8480   -3.6970   -7.8500 N.3   507  LYS507     -0.1314
    136  N         29.0690   -3.5970  -11.0260 N.am  508  ASN508     -0.1972
    137  CA        27.6310   -3.8670  -10.7340 C.3   508  ASN508      0.1688
    138  C         26.8760   -2.5850  -10.3320 C.2   508  ASN508      0.2292
    139  O         25.7960   -2.6410   -9.7130 O.2   508  ASN508     -0.2864
    140  CB        27.5420   -5.0520   -9.6620 C.3   508  ASN508      0.1181
    141  CG        26.2830   -5.8820   -9.8110 C.2   508  ASN508      0.2629
    142  OD1       25.8350   -6.0780  -10.9060 O.2   508  ASN508     -0.2716
    143  ND2       25.7300   -6.3690   -8.7260 N.am  508  ASN508     -0.0877
@<TRIPOS>BOND
     1    85    84    2
     2    88    87    2
     3    84    83    1
     4    84    90   am
     5    83    86    1
     6    83    82    1
     7    87    86    1
     8    87    89   am
     9    91    90    1
    10    91    94    1
    11    91    92    1
    12    94    95    1
    13    92    93    2
    14    76    75    1
    15    76    77    2
    16    95    97   am
    17    95    96    2
    18    75    74    1
    19    75    78    1
    20    80    79    2
    21   103   102    1
    22    78    79    1
    23    79    81   am
    24    98    99    1
    25    69    68    2
    26   102    99    1
    27   102   104    1
    28    68    67    1
    29    99   100    1
    30    62    61    2
    31    59    60    1
    32   100   101    2
    33   100   105   am
    34    67    66    1
    35    67    70    1
    36    61    66   am
    37    61    60    1
    38   124   122   ar
    39   124   126   ar
    40    73    71   ar
    41   121   122   ar
    42   121   119   ar
    43    72    71   ar
    44    71    70    1
    45    60    63    1
    46   122   120   ar
    47   105   106    1
    48   126   125   ar
    49   119   118   ar
    50    63    65    1
    51    63    64    1
    52   120   118   ar
    53   120   123   ar
    54   108   107    2
    55   106   107    1
    56   106   109    1
    57   125   123   ar
    58   118   117    1
    59   107   113   am
    60   113   114    1
    61   109   110    1
    62   114   117    1
    63   114   115    1
    64   110   112    1
    65   110   111    1
    66   115   127   am
    67   115   116    2
    68   127   128    1
    69   136   137    1
    70   136   129   am
    71   142   141    2
    72   137   138    1
    73   137   140    1
    74     5     6    1
    75     5     2    1
    76     8     6   ar
    77     6     7   ar
    78   128   129    1
    79   128   131    1
    80    28    30   ar
    81    28    26   ar
    82   138   139    2
    83   129   130    2
    84     1     2    1
    85    30    29   ar
    86   141   140    1
    87   141   143   am
    88   132   131    1
    89   132   133    1
    90     2     3    1
    91    25    26   ar
    92    25    23   ar
    93    26    24   ar
    94   134   133    1
    95   134   135    1
    96    29    27   ar
    97     3     4    2
    98    23    22   ar
    99    24    27   ar
   100    24    22   ar
   101    22    21    1
   102    42    41    1
   103    21    18    1
   104    18    17    1
   105    18    19    1
   106    41    43    1
   107    41    40    1
   108    40    37    1
   109    19    20    2
   110    19    31   am
   111    15    14   ar
   112    31    32    1
   113    11    12    2
   114    11    10    1
   115    37    36    1
   116    37    38    1
   117    36    33   am
   118    14    16   ar
   119    14    13    1
   120    10    13    1
   121    10     9    1
   122    38    39    2
   123    38    44   am
   124    32    33    1
   125    32    35    1
   126    33    34    2
   127    44    45    1
   128    45    48    1
   129    45    46    1
   130    48    49    1
   131    46    50   am
   132    46    47    2
   133    50    51    1
   134    57    56    2
   135    52    51    1
   136    52    53    2
   137    51    54    1
   138    56    58   am
   139    56    55    1
   140    54    55    1
