@<TRIPOS>MOLECULE
tmp/4iieB03.pdb
 100 101 0 0 0
SMALL
GASTEIGER

@<TRIPOS>ATOM
      1  N         62.7860    6.1290   -8.7310 N.3   337  TRP337     -0.1227
      2  CA        62.8760    4.6500   -9.0030 C.3   337  TRP337      0.1737
      3  C         63.0210    3.7910   -7.7560 C.2   337  TRP337      0.2596
      4  O         63.0230    2.5560   -7.8570 O.2   337  TRP337     -0.2718
      5  CB        64.1340    4.3990   -9.8790 C.3   337  TRP337      0.0564
      6  CG        64.2830    5.4930  -10.9240 C.ar  337  TRP337      0.0003
      7  CD1       65.3620    6.3610  -11.0620 C.ar  337  TRP337      0.0946
      8  CD2       63.3240    5.8500  -11.9370 C.ar  337  TRP337      0.0152
      9  NE1       65.1350    7.2000  -12.1450 N.ar  337  TRP337     -0.2442
     10  CE2       63.8960    6.9330  -12.6830 C.ar  337  TRP337      0.0810
     11  CE3       62.0400    5.3610  -12.2960 C.ar  337  TRP337      0.0012
     12  CZ2       63.2390    7.5330  -13.7590 C.ar  337  TRP337      0.0191
     13  CZ3       61.3570    5.9670  -13.4140 C.ar  337  TRP337      0.0001
     14  CH2       61.9920    6.9960  -14.1410 C.ar  337  TRP337      0.0015
     15  N         63.1870    4.4320   -6.6060 N.am  338  THR338     -0.1953
     16  CA        63.2850    3.7230   -5.3440 C.3   338  THR338      0.1897
     17  C         62.8940    4.6720   -4.2630 C.2   338  THR338      0.2313
     18  O         63.0560    5.9040   -4.3700 O.2   338  THR338     -0.2863
     19  CB        64.7300    3.2000   -5.0980 C.3   338  THR338      0.1794
     20  OG1       64.7470    2.5730   -3.8240 O.3   338  THR338     -0.2208
     21  CG2       65.7680    4.3990   -5.0390 C.3   338  THR338      0.0378
     22  N         64.1340    3.9940   -1.1080 N.3   340  ASP340     -0.1239
     23  CA        65.2990    3.8500   -0.1770 C.3   340  ASP340      0.1674
     24  C         65.9600    5.1830    0.0680 C.2   340  ASP340      0.2266
     25  O         66.0960    6.0340   -0.8660 O.2   340  ASP340     -0.2867
     26  CB        66.3500    2.8960   -0.7660 C.3   340  ASP340      0.1410
     27  CG        65.8130    1.4540   -0.9460 C.2   340  ASP340      0.3668
     28  OD1       64.6510    1.1620   -0.5410 O.co2 340  ASP340     -0.2456
     29  OD2       66.5450    0.6380   -1.5510 O.co2 340  ASP340     -0.2456
     30  N         69.2470    5.3920    0.7260 N.3   342  TYR342     -0.1227
     31  CA        70.5680    5.2550   -0.0140 C.3   342  TYR342      0.1736
     32  C         70.3860    4.3610   -1.2050 C.2   342  TYR342      0.2596
     33  O         69.4820    3.5090   -1.2130 O.2   342  TYR342     -0.2718
     34  CB        71.6790    4.6590    0.9060 C.3   342  TYR342      0.0548
     35  CG        72.1160    5.6290    1.9940 C.ar  342  TYR342     -0.0200
     36  CD1       73.1870    6.4970    1.7640 C.ar  342  TYR342     -0.0009
     37  CD2       71.4620    5.6690    3.2680 C.ar  342  TYR342     -0.0009
     38  CE1       73.5610    7.4280    2.6910 C.ar  342  TYR342      0.0417
     39  CE2       71.8900    6.5670    4.2400 C.ar  342  TYR342      0.0417
     40  CZ        72.9310    7.4410    3.9100 C.ar  342  TYR342      0.1957
     41  OH        73.3880    8.3670    4.7910 O.3   342  TYR342     -0.2866
     42  N         71.2350    4.5640   -2.2020 N.am  343  GLY343     -0.1942
     43  CA        71.2360    3.7810   -3.4410 C.3   343  GLY343      0.2014
     44  C         72.3930    4.2080   -4.3280 C.2   343  GLY343      0.2635
     45  O         72.9950    5.2540   -4.1400 O.2   343  GLY343     -0.2714
     46  N         72.6680    3.4380   -5.3630 N.am  344  PHE344     -0.2026
     47  CA        73.6390    3.9090   -6.3670 C.3   344  PHE344      0.1326
     48  C         73.0600    5.0980   -7.1170 C.3   344  PHE344      0.2039
     49  O         71.8230    5.1140   -7.4700 O.3   344  PHE344     -0.2185
     50  CB        73.9160    2.7430   -7.3480 C.3   344  PHE344      0.0507
     51  CG        74.7850    1.6780   -6.7350 C.ar  344  PHE344     -0.0204
     52  CD1       76.1420    1.9200   -6.4830 C.ar  344  PHE344     -0.0042
     53  CD2       74.2270    0.4520   -6.3170 C.ar  344  PHE344     -0.0042
     54  CE1       76.9370    0.9470   -5.8850 C.ar  344  PHE344     -0.0003
     55  CE2       75.0180   -0.5040   -5.6630 C.ar  344  PHE344     -0.0003
     56  CZ        76.3660   -0.2520   -5.4740 C.ar  344  PHE344     -0.0000
     57  N         70.4960    4.7130  -11.2870 N.3   347  PHE347     -0.1227
     58  CA        69.6900    3.6280  -10.7990 C.3   347  PHE347      0.1736
     59  C         69.6950    2.4500  -11.7760 C.2   347  PHE347      0.2595
     60  O         69.8530    1.2490  -11.3610 O.2   347  PHE347     -0.2718
     61  CB        68.2010    4.1040  -10.6050 C.3   347  PHE347      0.0547
     62  CG        67.2640    2.9720  -10.3670 C.ar  347  PHE347     -0.0202
     63  CD1       67.0630    2.4700   -9.0490 C.ar  347  PHE347     -0.0042
     64  CD2       66.5870    2.3550  -11.4410 C.ar  347  PHE347     -0.0042
     65  CE1       66.1680    1.3550   -8.8630 C.ar  347  PHE347     -0.0003
     66  CE2       65.6660    1.2710  -11.2240 C.ar  347  PHE347     -0.0003
     67  CZ        65.4770    0.7810   -9.9410 C.ar  347  PHE347     -0.0000
     68  N         69.4100    2.7270  -13.0650 N.am  348  TYR348     -0.1976
     69  CA        69.2350    1.6100  -13.9860 C.3   348  TYR348      0.1639
     70  C         70.4420    0.6120  -13.9970 C.2   348  TYR348      0.2290
     71  O         70.2390   -0.5870  -13.8120 O.2   348  TYR348     -0.2864
     72  CB        68.7510    1.9880  -15.4100 C.3   348  TYR348      0.0560
     73  CG        68.5730    0.6960  -16.2640 C.ar  348  TYR348     -0.0198
     74  CD1       67.3710   -0.0610  -16.1850 C.ar  348  TYR348     -0.0009
     75  CD2       69.6410    0.2100  -17.0750 C.ar  348  TYR348     -0.0009
     76  CE1       67.2250   -1.2270  -16.9120 C.ar  348  TYR348      0.0417
     77  CE2       69.5300   -0.9890  -17.7820 C.ar  348  TYR348      0.0417
     78  CZ        68.3170   -1.6720  -17.7330 C.ar  348  TYR348      0.1957
     79  OH        68.1520   -2.8260  -18.4430 O.3   348  TYR348     -0.2866
     80  N         72.7480    0.5940  -11.7780 N.3   350  GLN350     -0.1245
     81  CA        73.2880    0.4870  -10.3900 C.3   350  GLN350      0.1566
     82  C         74.7980    0.8010  -10.3520 C.2   350  GLN350      0.2260
     83  O         75.5560   -0.0240   -9.8910 O.2   350  GLN350     -0.2867
     84  CB        72.9960   -0.9250   -9.8520 C.3   350  GLN350      0.0367
     85  CG        71.4770   -1.2090   -9.5880 C.3   350  GLN350      0.0905
     86  CD        70.9600   -0.4150   -8.3880 C.2   350  GLN350      0.2608
     87  OE1       71.3430   -0.6880   -7.2300 O.2   350  GLN350     -0.2717
     88  NE2       70.0600    0.5580   -8.6450 N.am  350  GLN350     -0.0878
     89  N         77.6550    5.2770   -4.2410 N.3   354  TYR354     -0.1241
     90  CA        76.5340    4.7930   -3.4050 C.3   354  TYR354      0.1605
     91  C         76.3220    5.8840   -2.4140 C.2   354  TYR354      0.2264
     92  O         77.2190    6.2510   -1.7200 O.2   354  TYR354     -0.2867
     93  CB        76.8770    3.5150   -2.6910 C.3   354  TYR354      0.0534
     94  CG        75.6680    2.8890   -2.0380 C.ar  354  TYR354     -0.0201
     95  CD1       74.8010    2.1130   -2.7660 C.ar  354  TYR354     -0.0009
     96  CD2       75.4280    3.0640   -0.6460 C.ar  354  TYR354     -0.0009
     97  CE1       73.6800    1.5470   -2.1570 C.ar  354  TYR354      0.0417
     98  CE2       74.3240    2.4830   -0.0470 C.ar  354  TYR354      0.0417
     99  CZ        73.4680    1.7430   -0.7710 C.ar  354  TYR354      0.1957
    100  OH        72.3740    1.1400   -0.1690 O.3   354  TYR354     -0.2866
@<TRIPOS>BOND
     1    79    78    1
     2    77    78   ar
     3    77    75   ar
     4    78    76   ar
     5    75    73   ar
     6    76    74   ar
     7    73    74   ar
     8    73    72    1
     9    72    69    1
    10    14    12   ar
    11    14    13   ar
    12    70    69    1
    13    70    71    2
    14    69    68    1
    15    12    10   ar
    16    13    11   ar
    17    68    59   am
    18    10     9   ar
    19    10     8   ar
    20    11     8   ar
    21     9     7   ar
    22     8     6   ar
    23    80    81    1
    24    59    60    2
    25    59    58    1
    26    64    66   ar
    27    64    62   ar
    28    57    58    1
    29    66    67   ar
    30     7     6   ar
    31     6     5    1
    32    58    61    1
    33    61    62    1
    34    81    82    1
    35    81    84    1
    36    62    63   ar
    37    82    83    2
    38    67    65   ar
    39     5     2    1
    40    84    85    1
    41    85    86    1
    42    63    65   ar
    43     2     1    1
    44     2     3    1
    45    88    86   am
    46    86    87    2
    47     4     3    2
    48     3    15   am
    49    49    48    1
    50    50    51    1
    51    50    47    1
    52    48    47    1
    53    51    52   ar
    54    51    53   ar
    55    15    16    1
    56    52    54   ar
    57    47    46    1
    58    53    55   ar
    59    54    56   ar
    60    55    56   ar
    61    46    44   am
    62    16    19    1
    63    16    17    1
    64    19    21    1
    65    19    20    1
    66    18    17    2
    67    44    45    2
    68    44    43    1
    69    89    90    1
    70    43    42    1
    71    90    93    1
    72    90    91    1
    73    95    97   ar
    74    95    94   ar
    75    93    94    1
    76    91    92    2
    77    42    32   am
    78    97    99   ar
    79    94    96   ar
    80    29    27   ar
    81    33    32    2
    82    32    31    1
    83    22    23    1
    84    27    26    1
    85    27    28   ar
    86    25    24    2
    87    99   100    1
    88    99    98   ar
    89    26    23    1
    90    96    98   ar
    91    23    24    1
    92    31    30    1
    93    31    34    1
    94    34    35    1
    95    36    35   ar
    96    36    38   ar
    97    35    37   ar
    98    38    40   ar
    99    37    39   ar
   100    40    39   ar
   101    40    41    1
