@<TRIPOS>MOLECULE
tmp/4iieB11.pdb
 115 113 0 0 0
SMALL
GASTEIGER

@<TRIPOS>ATOM
      1  N         66.7730    6.2670  -19.9220 N.3    47  TRP47      -0.1241
      2  CA        65.6660    5.9290  -19.0430 C.3    47  TRP47       0.1605
      3  C         66.1450    5.4120  -17.6700 C.2    47  TRP47       0.2264
      4  O         66.8560    4.3820  -17.6180 O.2    47  TRP47      -0.2867
      5  CB        64.8170    4.8190  -19.7060 C.3    47  TRP47       0.0550
      6  CG        63.6570    4.3030  -18.8470 C.ar   47  TRP47       0.0003
      7  CD1       63.4770    2.9780  -18.4030 C.ar   47  TRP47       0.0946
      8  CD2       62.5100    5.0400  -18.3840 C.ar   47  TRP47       0.0152
      9  NE1       62.2480    2.8640  -17.7420 N.ar   47  TRP47      -0.2442
     10  CE2       61.6610    4.1170  -17.6850 C.ar   47  TRP47       0.0810
     11  CE3       62.1120    6.4030  -18.4700 C.ar   47  TRP47       0.0012
     12  CZ2       60.4510    4.5090  -17.0490 C.ar   47  TRP47       0.0191
     13  CZ3       60.9110    6.7880  -17.8280 C.ar   47  TRP47       0.0001
     14  CH2       60.0900    5.8230  -17.1410 C.ar   47  TRP47       0.0015
     15  N         56.4600   13.9080  -14.0890 N.3    71  ASP71      -0.1239
     16  CA        55.0050   13.7940  -14.1070 C.3    71  ASP71       0.1674
     17  C         54.5400   14.2600  -12.6870 C.2    71  ASP71       0.2266
     18  O         55.3600   14.2830  -11.7810 O.2    71  ASP71      -0.2867
     19  CB        54.6810   12.3340  -14.3500 C.3    71  ASP71       0.1410
     20  CG        54.7150   11.9780  -15.8630 C.2    71  ASP71       0.3668
     21  OD1       54.3750   12.8650  -16.6700 O.co2  71  ASP71      -0.2456
     22  OD2       55.0230   10.8210  -16.2460 O.co2  71  ASP71      -0.2456
     23  N         54.6080   12.7330   -9.4800 N.3    77  ARG77      -0.1231
     24  CA        54.6430   11.2820   -9.6210 C.3    77  ARG77       0.1694
     25  C         55.8810   10.6430   -8.9710 C.2    77  ARG77       0.2592
     26  O         56.9820   11.2180   -8.9970 O.2    77  ARG77      -0.2718
     27  CB        54.6640   10.9540  -11.1570 C.3    77  ARG77       0.0321
     28  CG        54.3830    9.4600  -11.3910 C.3    77  ARG77       0.0489
     29  CD        54.4900    9.1660  -12.8900 C.3    77  ARG77       0.2205
     30  NE        54.2740    7.7330  -13.0660 N.pl3  77  ARG77      -0.0865
     31  CZ        54.6920    7.0500  -14.1340 C.cat  77  ARG77       0.5346
     32  NH1       55.2140    7.7050  -15.1570 N.pl3  77  ARG77       0.1354
     33  NH2       54.4900    5.7340  -14.2230 N.pl3  77  ARG77       0.1354
     34  N         55.7230    9.3850   -8.4830 N.am   78  ASP78      -0.1974
     35  CA        56.9040    8.5230   -8.2040 C.3    78  ASP78       0.1709
     36  C         57.7390    9.0950   -7.0720 C.2    78  ASP78       0.2293
     37  O         58.9650    8.9980   -7.0690 O.2    78  ASP78      -0.2864
     38  CB        57.7400    8.2930   -9.4600 C.3    78  ASP78       0.1436
     39  CG        57.1640    7.1210  -10.3280 C.2    78  ASP78       0.3671
     40  OD1       56.3360    6.2920   -9.8270 O.co2  78  ASP78      -0.2456
     41  OD2       57.5590    7.0180  -11.5040 O.co2  78  ASP78      -0.2456
     42  N         57.7670    9.9930  -24.4890 N.3   260  TRP260     -0.1241
     43  CA        58.8430    9.1260  -24.0270 C.3   260  TRP260      0.1605
     44  C         58.8420    7.9320  -24.9630 C.2   260  TRP260      0.2264
     45  O         57.9830    7.0320  -24.8390 O.2   260  TRP260     -0.2867
     46  CB        58.5370    8.7100  -22.5770 C.3   260  TRP260      0.0550
     47  CG        59.2080    9.5250  -21.5090 C.ar  260  TRP260      0.0003
     48  CD1       60.0040    9.0170  -20.4660 C.ar  260  TRP260      0.0946
     49  CD2       59.2620   10.9730  -21.3620 C.ar  260  TRP260      0.0152
     50  NE1       60.4570   10.0650  -19.6660 N.ar  260  TRP260     -0.2442
     51  CE2       59.9930   11.2540  -20.1830 C.ar  260  TRP260      0.0810
     52  CE3       58.6740   12.0510  -22.0450 C.ar  260  TRP260      0.0012
     53  CZ2       60.2320   12.6140  -19.7230 C.ar  260  TRP260      0.0191
     54  CZ3       58.8700   13.3760  -21.5680 C.ar  260  TRP260      0.0001
     55  CH2       59.6180   13.6370  -20.4450 C.ar  260  TRP260      0.0015
     56  N         64.0870    2.5040  -24.3000 N.3   284  PHE284     -0.1241
     57  CA        64.5560    2.6500  -22.8760 C.3   284  PHE284      0.1605
     58  C         65.8280    1.8340  -22.6280 C.2   284  PHE284      0.2264
     59  O         65.8250    0.5720  -22.7880 O.2   284  PHE284     -0.2867
     60  CB        63.4450    2.1530  -21.9110 C.3   284  PHE284      0.0534
     61  CG        62.2190    3.0820  -21.8610 C.ar  284  PHE284     -0.0203
     62  CD1       62.2150    4.3080  -22.5780 C.ar  284  PHE284     -0.0042
     63  CD2       61.1380    2.8020  -20.9770 C.ar  284  PHE284     -0.0042
     64  CE1       61.1210    5.1890  -22.5020 C.ar  284  PHE284     -0.0003
     65  CE2       60.0620    3.7000  -20.8960 C.ar  284  PHE284     -0.0003
     66  CZ        60.0570    4.8820  -21.6420 C.ar  284  PHE284     -0.0000
     67  N         62.7860    6.1290   -8.7310 N.3   337  TRP337     -0.1241
     68  CA        62.8760    4.6500   -9.0030 C.3   337  TRP337      0.1605
     69  C         63.0210    3.7910   -7.7560 C.2   337  TRP337      0.2264
     70  O         63.0230    2.5560   -7.8570 O.2   337  TRP337     -0.2867
     71  CB        64.1340    4.3990   -9.8790 C.3   337  TRP337      0.0550
     72  CG        64.2830    5.4930  -10.9240 C.ar  337  TRP337      0.0003
     73  CD1       65.3620    6.3610  -11.0620 C.ar  337  TRP337      0.0946
     74  CD2       63.3240    5.8500  -11.9370 C.ar  337  TRP337      0.0152
     75  NE1       65.1350    7.2000  -12.1450 N.ar  337  TRP337     -0.2442
     76  CE2       63.8960    6.9330  -12.6830 C.ar  337  TRP337      0.0810
     77  CE3       62.0400    5.3610  -12.2960 C.ar  337  TRP337      0.0012
     78  CZ2       63.2390    7.5330  -13.7590 C.ar  337  TRP337      0.0191
     79  CZ3       61.3570    5.9670  -13.4140 C.ar  337  TRP337      0.0001
     80  CH2       61.9920    6.9960  -14.1410 C.ar  337  TRP337      0.0015
     81  N         50.7580    2.7430  -10.1680 N.3   416  ASP416     -0.1239
     82  CA        50.2710    3.7660  -11.0950 C.3   416  ASP416      0.1674
     83  C         48.7350    3.7780  -11.0930 C.2   416  ASP416      0.2266
     84  O         48.1100    4.1370  -12.1140 O.2   416  ASP416     -0.2867
     85  CB        50.7280    3.4830  -12.5480 C.3   416  ASP416      0.1410
     86  CG        52.2830    3.5980  -12.7060 C.2   416  ASP416      0.3668
     87  OD1       52.9400    4.3690  -11.9290 O.co2 416  ASP416     -0.2456
     88  OD2       52.7750    2.9230  -13.6380 O.co2 416  ASP416     -0.2456
     89  N         50.5360    7.3220  -16.1270 N.3   430  SER430     -0.1217
     90  CA        51.5740    8.2480  -15.7140 C.3   430  SER430      0.1889
     91  C         50.9620    9.5300  -15.1040 C.2   430  SER430      0.2288
     92  O         51.6950   10.3200  -14.5040 O.2   430  SER430     -0.2866
     93  CB        52.3730    8.6300  -16.9990 C.3   430  SER430      0.2089
     94  OG        51.6090    9.6120  -17.7330 O.3   430  SER430     -0.2183
     95  N         45.9430    5.4980  -18.9070 N.3   488  GLU488     -0.1245
     96  CA        46.8550    5.4880  -20.0040 C.3   488  GLU488      0.1567
     97  C         46.9750    4.0370  -20.6080 C.2   488  GLU488      0.2260
     98  O         46.8680    3.0690  -19.8680 O.2   488  GLU488     -0.2867
     99  CB        48.2030    5.9350  -19.4510 C.3   488  GLU488      0.0388
    100  CG        49.1910    6.2440  -20.5710 C.3   488  GLU488      0.1160
    101  CD        50.5460    6.7270  -20.0960 C.2   488  GLU488      0.3649
    102  OE1       50.6260    7.2730  -18.9960 O.co2 488  GLU488     -0.2457
    103  OE2       51.5190    6.5890  -20.8770 O.co2 488  GLU488     -0.2457
    104  N         49.2290    1.7900  -21.4310 N.3   490  TYR490     -0.1241
    105  CA        50.1860    0.7040  -21.0890 C.3   490  TYR490      0.1605
    106  C         49.6300   -0.1970  -19.9410 C.2   490  TYR490      0.2264
    107  O         50.1950   -1.2140  -19.6270 O.2   490  TYR490     -0.2867
    108  CB        51.6050    1.2590  -20.7860 C.3   490  TYR490      0.0534
    109  CG        51.6690    2.0250  -19.4820 C.ar  490  TYR490     -0.0201
    110  CD1       52.0510    1.4000  -18.3080 C.ar  490  TYR490     -0.0009
    111  CD2       51.3790    3.4530  -19.4370 C.ar  490  TYR490     -0.0009
    112  CE1       52.1190    2.1010  -17.0860 C.ar  490  TYR490      0.0417
    113  CE2       51.4400    4.1320  -18.2240 C.ar  490  TYR490      0.0417
    114  CZ        51.8550    3.4850  -17.0810 C.ar  490  TYR490      0.1957
    115  OH        51.9740    4.1710  -15.9060 O.3   490  TYR490     -0.2866
@<TRIPOS>BOND
     1    44    45    2
     2    44    43    1
     3    42    43    1
     4    56    57    1
     5    43    46    1
     6    57    58    1
     7    57    60    1
     8    59    58    2
     9    62    64   ar
    10    62    61   ar
    11    46    47    1
    12    64    66   ar
    13    52    54   ar
    14    52    49   ar
    15    60    61    1
    16    61    63   ar
    17    66    65   ar
    18    54    55   ar
    19    47    49   ar
    20    47    48   ar
    21   104   105    1
    22    49    51   ar
    23   105   108    1
    24   105   106    1
    25    63    65   ar
    26   103   101   ar
    27   108   109    1
    28    97    96    1
    29    97    98    2
    30   100   101    1
    31   100    99    1
    32    48    50   ar
    33    55    53   ar
    34    51    53   ar
    35    51    50   ar
    36   101   102   ar
    37    96    99    1
    38    96    95    1
    39   106   107    2
    40     1     2    1
    41     5     2    1
    42     5     6    1
    43   109   111   ar
    44   109   110   ar
    45   111   113   ar
    46     2     3    1
    47     6     7   ar
    48     6     8   ar
    49    11     8   ar
    50    11    13   ar
    51     7     9   ar
    52     8    10   ar
    53   110   112   ar
    54   113   114   ar
    55    13    14   ar
    56     9    10   ar
    57    94    93    1
    58    10    12   ar
    59     3     4    2
    60    14    12   ar
    61   112   114   ar
    62   114   115    1
    63    93    90    1
    64    21    20   ar
    65    22    20   ar
    66    89    90    1
    67    20    19    1
    68    90    91    1
    69    32    31    1
    70    91    92    2
    71    19    16    1
    72    33    31    1
    73    80    78   ar
    74    80    79   ar
    75    31    30    2
    76    16    15    1
    77    16    17    1
    78    78    76   ar
    79    88    86   ar
    80    79    77   ar
    81    30    29    1
    82    29    28    1
    83    86    85    1
    84    86    87   ar
    85    17    18    2
    86    76    75   ar
    87    76    74   ar
    88    85    82    1
    89    77    74   ar
    90    75    73   ar
    91    84    83    2
    92    74    72   ar
    93    41    39   ar
    94    28    27    1
    95    27    24    1
    96    82    83    1
    97    82    81    1
    98    73    72   ar
    99    72    71    1
   100    39    40   ar
   101    39    38    1
   102    71    68    1
   103    24    23    1
   104    24    25    1
   105    38    35    1
   106    68    67    1
   107    68    69    1
   108    26    25    2
   109    25    34   am
   110    34    35    1
   111    35    36    1
   112    70    69    2
   113    36    37    2
