@<TRIPOS>MOLECULE
tmp/4iifB05.pdb
 141 135 0 0 0
SMALL
GASTEIGER

@<TRIPOS>ATOM
      1  N         46.4840    9.7960  -45.9480 N.3     2  ALA2       -0.1231
      2  CA        46.7070   11.1650  -45.5200 C.3     2  ALA2        0.1694
      3  C         48.2010   11.4890  -45.5220 C.2     2  ALA2        0.2592
      4  O         49.0330   10.6450  -45.2270 O.2     2  ALA2       -0.2718
      5  CB        46.1380   11.3650  -44.1470 C.3     2  ALA2        0.0304
      6  N         48.5190   12.7210  -45.8730 N.am    3  PHE3       -0.1962
      7  CA        49.8590   13.1470  -46.1070 C.3     3  PHE3        0.1771
      8  C         50.0970   14.4520  -45.3480 C.2     3  PHE3        0.2620
      9  O         49.1980   15.2980  -45.2640 O.2     3  PHE3       -0.2715
     10  CB        50.0680   13.3960  -47.6270 C.3     3  PHE3        0.0574
     11  CG        51.4340   13.9590  -47.9750 C.ar    3  PHE3       -0.0200
     12  CD1       52.6010   13.1280  -47.9430 C.ar    3  PHE3       -0.0042
     13  CD2       51.5810   15.3140  -48.3280 C.ar    3  PHE3       -0.0042
     14  CE1       53.8840   13.6530  -48.2640 C.ar    3  PHE3       -0.0003
     15  CE2       52.8610   15.8430  -48.6590 C.ar    3  PHE3       -0.0003
     16  CZ        54.0060   15.0070  -48.6160 C.ar    3  PHE3       -0.0000
     17  N         51.3220   14.6500  -44.8510 N.am    4  SER4       -0.1936
     18  CA        51.5970   15.8030  -44.0070 C.3     4  SER4        0.2040
     19  C         52.6540   16.7010  -44.6870 C.2     4  SER4        0.2485
     20  O         53.8440   16.3560  -44.7220 O.2     4  SER4       -0.2729
     21  CB        52.0040   15.3140  -42.5840 C.3     4  SER4        0.2129
     22  OG        52.2570   16.3850  -41.7090 O.3     4  SER4       -0.2179
     23  N         52.2200   17.8270  -45.2620 N.am    5  PRO5       -0.2726
     24  CA        53.0920   18.6430  -46.0970 C.3     5  PRO5        0.1402
     25  C         54.2380   19.2400  -45.2760 C.2     5  PRO5        0.2269
     26  O         54.0800   19.4080  -44.0580 O.2     5  PRO5       -0.2865
     27  CB        52.1790   19.7870  -46.6030 C.3     5  PRO5        0.0296
     28  CG        50.8380   19.5110  -46.0920 C.3     5  PRO5        0.0237
     29  CD        50.9380   18.4770  -45.0020 C.3     5  PRO5        0.0939
     30  N         43.3170   14.8110  -39.6900 N.3   199  VAL199     -0.1231
     31  CA        42.4320   15.9560  -39.4080 C.3   199  VAL199      0.1692
     32  C         42.5760   17.0790  -40.4710 C.2   199  VAL199      0.2592
     33  O         43.7010   17.4000  -40.9380 O.2   199  VAL199     -0.2718
     34  CB        42.7060   16.5150  -37.9650 C.3   199  VAL199      0.0266
     35  CG1       41.6210   17.4750  -37.4800 C.3   199  VAL199      0.0020
     36  CG2       42.7340   15.3480  -37.0030 C.3   199  VAL199      0.0020
     37  N         41.4400   17.6610  -40.8680 N.am  200  ASP200     -0.1960
     38  CA        41.4640   18.7580  -41.8540 C.3   200  ASP200      0.1840
     39  C         41.9830   20.0720  -41.1460 C.2   200  ASP200      0.2622
     40  O         42.0090   20.1440  -39.9100 O.2   200  ASP200     -0.2715
     41  CB        40.0840   18.9260  -42.4920 C.3   200  ASP200      0.1450
     42  CG        39.0810   19.4940  -41.5290 C.2   200  ASP200      0.3671
     43  OD1       38.9900   20.7250  -41.4400 O.co2 200  ASP200     -0.2456
     44  OD2       38.4050   18.7250  -40.8170 O.co2 200  ASP200     -0.2456
     45  N         42.3780   21.0890  -41.9170 N.am  201  ASP201     -0.1971
     46  CA        43.0950   22.2370  -41.3730 C.3   201  ASP201      0.1709
     47  C         42.1730   23.1290  -40.5310 C.2   201  ASP201      0.2293
     48  O         42.5860   23.6800  -39.5130 O.2   201  ASP201     -0.2864
     49  CB        43.7590   23.0000  -42.5120 C.3   201  ASP201      0.1436
     50  CG        44.6600   24.1570  -42.0240 C.2   201  ASP201      0.3671
     51  OD1       45.4530   24.0140  -41.0290 O.co2 201  ASP201     -0.2456
     52  OD2       44.5840   25.2330  -42.6670 O.co2 201  ASP201     -0.2456
     53  N         41.5080   21.4810  -36.9880 N.3   204  ILE204     -0.1245
     54  CA        42.6160   21.5560  -36.0430 C.3   204  ILE204      0.1561
     55  C         42.7100   22.9810  -35.4530 C.2   204  ILE204      0.2260
     56  O         42.9400   23.1340  -34.2600 O.2   204  ILE204     -0.2867
     57  CB        43.9790   20.9760  -36.6050 C.3   204  ILE204      0.0252
     58  CG1       44.8240   20.3280  -35.4970 C.3   204  ILE204      0.0019
     59  CG2       44.8200   22.0020  -37.4160 C.3   204  ILE204      0.0019
     60  CD1       46.1490   19.7830  -36.0110 C.3   204  ILE204      0.0001
     61  N         50.3380   12.5740  -37.1740 N.3   230  ILE230     -0.1231
     62  CA        49.2930   13.3820  -37.7630 C.3   230  ILE230      0.1692
     63  C         49.5340   13.2170  -39.2480 C.2   230  ILE230      0.2592
     64  O         50.6420   13.4640  -39.7160 O.2   230  ILE230     -0.2718
     65  CB        49.4110   14.8610  -37.3080 C.3   230  ILE230      0.0266
     66  CG1       49.2800   14.9450  -35.7810 C.3   230  ILE230      0.0019
     67  CG2       48.3610   15.7530  -37.9670 C.3   230  ILE230      0.0020
     68  CD1       50.6080   14.9420  -35.0760 C.3   230  ILE230      0.0001
     69  N         48.5150   12.7710  -39.9690 N.am  231  ASN231     -0.1974
     70  CA        48.6000   12.4520  -41.3900 C.3   231  ASN231      0.1688
     71  C         49.9140   11.7340  -41.7110 C.2   231  ASN231      0.2292
     72  O         50.6590   12.1560  -42.6260 O.2   231  ASN231     -0.2864
     73  CB        48.5370   13.7070  -42.2960 C.3   231  ASN231      0.1181
     74  CG        47.3060   14.6000  -42.0850 C.2   231  ASN231      0.2629
     75  OD1       46.4080   14.3510  -41.2620 O.2   231  ASN231     -0.2716
     76  ND2       47.2960   15.6890  -42.8730 N.am  231  ASN231     -0.0877
     77  N         57.0190   16.2040  -36.9590 N.3   238  ASN238     -0.1240
     78  CA        56.0110   16.7380  -37.8750 C.3   238  ASN238      0.1653
     79  C         56.2850   18.1790  -38.2030 C.2   238  ASN238      0.2266
     80  O         56.0330   19.0680  -37.3740 O.2   238  ASN238     -0.2867
     81  CB        54.6140   16.5590  -37.2890 C.3   238  ASN238      0.1155
     82  CG        53.5400   16.7700  -38.3320 C.2   238  ASN238      0.2627
     83  OD1       53.3640   17.9000  -38.8090 O.2   238  ASN238     -0.2716
     84  ND2       52.8250   15.7060  -38.7010 N.am  238  ASN238     -0.0877
     85  N         54.8850   20.2180  -40.0530 N.3   240  TYR240     -0.1227
     86  CA        53.6280   21.0180  -40.1280 C.3   240  TYR240      0.1736
     87  C         53.1210   21.4510  -38.7360 C.2   240  TYR240      0.2596
     88  O         52.9120   22.6470  -38.4680 O.2   240  TYR240     -0.2718
     89  CB        52.5090   20.3300  -40.9380 C.3   240  TYR240      0.0548
     90  CG        51.5790   21.3470  -41.5500 C.ar  240  TYR240     -0.0200
     91  CD1       51.8320   21.8870  -42.8470 C.ar  240  TYR240     -0.0009
     92  CD2       50.4520   21.8060  -40.8560 C.ar  240  TYR240     -0.0009
     93  CE1       50.9860   22.8340  -43.4030 C.ar  240  TYR240      0.0417
     94  CE2       49.5990   22.7640  -41.3990 C.ar  240  TYR240      0.0417
     95  CZ        49.8660   23.2760  -42.6780 C.ar  240  TYR240      0.1957
     96  OH        49.0170   24.2500  -43.2190 O.3   240  TYR240     -0.2866
     97  N         52.9280   20.5020  -37.8320 N.am  241  THR241     -0.1953
     98  CA        52.3860   20.8990  -36.5110 C.3   241  THR241      0.1897
     99  C         53.4150   21.6520  -35.7480 C.2   241  THR241      0.2313
    100  O         53.0330   22.6320  -35.0770 O.2   241  THR241     -0.2863
    101  CB        51.8700   19.7280  -35.6910 C.3   241  THR241      0.1794
    102  OG1       52.9180   18.7410  -35.5380 O.3   241  THR241     -0.2208
    103  CG2       50.6220   19.1140  -36.4080 C.3   241  THR241      0.0378
    104  N         55.1830   24.9220  -38.4690 N.3   244  LYS244     -0.1231
    105  CA        54.2330   25.8740  -39.0080 C.3   244  LYS244      0.1693
    106  C         53.2290   26.2920  -37.9490 C.2   244  LYS244      0.2591
    107  O         53.1610   27.4780  -37.5940 O.2   244  LYS244     -0.2718
    108  CB        53.5330   25.3830  -40.2590 C.3   244  LYS244      0.0285
    109  CG        52.6240   26.4510  -40.8710 C.3   244  LYS244      0.0035
    110  CD        51.9010   25.9540  -42.1280 C.3   244  LYS244      0.0206
    111  CE        51.2430   27.1110  -42.8810 C.3   244  LYS244      0.1093
    112  NZ        50.4090   26.6350  -44.0310 N.3   244  LYS244     -0.1314
    113  N         52.4720   25.3220  -37.4240 N.am  245  LEU245     -0.1980
    114  CA        51.3940   25.6870  -36.5030 C.3   245  LEU245      0.1596
    115  C         51.9630   26.2670  -35.1600 C.2   245  LEU245      0.2287
    116  O         51.6020   27.3870  -34.7790 O.2   245  LEU245     -0.2864
    117  CB        50.3850   24.5260  -36.3010 C.3   245  LEU245      0.0297
    118  CG        49.6820   23.9080  -37.5130 C.3   245  LEU245      0.0022
    119  CD1       48.6190   22.8990  -37.1190 C.3   245  LEU245      0.0001
    120  CD2       48.9920   25.0420  -38.2230 C.3   245  LEU245      0.0001
    121  N         40.7590   28.2320  -44.7200 N.3   799  VAL799     -0.1231
    122  CA        41.8160   27.4240  -45.3310 C.3   799  VAL799      0.1692
    123  C         42.5070   28.1040  -46.5380 C.2   799  VAL799      0.2591
    124  O         43.7380   28.1150  -46.6130 O.2   799  VAL799     -0.2718
    125  CB        41.2500   26.0340  -45.7000 C.3   799  VAL799      0.0266
    126  CG1       42.0790   25.3980  -46.7840 C.3   799  VAL799      0.0020
    127  CG2       41.1600   25.1550  -44.4430 C.3   799  VAL799      0.0020
    128  N         41.7230   28.7050  -47.4410 N.am  800  ALA800     -0.1980
    129  CA        42.2740   29.4080  -48.6030 C.3   800  ALA800      0.1597
    130  C         43.1570   30.5850  -48.1590 C.2   800  ALA800      0.2287
    131  O         44.2410   30.7610  -48.6720 O.2   800  ALA800     -0.2864
    132  CB        41.1650   29.8640  -49.5770 C.3   800  ALA800      0.0319
    133  N         44.5330   30.9530  -45.1720 N.3   802  GLN802     -0.1245
    134  CA        45.4330   30.5760  -44.0810 C.3   802  GLN802      0.1566
    135  C         45.3300   31.6220  -42.9650 C.2   802  GLN802      0.2260
    136  O         46.3470   32.0640  -42.3810 O.2   802  GLN802     -0.2867
    137  CB        46.8770   30.3460  -44.5730 C.3   802  GLN802      0.0367
    138  CG        47.0520   29.0290  -45.3450 C.3   802  GLN802      0.0905
    139  CD        46.8260   27.7510  -44.4570 C.2   802  GLN802      0.2608
    140  OE1       47.6670   27.4010  -43.5820 O.2   802  GLN802     -0.2717
    141  NE2       45.7060   27.0330  -44.7090 N.am  802  GLN802     -0.0878
@<TRIPOS>BOND
     1   132   129    1
     2   131   130    2
     3    15    16   ar
     4    15    13   ar
     5    16    14   ar
     6   129   130    1
     7   129   128    1
     8    13    11   ar
     9    14    12   ar
    10    11    12   ar
    11    11    10    1
    12    10     7    1
    13   128   123   am
    14   126   125    1
    15   124   123    2
    16    27    24    1
    17    27    28    1
    18   123   122    1
    19     7     6    1
    20     7     8    1
    21    24    25    1
    22    24    23    1
    23    28    29    1
    24     1     2    1
    25     6     3   am
    26   125   122    1
    27   125   127    1
    28     3     2    1
    29     3     4    2
    30     2     5    1
    31     8     9    2
    32     8    17   am
    33   138   137    1
    34   138   139    1
    35   122   121    1
    36    25    26    2
    37    23    29    1
    38    23    19   am
    39   133   134    1
    40    17    18    1
    41    20    19    2
    42   141   139   am
    43    19    18    1
    44   137   134    1
    45   139   140    2
    46   134   135    1
    47   112   111    1
    48    18    21    1
    49    93    91   ar
    50    93    95   ar
    51    96    95    1
    52   135   136    2
    53   111   110    1
    54    76    74   am
    55    91    90   ar
    56    95    94   ar
    57    52    50   ar
    58    72    71    2
    59    21    22    1
    60    49    50    1
    61    49    46    1
    62    41    38    1
    63    41    42    1
    64    73    74    1
    65    73    70    1
    66   110   109    1
    67    74    75    2
    68    50    51   ar
    69    45    46    1
    70    45    39   am
    71    38    39    1
    72    38    37    1
    73    71    70    1
    74    90    89    1
    75    90    92   ar
    76    42    43   ar
    77    42    44   ar
    78    94    92   ar
    79    70    69    1
    80    46    47    1
    81    39    40    2
    82    33    32    2
    83    89    86    1
    84   109   108    1
    85    37    32   am
    86    47    48    2
    87    32    31    1
    88   108   105    1
    89    86    85    1
    90    86    87    1
    91    69    63   am
    92    64    63    2
    93    30    31    1
    94    31    34    1
    95    63    62    1
    96   105   104    1
    97   105   106    1
    98    83    82    2
    99    87    88    2
   100    87    97   am
   101    84    82   am
   102    82    81    1
   103   120   118    1
   104    79    78    1
   105    79    80    2
   106    67    65    1
   107    34    35    1
   108    34    36    1
   109   106   107    2
   110   106   113   am
   111    78    81    1
   112    78    77    1
   113    97    98    1
   114    62    65    1
   115    62    61    1
   116   118   119    1
   117   118   117    1
   118   113   114    1
   119    59    57    1
   120    65    66    1
   121    53    54    1
   122    57    54    1
   123    57    58    1
   124    98    99    1
   125    98   101    1
   126   114   117    1
   127   114   115    1
   128   103   101    1
   129    54    55    1
   130    60    58    1
   131    66    68    1
   132    99   100    2
   133   101   102    1
   134    55    56    2
   135   115   116    2
