@<TRIPOS>MOLECULE
tmp/4iifA01.pdb
 158 152 0 0 0
SMALL
GASTEIGER

@<TRIPOS>ATOM
      1  N          8.2040  -20.4240   20.3450 N.3    47  TRP47      -0.1241
      2  CA         9.2830  -19.7580   19.6230 C.3    47  TRP47       0.1605
      3  C          8.7180  -18.7760   18.6020 C.2    47  TRP47       0.2264
      4  O          8.0410  -19.1860   17.6750 O.2    47  TRP47      -0.2867
      5  CB        10.1730  -20.8070   18.9450 C.3    47  TRP47       0.0550
      6  CG        11.3120  -20.2030   18.1380 C.ar   47  TRP47       0.0003
      7  CD1       11.4690  -20.2810   16.7730 C.ar   47  TRP47       0.0946
      8  CD2       12.4120  -19.4250   18.6220 C.ar   47  TRP47       0.0152
      9  NE1       12.5920  -19.6070   16.3830 N.ar   47  TRP47      -0.2442
     10  CE2       13.2010  -19.0690   17.4870 C.ar   47  TRP47       0.0810
     11  CE3       12.8060  -18.9630   19.8900 C.ar   47  TRP47       0.0012
     12  CZ2       14.3950  -18.2920   17.5920 C.ar   47  TRP47       0.0191
     13  CZ3       13.9810  -18.1740   19.9870 C.ar   47  TRP47       0.0001
     14  CH2       14.7640  -17.8670   18.8540 C.ar   47  TRP47       0.0015
     15  N         13.0320  -12.8470   22.4570 N.3    53  VAL53      -0.1245
     16  CA        13.5500  -14.2070   22.2630 C.3    53  VAL53       0.1561
     17  C         12.8930  -15.1830   23.2570 C.2    53  VAL53       0.2260
     18  O         12.6970  -16.3430   22.9350 O.2    53  VAL53      -0.2867
     19  CB        15.1180  -14.3290   22.2160 C.3    53  VAL53       0.0252
     20  CG1       15.8140  -13.0670   21.6890 C.3    53  VAL53       0.0019
     21  CG2       15.6860  -14.6690   23.5450 C.3    53  VAL53       0.0019
     22  N         18.1600  -11.4690   24.8870 N.3    71  ASP71      -0.1239
     23  CA        19.6200  -11.4910   24.9060 C.3    71  ASP71       0.1674
     24  C         20.1570  -10.0660   24.7560 C.2    71  ASP71       0.2266
     25  O         19.3810   -9.1690   24.4320 O.2    71  ASP71      -0.2867
     26  CB        20.0820  -12.3010   23.7330 C.3    71  ASP71       0.1410
     27  CG        19.9300  -13.7650   23.9600 C.2    71  ASP71       0.3668
     28  OD1       20.5930  -14.2730   24.8810 O.co2  71  ASP71      -0.2456
     29  OD2       19.1960  -14.4180   23.1700 O.co2  71  ASP71      -0.2456
     30  N         19.9750   -7.6600   21.8760 N.3    77  ARG77      -0.1245
     31  CA        20.0010   -8.4830   20.6840 C.3    77  ARG77       0.1563
     32  C         18.7530   -8.2350   19.8400 C.2    77  ARG77       0.2260
     33  O         17.6500   -8.0840   20.3920 O.2    77  ARG77      -0.2867
     34  CB        20.0180   -9.9730   21.0710 C.3    77  ARG77       0.0307
     35  CG        20.3830  -10.8620   19.9020 C.3    77  ARG77       0.0489
     36  CD        20.0210  -12.3090   20.0970 C.3    77  ARG77       0.2205
     37  NE        20.3960  -13.0950   18.9460 N.pl3  77  ARG77      -0.0865
     38  CZ        20.2780  -14.4140   18.8850 C.cat  77  ARG77       0.5346
     39  NH1       19.7750  -15.0780   19.9170 N.pl3  77  ARG77       0.1354
     40  NH2       20.6590  -15.0790   17.7890 N.pl3  77  ARG77       0.1354
     41  N         19.0490  -11.6760   29.4080 N.3   120  LEU120     -0.1245
     42  CA        19.6460  -13.0160   29.2830 C.3   120  LEU120      0.1561
     43  C         21.1800  -12.9770   29.4120 C.2   120  LEU120      0.2260
     44  O         21.9120  -13.2960   28.4620 O.2   120  LEU120     -0.2867
     45  CB        19.1860  -13.6720   27.9630 C.3   120  LEU120      0.0270
     46  CG        17.9030  -14.5830   28.0710 C.3   120  LEU120      0.0019
     47  CD1       17.0340  -14.3680   29.3120 C.3   120  LEU120      0.0001
     48  CD2       17.0390  -14.6700   26.8320 C.3   120  LEU120      0.0001
     49  N         32.8120  -20.1170   23.7850 N.3   135  ARG135     -0.1245
     50  CA        31.9860  -19.0750   24.4620 C.3   135  ARG135      0.1563
     51  C         32.6090  -18.4360   25.7030 C.2   135  ARG135      0.2260
     52  O         31.9240  -17.6970   26.4320 O.2   135  ARG135     -0.2867
     53  CB        30.5720  -19.6090   24.8090 C.3   135  ARG135      0.0307
     54  CG        29.6600  -19.9170   23.6130 C.3   135  ARG135      0.0489
     55  CD        28.3080  -20.4660   24.0720 C.3   135  ARG135      0.2205
     56  NE        27.3500  -19.3730   24.2620 N.pl3 135  ARG135     -0.0865
     57  CZ        26.0630  -19.5000   24.5890 C.cat 135  ARG135      0.5346
     58  NH1       25.5230  -20.6920   24.7490 N.pl3 135  ARG135      0.1354
     59  NH2       25.3080  -18.4110   24.7070 N.pl3 135  ARG135      0.1354
     60  N         23.8690  -17.0930   33.8570 N.3   168  LYS168     -0.1231
     61  CA        23.9310  -18.2850   33.0230 C.3   168  LYS168      0.1693
     62  C         25.4160  -18.6330   32.7490 C.2   168  LYS168      0.2592
     63  O         26.3130  -17.8410   33.0820 O.2   168  LYS168     -0.2718
     64  CB        23.1820  -18.0050   31.7210 C.3   168  LYS168      0.0285
     65  CG        23.8260  -16.9350   30.8120 C.3   168  LYS168      0.0035
     66  CD        22.9850  -16.7450   29.5560 C.3   168  LYS168      0.0206
     67  CE        23.6000  -15.7750   28.5510 C.3   168  LYS168      0.1093
     68  NZ        22.8380  -15.7710   27.2790 N.3   168  LYS168     -0.1314
     69  N         25.7140  -19.8010   32.1760 N.am  169  HIS169     -0.1976
     70  CA        24.8110  -20.9560   32.0630 C.3   169  HIS169      0.1656
     71  C         25.1080  -21.9300   33.2010 C.2   169  HIS169      0.2291
     72  O         26.2810  -22.3060   33.4590 O.2   169  HIS169     -0.2864
     73  CB        25.0550  -21.6740   30.7560 C.3   169  HIS169      0.0771
     74  CG        24.8930  -20.8020   29.5770 C.ar  169  HIS169      0.0820
     75  ND1       25.9490  -20.0800   29.0280 N.ar  169  HIS169     -0.2267
     76  CD2       23.7980  -20.5230   28.8260 C.ar  169  HIS169      0.1154
     77  CE1       25.4990  -19.4110   27.9800 C.ar  169  HIS169      0.1986
     78  NE2       24.2060  -19.6750   27.8220 N.ar  169  HIS169     -0.2212
     79  N         19.8220  -19.3170   34.4250 N.3   224  MET224     -0.1245
     80  CA        19.4910  -20.0820   33.2620 C.3   224  MET224      0.1570
     81  C         20.3240  -21.3270   33.3540 C.2   224  MET224      0.2261
     82  O         21.5440  -21.2380   33.5400 O.2   224  MET224     -0.2867
     83  CB        19.8260  -19.3320   31.9660 C.3   224  MET224      0.0387
     84  CG        19.2760  -20.0700   30.7650 C.3   224  MET224      0.0595
     85  SD        20.0260  -19.5930   29.2220 S.3   224  MET224     -0.1393
     86  CE        19.4260  -17.8970   29.0680 C.3   224  MET224      0.0692
     87  N         22.3240  -26.4980   28.4850 N.3   227  TYR227     -0.1241
     88  CA        22.1470  -27.5910   27.5190 C.3   227  TYR227      0.1605
     89  C         22.8600  -28.9020   27.8590 C.2   227  TYR227      0.2264
     90  O         22.3330  -30.0090   27.6290 O.2   227  TYR227     -0.2867
     91  CB        22.7050  -27.1570   26.1550 C.3   227  TYR227      0.0534
     92  CG        21.8860  -26.1470   25.4100 C.ar  227  TYR227     -0.0201
     93  CD1       20.5010  -26.3580   25.1560 C.ar  227  TYR227     -0.0009
     94  CD2       22.4950  -24.9920   24.9040 C.ar  227  TYR227     -0.0009
     95  CE1       19.7560  -25.4230   24.4140 C.ar  227  TYR227      0.0417
     96  CE2       21.7560  -24.0430   24.1920 C.ar  227  TYR227      0.0417
     97  CZ        20.4050  -24.2600   23.9450 C.ar  227  TYR227      0.1957
     98  OH        19.7200  -23.2970   23.2470 O.3   227  TYR227     -0.2866
     99  N         17.6050  -23.1580   29.3030 N.3   259  ASP259     -0.1225
    100  CA        18.0510  -22.7530   28.0100 C.3   259  ASP259      0.1805
    101  C         16.9890  -23.1470   26.9190 C.2   259  ASP259      0.2597
    102  O         16.0740  -23.9200   27.1770 O.2   259  ASP259     -0.2718
    103  CB        19.4540  -23.2720   27.7040 C.3   259  ASP259      0.1424
    104  CG        20.2790  -22.2380   26.8960 C.2   259  ASP259      0.3668
    105  OD1       19.6770  -21.4390   26.1320 O.co2 259  ASP259     -0.2456
    106  OD2       21.5080  -22.2080   27.0220 O.co2 259  ASP259     -0.2456
    107  N         17.1030  -22.5990   25.7140 N.am  260  TRP260     -0.1976
    108  CA        16.0320  -22.7220   24.7370 C.3   260  TRP260      0.1640
    109  C         16.1910  -24.0670   24.0420 C.2   260  TRP260      0.2290
    110  O         17.0380  -24.1830   23.1370 O.2   260  TRP260     -0.2864
    111  CB        16.1330  -21.6150   23.7050 C.3   260  TRP260      0.0576
    112  CG        15.4510  -20.2820   24.0070 C.ar  260  TRP260      0.0006
    113  CD1       14.6360  -19.5780   23.1410 C.ar  260  TRP260      0.0946
    114  CD2       15.5280  -19.4760   25.2140 C.ar  260  TRP260      0.0152
    115  NE1       14.2140  -18.4200   23.7330 N.ar  260  TRP260     -0.2442
    116  CE2       14.7280  -18.3300   25.0000 C.ar  260  TRP260      0.0810
    117  CE3       16.1780  -19.6190   26.4550 C.ar  260  TRP260      0.0012
    118  CZ2       14.5720  -17.3270   25.9650 C.ar  260  TRP260      0.0191
    119  CZ3       15.9960  -18.6110   27.4370 C.ar  260  TRP260      0.0001
    120  CH2       15.2040  -17.4770   27.1630 C.ar  260  TRP260      0.0015
    121  N         11.0540  -25.8370   18.6950 N.3   284  PHE284     -0.1241
    122  CA        10.6100  -24.5830   18.0860 C.3   284  PHE284      0.1605
    123  C          9.3260  -24.7110   17.2540 C.2   284  PHE284      0.2264
    124  O          9.3230  -25.2750   16.1490 O.2   284  PHE284     -0.2867
    125  CB        11.7370  -23.9420   17.2660 C.3   284  PHE284      0.0534
    126  CG        12.8720  -23.3730   18.1110 C.ar  284  PHE284     -0.0203
    127  CD1       12.8960  -23.5200   19.4950 C.ar  284  PHE284     -0.0042
    128  CD2       13.9410  -22.7110   17.5030 C.ar  284  PHE284     -0.0042
    129  CE1       13.9420  -23.0030   20.2550 C.ar  284  PHE284     -0.0003
    130  CE2       14.9930  -22.1980   18.2630 C.ar  284  PHE284     -0.0003
    131  CZ        14.9980  -22.3370   19.6400 C.ar  284  PHE284     -0.0000
    132  N         24.3510  -16.0940   20.0080 N.3   430  SER430     -0.1217
    133  CA        23.2430  -15.3460   20.5970 C.3   430  SER430      0.1889
    134  C         23.7540  -14.2840   21.5750 C.2   430  SER430      0.2288
    135  O         23.0020  -13.4140   21.9580 O.2   430  SER430     -0.2866
    136  CB        22.2260  -16.2980   21.2410 C.3   430  SER430      0.2089
    137  OG        22.8140  -16.8680   22.3660 O.3   430  SER430     -0.2183
    138  N         29.0050  -19.2910   19.5850 N.3   488  GLU488     -0.1245
    139  CA        28.0790  -20.3450   19.9310 C.3   488  GLU488      0.1567
    140  C         28.0830  -21.5000   18.9100 C.2   488  GLU488      0.2260
    141  O         28.2270  -21.3070   17.7060 O.2   488  GLU488     -0.2867
    142  CB        26.6930  -19.7370   20.0730 C.3   488  GLU488      0.0388
    143  CG        25.7490  -20.5800   20.8940 C.3   488  GLU488      0.1160
    144  CD        24.3860  -19.9300   21.1070 C.2   488  GLU488      0.3649
    145  OE1       24.3040  -18.6700   21.0900 O.co2 488  GLU488     -0.2457
    146  OE2       23.3970  -20.6870   21.3500 O.co2 488  GLU488     -0.2457
    147  N         25.9140  -23.2250   17.2430 N.3   490  TYR490     -0.1241
    148  CA        25.0130  -23.3720   16.0980 C.3   490  TYR490      0.1605
    149  C         25.5350  -22.6810   14.8310 C.2   490  TYR490      0.2264
    150  O         24.9640  -22.8410   13.7920 O.2   490  TYR490     -0.2867
    151  CB        23.5800  -22.9350   16.3790 C.3   490  TYR490      0.0534
    152  CG        23.4170  -21.4490   16.4880 C.ar  490  TYR490     -0.0201
    153  CD1       22.9480  -20.6890   15.3940 C.ar  490  TYR490     -0.0009
    154  CD2       23.7160  -20.7910   17.7080 C.ar  490  TYR490     -0.0009
    155  CE1       22.7770  -19.3120   15.5220 C.ar  490  TYR490      0.0417
    156  CE2       23.5730  -19.4220   17.8330 C.ar  490  TYR490      0.0417
    157  CZ        23.1090  -18.6950   16.7390 C.ar  490  TYR490      0.1957
    158  OH        22.9610  -17.3260   16.8950 O.3   490  TYR490     -0.2866
@<TRIPOS>BOND
     1   150   149    2
     2   149   148    1
     3   153   155   ar
     4   153   152   ar
     5   155   157   ar
     6   148   151    1
     7   148   147    1
     8   124   123    2
     9   151   152    1
    10     9     7   ar
    11     9    10   ar
    12   152   154   ar
    13   157   158    1
    14   157   156   ar
    15     7     6   ar
    16   123   122    1
    17   125   122    1
    18   125   126    1
    19    10    12   ar
    20    10     8   ar
    21   128   126   ar
    22   128   130   ar
    23    12    14   ar
    24     4     3    2
    25   141   140    2
    26   154   156   ar
    27    40    38    1
    28   122   121    1
    29   126   127   ar
    30     6     8   ar
    31     6     5    1
    32   130   131   ar
    33     3     2    1
    34     8    11   ar
    35    14    13   ar
    36    38    37    2
    37    38    39    1
    38   140   139    1
    39     5     2    1
    40    37    36    1
    41   127   129   ar
    42   138   139    1
    43     2     1    1
    44   131   129   ar
    45    32    33    2
    46    32    31    1
    47    11    13   ar
    48    35    36    1
    49    35    34    1
    50   139   142    1
    51   132   133    1
    52   142   143    1
    53   133   136    1
    54   133   134    1
    55    31    34    1
    56    31    30    1
    57   143   144    1
    58   145   144   ar
    59   144   146   ar
    60   136   137    1
    61   134   135    2
    62    20    19    1
    63    19    16    1
    64    19    21    1
    65    16    15    1
    66    16    17    1
    67    18    17    2
    68   110   109    2
    69   113   115   ar
    70   113   112   ar
    71    29    27   ar
    72    98    97    1
    73    54    55    1
    74    54    53    1
    75   111   112    1
    76   111   108    1
    77   115   116   ar
    78    26    27    1
    79    26    23    1
    80    49    50    1
    81    97    96   ar
    82    97    95   ar
    83    27    28   ar
    84   112   114   ar
    85   109   108    1
    86    55    56    1
    87    96    94   ar
    88    56    57    2
    89    95    93   ar
    90    25    24    2
    91    50    53    1
    92    50    51    1
    93    57    59    1
    94    57    58    1
    95   108   107    1
    96    24    23    1
    97    22    23    1
    98    94    92   ar
    99   116   114   ar
   100   116   118   ar
   101    93    92   ar
   102   114   117   ar
   103    92    91    1
   104    51    52    2
   105   107   101   am
   106   118   120   ar
   107   105   104   ar
   108    91    88    1
   109   117   119   ar
   110    48    46    1
   111   104   106   ar
   112   104   103    1
   113   101   102    2
   114   101   100    1
   115   120   119   ar
   116    68    67    1
   117    88    89    1
   118    88    87    1
   119    90    89    2
   120   103   100    1
   121    78    77   ar
   122    78    76   ar
   123    45    46    1
   124    45    42    1
   125    77    75   ar
   126   100    99    1
   127    46    47    1
   128    44    43    2
   129    67    66    1
   130    76    74   ar
   131    75    74   ar
   132    86    85    1
   133    85    84    1
   134    42    41    1
   135    42    43    1
   136    66    65    1
   137    74    73    1
   138    73    70    1
   139    84    83    1
   140    65    64    1
   141    64    61    1
   142    83    80    1
   143    70    69    1
   144    70    71    1
   145    69    62   am
   146    62    61    1
   147    62    63    2
   148    61    60    1
   149    71    72    2
   150    80    81    1
   151    80    79    1
   152    81    82    2
