@<TRIPOS>MOLECULE
tmp/4iigB02.pdb
 158 151 0 0 0
SMALL
GASTEIGER

@<TRIPOS>ATOM
      1  N         67.0920    6.0650  -19.7740 N.3    47  TRP47      -0.1241
      2  CA        65.9760    5.7440  -18.9060 C.3    47  TRP47       0.1605
      3  C         66.4320    5.2380  -17.5720 C.2    47  TRP47       0.2264
      4  O         67.2040    4.2540  -17.5020 O.2    47  TRP47      -0.2867
      5  CB        65.0460    4.7960  -19.6000 C.3    47  TRP47       0.0550
      6  CG        63.9050    4.2550  -18.7500 C.ar   47  TRP47       0.0003
      7  CD1       63.7260    2.9070  -18.3230 C.ar   47  TRP47       0.0946
      8  CD2       62.7420    4.9850  -18.2730 C.ar   47  TRP47       0.0152
      9  NE1       62.5190    2.7900  -17.6110 N.ar   47  TRP47      -0.2442
     10  CE2       61.9120    4.0350  -17.5400 C.ar   47  TRP47       0.0810
     11  CE3       62.3380    6.3310  -18.3510 C.ar   47  TRP47       0.0012
     12  CZ2       60.7160    4.4140  -16.9090 C.ar   47  TRP47       0.0191
     13  CZ3       61.1510    6.7100  -17.7120 C.ar   47  TRP47       0.0001
     14  CH2       60.3520    5.7310  -16.9970 C.ar   47  TRP47       0.0015
     15  N         62.0930   11.2390  -13.9770 N.3    53  VAL53      -0.1245
     16  CA        61.4580   10.5650  -15.0860 C.3    53  VAL53       0.1561
     17  C         62.1660   10.9210  -16.3670 C.2    53  VAL53       0.2260
     18  O         62.3670   10.0520  -17.1970 O.2    53  VAL53      -0.2867
     19  CB        59.9540   10.9420  -15.1770 C.3    53  VAL53       0.0252
     20  CG1       59.3550   10.3920  -16.4460 C.3    53  VAL53       0.0019
     21  CG2       59.1960   10.3170  -13.9750 C.3    53  VAL53       0.0019
     22  N         56.7370   13.8710  -14.0330 N.3    71  ASP71      -0.1239
     23  CA        55.2800   13.7660  -14.0640 C.3    71  ASP71       0.1674
     24  C         54.7310   14.2900  -12.7070 C.2    71  ASP71       0.2266
     25  O         55.4980   14.3430  -11.7480 O.2    71  ASP71      -0.2867
     26  CB        54.9360   12.2870  -14.1940 C.3    71  ASP71       0.1410
     27  CG        55.2100   11.7230  -15.5990 C.2    71  ASP71       0.3668
     28  OD1       54.9220   12.4770  -16.5790 O.co2  71  ASP71      -0.2456
     29  OD2       55.6520   10.5310  -15.7440 O.co2  71  ASP71      -0.2456
     30  N         54.8650   12.7420   -9.4550 N.3    77  ARG77      -0.1245
     31  CA        54.8590   11.2840   -9.5720 C.3    77  ARG77       0.1563
     32  C         56.0790   10.6310   -8.9010 C.2    77  ARG77       0.2260
     33  O         57.1990   11.1930   -8.8880 O.2    77  ARG77      -0.2867
     34  CB        54.8430   10.9160  -11.0440 C.3    77  ARG77       0.0307
     35  CG        54.5880    9.4680  -11.2970 C.3    77  ARG77       0.0489
     36  CD        54.8910    9.1390  -12.7390 C.3    77  ARG77       0.2205
     37  NE        54.5610    7.7230  -12.9270 N.pl3  77  ARG77      -0.0865
     38  CZ        54.8330    7.0830  -14.0450 C.cat  77  ARG77       0.5346
     39  NH1       55.4160    7.7740  -15.0260 N.pl3  77  ARG77       0.1354
     40  NH2       54.5260    5.7830  -14.1980 N.pl3  77  ARG77       0.1354
     41  N         55.8420   17.7720  -15.9610 N.3   120  LEU120     -0.1245
     42  CA        55.2930   17.2250  -17.2360 C.3   120  LEU120      0.1561
     43  C         53.7700   17.3760  -17.2350 C.2   120  LEU120      0.2260
     44  O         53.0300   16.3740  -17.2330 O.2   120  LEU120     -0.2867
     45  CB        55.7280   15.7690  -17.4510 C.3   120  LEU120      0.0270
     46  CG        57.2670   15.7330  -17.4530 C.3   120  LEU120      0.0019
     47  CD1       57.7450   14.2840  -17.5890 C.3   120  LEU120      0.0001
     48  CD2       57.8250   16.5860  -18.5990 C.3   120  LEU120      0.0001
     49  N         42.7300    8.9020  -21.6710 N.3   135  ARG135     -0.1245
     50  CA        43.4440    9.8800  -20.8960 C.3   135  ARG135      0.1563
     51  C         42.7160   11.1980  -20.8400 C.2   135  ARG135      0.2260
     52  O         43.3410   12.1930  -20.4120 O.2   135  ARG135     -0.2867
     53  CB        44.8740   10.1000  -21.4340 C.3   135  ARG135      0.0307
     54  CG        45.7180    8.8090  -21.4060 C.3   135  ARG135      0.0489
     55  CD        47.1560    9.0710  -21.8450 C.3   135  ARG135      0.2205
     56  NE        47.9140    9.8320  -20.8400 N.pl3 135  ARG135     -0.0865
     57  CZ        49.2110   10.1260  -20.9690 C.cat 135  ARG135      0.5346
     58  NH1       49.8560    9.7440  -22.0630 N.pl3 135  ARG135      0.1354
     59  NH2       49.8680   10.7670  -19.9960 N.pl3 135  ARG135      0.1354
     60  N         51.1570   19.3480  -22.7740 N.3   168  LYS168     -0.1231
     61  CA        51.1600   18.0920  -23.5210 C.3   168  LYS168      0.1693
     62  C         49.7340   17.6270  -23.7960 C.2   168  LYS168      0.2592
     63  O         48.8000   18.1940  -23.2120 O.2   168  LYS168     -0.2718
     64  CB        51.9100   16.9930  -22.7370 C.3   168  LYS168      0.0285
     65  CG        51.1720   16.4780  -21.5020 C.3   168  LYS168      0.0035
     66  CD        52.1200   15.6450  -20.6250 C.3   168  LYS168      0.0206
     67  CE        51.3950   14.6850  -19.6640 C.3   168  LYS168      0.1093
     68  NZ        52.3790   14.0810  -18.7170 N.3   168  LYS168     -0.1314
     69  N         49.5300   16.6310  -24.6710 N.am  169  HIS169     -0.1976
     70  CA        50.4930   16.0970  -25.6460 C.3   169  HIS169      0.1656
     71  C         50.1680   16.7140  -26.9820 C.2   169  HIS169      0.2291
     72  O         49.0110   16.6760  -27.4250 O.2   169  HIS169     -0.2864
     73  CB        50.2760   14.5780  -25.7690 C.3   169  HIS169      0.0771
     74  CG        50.3680   13.8760  -24.4440 C.ar  169  HIS169      0.0820
     75  ND1       49.2760   13.6940  -23.6310 N.ar  169  HIS169     -0.2267
     76  CD2       51.4360   13.4030  -23.7500 C.ar  169  HIS169      0.1154
     77  CE1       49.6520   13.1180  -22.5020 C.ar  169  HIS169      0.1986
     78  NE2       50.9580   12.9290  -22.5500 N.ar  169  HIS169     -0.2212
     79  N         48.7410    3.7720  -29.9720 N.3   179  ARG179     -0.1245
     80  CA        49.5770    5.0040  -29.8260 C.3   179  ARG179      0.1563
     81  C         51.0850    4.6560  -29.8830 C.2   179  ARG179      0.2260
     82  O         51.9270    5.5440  -30.1970 O.2   179  ARG179     -0.2867
     83  CB        49.2680    5.7740  -28.5250 C.3   179  ARG179      0.0307
     84  CG        49.8110    5.0840  -27.2720 C.3   179  ARG179      0.0489
     85  CD        49.5660    5.8660  -25.9920 C.3   179  ARG179      0.2205
     86  NE        50.2570    5.1830  -24.9240 N.pl3 179  ARG179     -0.0865
     87  CZ        50.8600    5.7410  -23.8650 C.cat 179  ARG179      0.5346
     88  NH1       50.8090    7.0920  -23.6160 N.pl3 179  ARG179      0.1354
     89  NH2       51.5300    4.9170  -23.0430 N.pl3 179  ARG179      0.1354
     90  N         55.2710   19.1580  -25.0610 N.3   224  MET224     -0.1245
     91  CA        55.6440   17.7660  -25.3120 C.3   224  MET224      0.1570
     92  C         54.9090   17.2470  -26.5290 C.2   224  MET224      0.2261
     93  O         53.6640   17.1690  -26.5250 O.2   224  MET224     -0.2867
     94  CB        55.3280   16.8780  -24.0860 C.3   224  MET224      0.0387
     95  CG        55.6870   15.4340  -24.3940 C.3   224  MET224      0.0595
     96  SD        55.1130   14.2610  -23.1330 S.3   224  MET224     -0.1393
     97  CE        55.7980   14.9140  -21.6050 C.3   224  MET224      0.0692
     98  N         52.9660   10.8230  -29.3690 N.3   227  TYR227     -0.1241
     99  CA        53.3830    9.5160  -29.8380 C.3   227  TYR227      0.1605
    100  C         52.7700    9.1570  -31.1790 C.2   227  TYR227      0.2264
    101  O         53.2530    8.2760  -31.8960 O.2   227  TYR227     -0.2867
    102  CB        52.7830    8.4770  -28.8900 C.3   227  TYR227      0.0534
    103  CG        53.5730    8.1670  -27.6620 C.ar  227  TYR227     -0.0201
    104  CD1       54.9280    7.8390  -27.7400 C.ar  227  TYR227     -0.0009
    105  CD2       52.9570    8.2180  -26.3880 C.ar  227  TYR227     -0.0009
    106  CE1       55.6280    7.4740  -26.5790 C.ar  227  TYR227      0.0417
    107  CE2       53.6650    7.8600  -25.2260 C.ar  227  TYR227      0.0417
    108  CZ        54.9850    7.5220  -25.3290 C.ar  227  TYR227      0.1957
    109  OH        55.6620    7.2090  -24.1930 O.3   227  TYR227     -0.2866
    110  N         57.7730   12.9650  -26.3270 N.3   259  ASP259     -0.1225
    111  CA        57.2210   11.9960  -25.3840 C.3   259  ASP259      0.1805
    112  C         58.2330   10.8270  -25.2770 C.2   259  ASP259      0.2597
    113  O         59.2040   10.7960  -26.0230 O.2   259  ASP259     -0.2718
    114  CB        55.8170   11.5840  -25.8030 C.3   259  ASP259      0.1424
    115  CG        54.9820   11.2310  -24.6280 C.2   259  ASP259      0.3668
    116  OD1       55.5730   10.8700  -23.5560 O.co2 259  ASP259     -0.2456
    117  OD2       53.7460   11.2430  -24.7800 O.co2 259  ASP259     -0.2456
    118  N         58.0540    9.9240  -24.3090 N.am  260  TRP260     -0.1976
    119  CA        59.0900    9.0330  -23.8850 C.3   260  TRP260      0.1640
    120  C         59.1270    7.8210  -24.8120 C.2   260  TRP260      0.2290
    121  O         58.2920    6.9000  -24.7110 O.2   260  TRP260     -0.2864
    122  CB        58.8130    8.6090  -22.4600 C.3   260  TRP260      0.0576
    123  CG        59.5190    9.4200  -21.3820 C.ar  260  TRP260      0.0006
    124  CD1       60.2830    8.9250  -20.3540 C.ar  260  TRP260      0.0946
    125  CD2       59.5450   10.8590  -21.2310 C.ar  260  TRP260      0.0152
    126  NE1       60.7570    9.9840  -19.5480 N.ar  260  TRP260     -0.2442
    127  CE2       60.2820   11.1550  -20.0590 C.ar  260  TRP260      0.0810
    128  CE3       58.9450   11.9070  -21.9180 C.ar  260  TRP260      0.0012
    129  CZ2       60.4880   12.4590  -19.6220 C.ar  260  TRP260      0.0191
    130  CZ3       59.1180   13.1990  -21.4540 C.ar  260  TRP260      0.0001
    131  CH2       59.8890   13.4740  -20.3490 C.ar  260  TRP260      0.0015
    132  N         50.9750    7.3500  -16.2180 N.3   430  SER430     -0.1217
    133  CA        51.9410    8.3900  -15.7880 C.3   430  SER430      0.1889
    134  C         51.2810    9.5970  -15.0920 C.2   430  SER430      0.2288
    135  O         51.9440   10.3930  -14.4360 O.2   430  SER430     -0.2866
    136  CB        52.6890    8.9240  -17.0320 C.3   430  SER430      0.2089
    137  OG        51.7880    9.6320  -17.8970 O.3   430  SER430     -0.2183
    138  N         46.1720    5.4830  -18.9760 N.3   488  GLU488     -0.1245
    139  CA        47.1090    5.4570  -20.0480 C.3   488  GLU488      0.1567
    140  C         47.2490    4.0160  -20.6410 C.2   488  GLU488      0.2260
    141  O         47.1880    3.0120  -19.9390 O.2   488  GLU488     -0.2867
    142  CB        48.4510    5.9770  -19.5240 C.3   488  GLU488      0.0388
    143  CG        49.5280    6.0740  -20.6020 C.3   488  GLU488      0.1160
    144  CD        50.8110    6.7720  -20.1470 C.2   488  GLU488      0.3649
    145  OE1       50.7930    7.4500  -19.1010 O.co2 488  GLU488     -0.2457
    146  OE2       51.8630    6.6200  -20.8160 O.co2 488  GLU488     -0.2457
    147  N         49.5630    1.8720  -21.4070 N.3   490  TYR490     -0.1241
    148  CA        50.5110    0.7550  -21.1020 C.3   490  TYR490      0.1605
    149  C         49.9710   -0.1580  -20.0010 C.2   490  TYR490      0.2264
    150  O         50.5410   -1.1860  -19.6880 O.2   490  TYR490     -0.2867
    151  CB        51.9570    1.2070  -20.7870 C.3   490  TYR490      0.0534
    152  CG        52.0760    1.9970  -19.4890 C.ar  490  TYR490     -0.0201
    153  CD1       52.4630    1.3680  -18.2890 C.ar  490  TYR490     -0.0009
    154  CD2       51.7810    3.3880  -19.4590 C.ar  490  TYR490     -0.0009
    155  CE1       52.5700    2.0910  -17.1010 C.ar  490  TYR490      0.0417
    156  CE2       51.8560    4.1030  -18.2680 C.ar  490  TYR490      0.0417
    157  CZ        52.2560    3.4750  -17.1010 C.ar  490  TYR490      0.1957
    158  OH        52.3890    4.2330  -15.9340 O.3   490  TYR490     -0.2866
@<TRIPOS>BOND
     1   101   100    2
     2   100    99    1
     3    82    81    2
     4    79    80    1
     5    81    80    1
     6    99    98    1
     7    99   102    1
     8    80    83    1
     9   102   103    1
    10    83    84    1
    11   104   103   ar
    12   104   106   ar
    13   103   105   ar
    14    72    71    2
    15    84    85    1
    16    71    70    1
    17   106   108   ar
    18    92    93    2
    19    92    91    1
    20   105   107   ar
    21   110   111    1
    22   113   112    2
    23    85    86    1
    24   114   111    1
    25   114   115    1
    26    73    70    1
    27    73    74    1
    28    70    69    1
    29   111   112    1
    30   108   107   ar
    31   108   109    1
    32    91    90    1
    33    91    94    1
    34   112   118   am
    35    86    87    2
    36   120   121    2
    37   120   119    1
    38   117   115   ar
    39    69    62   am
    40   115   116   ar
    41    74    76   ar
    42    74    75   ar
    43    95    94    1
    44    95    96    1
    45   118   119    1
    46   119   122    1
    47    87    88    1
    48    87    89    1
    49    62    61    1
    50    62    63    2
    51    76    78   ar
    52    75    77   ar
    53    61    60    1
    54    61    64    1
    55    96    97    1
    56    64    65    1
    57    78    77   ar
    58   122   123    1
    59    58    57    1
    60   128   130   ar
    61   128   125   ar
    62    55    54    1
    63    55    56    1
    64    49    50    1
    65    65    66    1
    66   130   131   ar
    67    53    54    1
    68    53    50    1
    69   147   148    1
    70   123   125   ar
    71   123   124   ar
    72   125   127   ar
    73   148   151    1
    74   148   149    1
    75    57    56    2
    76    57    59    1
    77    50    51    1
    78    51    52    2
    79   146   144   ar
    80   151   152    1
    81   140   139    1
    82   140   141    2
    83    66    67    1
    84   143   144    1
    85   143   142    1
    86   124   126   ar
    87   131   129   ar
    88   144   145   ar
    89   127   129   ar
    90   127   126   ar
    91   139   142    1
    92   139   138    1
    93   149   150    2
    94     1     2    1
    95    67    68    1
    96     5     2    1
    97     5     6    1
    98   152   154   ar
    99   152   153   ar
   100   154   156   ar
   101     2     3    1
   102     6     7   ar
   103     6     8   ar
   104    48    46    1
   105    11     8   ar
   106    11    13   ar
   107     7     9   ar
   108   153   155   ar
   109     8    10   ar
   110   156   157   ar
   111   137   136    1
   112    13    14   ar
   113     9    10   ar
   114    47    46    1
   115     3     4    2
   116    10    12   ar
   117    46    45    1
   118    45    42    1
   119    42    43    1
   120    42    41    1
   121    43    44    2
   122    18    17    2
   123   157   155   ar
   124   157   158    1
   125   136   133    1
   126    14    12   ar
   127    28    27   ar
   128    20    19    1
   129    17    16    1
   130   132   133    1
   131   133   134    1
   132    29    27   ar
   133    27    26    1
   134    19    16    1
   135    19    21    1
   136   134   135    2
   137    16    15    1
   138    39    38    1
   139    40    38    1
   140    26    23    1
   141    23    22    1
   142    23    24    1
   143    38    37    2
   144    37    36    1
   145    36    35    1
   146    24    25    2
   147    35    34    1
   148    34    31    1
   149    31    30    1
   150    31    32    1
   151    32    33    2
