@<TRIPOS>MOLECULE
tmp/4iigA03.pdb
 175 170 0 0 0
SMALL
GASTEIGER

@<TRIPOS>ATOM
      1  N         -4.1140  -21.6580   36.2420 N.3    36  ASP36      -0.1225
      2  CA        -3.7190  -21.4210   34.8570 C.3    36  ASP36       0.1805
      3  C         -2.9700  -20.0970   34.6870 C.2    36  ASP36       0.2597
      4  O         -2.0680  -20.0040   33.8320 O.2    36  ASP36      -0.2718
      5  CB        -4.9170  -21.5050   33.9030 C.3    36  ASP36       0.1424
      6  CG        -6.1400  -20.7220   34.3930 C.2    36  ASP36       0.3668
      7  OD1       -6.4080  -20.6770   35.6150 O.co2  36  ASP36      -0.2456
      8  OD2       -6.8620  -20.1820   33.5430 O.co2  36  ASP36      -0.2456
      9  N         -3.3260  -19.0950   35.5030 N.am   37  GLU37      -0.1979
     10  CA        -2.5170  -17.8820   35.6480 C.3    37  GLU37       0.1602
     11  C         -1.0410  -18.1670   36.0730 C.2    37  GLU37       0.2287
     12  O         -0.0950  -17.7600   35.3820 O.2    37  GLU37      -0.2864
     13  CB        -3.2260  -16.8810   36.5430 C.3    37  GLU37       0.0415
     14  CG        -4.5260  -16.4200   35.8690 C.3    37  GLU37       0.1163
     15  CD        -5.3790  -15.4990   36.7350 C.2    37  GLU37       0.3649
     16  OE1       -5.3070  -15.5790   37.9710 O.co2  37  GLU37      -0.2457
     17  OE2       -6.1300  -14.6790   36.1810 O.co2  37  GLU37      -0.2457
     18  N          0.9190  -19.8000   33.4220 N.3    40  ASN40      -0.1240
     19  CA         1.2460  -18.8010   32.4310 C.3    40  ASN40       0.1653
     20  C          2.6160  -18.1490   32.7260 C.2    40  ASN40       0.2266
     21  O          3.3820  -17.9630   31.8050 O.2    40  ASN40      -0.2867
     22  CB         0.1300  -17.7420   32.3130 C.3    40  ASN40       0.1155
     23  CG        -0.5570  -17.7670   30.9660 C.2    40  ASN40       0.2627
     24  OD1       -0.5340  -18.7740   30.2570 O.2    40  ASN40      -0.2716
     25  ND2       -1.1540  -16.6460   30.5980 N.am   40  ASN40      -0.0877
     26  N          5.5980  -18.6030   25.4110 N.3    45  THR45      -0.1218
     27  CA         4.4210  -18.7910   24.5820 C.3    45  THR45       0.1862
     28  C          4.7700  -19.4440   23.2110 C.2    45  THR45       0.2287
     29  O          3.9080  -19.6130   22.3930 O.2    45  THR45      -0.2866
     30  CB         3.6580  -17.4670   24.3690 C.3    45  THR45       0.1770
     31  OG1        4.5510  -16.4990   23.8070 O.3    45  THR45      -0.2211
     32  CG2        3.1490  -16.9250   25.6510 C.3    45  THR45       0.0375
     33  N          5.8480  -13.9450   19.9160 N.3    50  GLU50      -0.1245
     34  CA         5.6170  -12.6160   20.3740 C.3    50  GLU50       0.1567
     35  C          6.8640  -11.7370   20.0350 C.2    50  GLU50       0.2260
     36  O          7.4340  -11.9570   18.9560 O.2    50  GLU50      -0.2867
     37  CB         5.1030  -12.6070   21.8320 C.3    50  GLU50       0.0388
     38  CG         3.7620  -13.3510   22.0140 C.3    50  GLU50       0.1160
     39  CD         3.2440  -13.2770   23.4330 C.2    50  GLU50       0.3649
     40  OE1        3.5550  -14.1550   24.2680 O.co2  50  GLU50      -0.2457
     41  OE2        2.5570  -12.2920   23.7570 O.co2  50  GLU50      -0.2457
     42  N          3.0810  -15.2860   28.8190 N.3    57  GLY57      -0.1210
     43  CA         1.7970  -14.6940   28.5230 C.3    57  GLY57       0.1956
     44  C          1.3430  -13.6790   29.5870 C.2    57  GLY57       0.2612
     45  O          0.4010  -12.9370   29.3800 O.2    57  GLY57      -0.2717
     46  N          1.9970  -13.6680   30.7410 N.am   58  GLY58      -0.1956
     47  CA         1.5600  -12.8820   31.8850 C.3    58  GLY58       0.1869
     48  C          0.2130  -13.2880   32.5110 C.2    58  GLY58       0.2309
     49  O         -0.3290  -14.3900   32.2700 O.2    58  GLY58      -0.2863
     50  N         -3.1370  -11.3120   32.6360 N.3    60  PRO60      -0.2102
     51  CA        -3.8620  -10.0840   32.2490 C.3    60  PRO60       0.1504
     52  C         -4.9010   -9.6620   33.2900 C.2    60  PRO60       0.2575
     53  O         -4.9970   -8.4620   33.5810 O.2    60  PRO60      -0.2718
     54  CB        -4.5160  -10.4330   30.9230 C.3    60  PRO60       0.0282
     55  CG        -3.8890  -11.7230   30.4820 C.3    60  PRO60       0.0208
     56  CD        -3.2400  -12.3860   31.6350 C.3    60  PRO60       0.0893
     57  N         -5.6020  -10.6290   33.9000 N.am   61  ARG61      -0.1980
     58  CA        -6.5970  -10.3070   34.9240 C.3    61  ARG61       0.1597
     59  C         -5.9440   -9.5570   36.0780 C.2    61  ARG61       0.2287
     60  O         -6.4810   -8.5770   36.5800 O.2    61  ARG61      -0.2864
     61  CB        -7.3830  -11.5460   35.3840 C.3    61  ARG61       0.0334
     62  CG        -8.5320  -11.2320   36.3440 C.3    61  ARG61       0.0492
     63  CD        -9.1650  -12.5450   36.7700 C.3    61  ARG61       0.2205
     64  NE        -8.2480  -13.3930   37.5620 N.pl3  61  ARG61      -0.0865
     65  CZ        -8.0710  -13.2900   38.8830 C.cat  61  ARG61       0.5346
     66  NH1       -8.7300  -12.3740   39.5940 N.pl3  61  ARG61       0.1354
     67  NH2       -7.2070  -14.0860   39.5080 N.pl3  61  ARG61       0.1354
     68  N          0.9140   -9.2680   14.7630 N.3   345  LYS345     -0.1231
     69  CA         1.2770   -9.3250   16.1720 C.3   345  LYS345      0.1693
     70  C          2.0450  -10.5720   16.5550 C.2   345  LYS345      0.2592
     71  O          2.9280  -10.4830   17.3840 O.2   345  LYS345     -0.2718
     72  CB         0.0120   -9.1820   17.0500 C.3   345  LYS345      0.0285
     73  CG         0.3040   -9.0530   18.5480 C.3   345  LYS345      0.0035
     74  CD        -0.9520   -8.8230   19.3890 C.3   345  LYS345      0.0206
     75  CE        -0.6320   -8.9110   20.8520 C.3   345  LYS345      0.1093
     76  NZ        -1.2800   -7.8140   21.6230 N.3   345  LYS345     -0.1314
     77  N          1.7120  -11.7080   15.9230 N.am  346  TYR346     -0.1976
     78  CA         2.2910  -13.0070   16.2530 C.3   346  TYR346      0.1639
     79  C          3.1010  -13.4200   15.0730 C.2   346  TYR346      0.2290
     80  O          2.5540  -13.9670   14.0820 O.2   346  TYR346     -0.2864
     81  CB         1.2240  -14.0450   16.6560 C.3   346  TYR346      0.0560
     82  CG         0.3130  -13.4810   17.7250 C.ar  346  TYR346     -0.0198
     83  CD1        0.7910  -13.2580   19.0260 C.ar  346  TYR346     -0.0009
     84  CD2       -1.0120  -13.1020   17.4260 C.ar  346  TYR346     -0.0009
     85  CE1       -0.0140  -12.7000   19.9940 C.ar  346  TYR346      0.0417
     86  CE2       -1.8350  -12.5460   18.4030 C.ar  346  TYR346      0.0417
     87  CZ        -1.3350  -12.3500   19.6730 C.ar  346  TYR346      0.1957
     88  OH        -2.1410  -11.8000   20.6500 O.3   346  TYR346     -0.2866
     89  N         -3.8670   -9.1590   15.1670 N.3   353  PRO353     -0.2116
     90  CA        -4.0380   -7.8060   14.6260 C.3   353  PRO353      0.1372
     91  C         -2.8290   -7.4160   13.7980 C.2   353  PRO353      0.2244
     92  O         -1.6850   -7.7120   14.1800 O.2   353  PRO353     -0.2868
     93  CB        -4.0490   -6.9330   15.8890 C.3   353  PRO353      0.0268
     94  CG        -4.5290   -7.8430   16.9770 C.3   353  PRO353      0.0207
     95  CD        -3.9440   -9.2030   16.6380 C.3   353  PRO353      0.0892
     96  N         -0.6030   -4.5580   13.0980 N.3   355  GLU355     -0.1245
     97  CA        -0.4630   -3.3640   13.9190 C.3   355  GLU355      0.1567
     98  C          1.0220   -2.9830   13.9660 C.2   355  GLU355      0.2260
     99  O          1.8520   -3.6420   13.3060 O.2   355  GLU355     -0.2867
    100  CB        -1.0310   -3.6440   15.3290 C.3   355  GLU355      0.0388
    101  CG        -0.3680   -4.7980   16.0690 C.3   355  GLU355      0.1160
    102  CD        -0.8910   -5.0590   17.4720 C.2   355  GLU355      0.3649
    103  OE1       -2.0800   -4.8500   17.7540 O.co2 355  GLU355     -0.2457
    104  OE2       -0.0960   -5.5170   18.3100 O.co2 355  GLU355     -0.2457
    105  N        -14.7560  -17.9480   24.3930 N.3   673  GLY673     -0.1210
    106  CA       -14.6500  -16.7980   23.4790 C.3   673  GLY673      0.1956
    107  C        -13.2280  -16.4140   23.0280 C.2   673  GLY673      0.2612
    108  O        -12.9700  -15.2580   22.7230 O.2   673  GLY673     -0.2717
    109  N        -12.2990  -17.3740   22.9830 N.am  674  LEU674     -0.1965
    110  CA       -10.8690  -17.0890   22.7020 C.3   674  LEU674      0.1728
    111  C        -10.3390  -17.7720   21.4280 C.2   674  LEU674      0.2616
    112  O        -10.4310  -19.0060   21.2800 O.2   674  LEU674     -0.2715
    113  CB        -9.9950  -17.4840   23.8920 C.3   674  LEU674      0.0311
    114  CG        -8.5390  -17.0020   23.8480 C.3   674  LEU674      0.0022
    115  CD1       -8.3470  -15.9700   24.9540 C.3   674  LEU674      0.0001
    116  CD2       -7.5320  -18.1560   23.9550 C.3   674  LEU674      0.0001
    117  N         -9.7710  -16.9740   20.5210 N.am  675  THR675     -0.1951
    118  CA        -9.1650  -17.5140   19.2880 C.3   675  THR675      0.1897
    119  C         -7.7560  -18.0480   19.6110 C.2   675  THR675      0.2313
    120  O         -6.9120  -17.3130   20.1400 O.2   675  THR675     -0.2863
    121  CB        -8.9930  -16.4070   18.2390 C.3   675  THR675      0.1794
    122  OG1       -9.9040  -15.3460   18.5370 O.3   675  THR675     -0.2208
    123  CG2       -9.2030  -16.9150   16.8480 C.3   675  THR675      0.0378
    124  N         -4.1640  -18.8670   18.7990 N.3   677  ILE677     -0.1245
    125  CA        -3.1760  -18.5130   17.7880 C.3   677  ILE677      0.1561
    126  C         -2.3540  -19.7530   17.4130 C.2   677  ILE677      0.2260
    127  O         -2.0010  -20.5170   18.2940 O.2   677  ILE677     -0.2867
    128  CB        -2.3250  -17.3140   18.2950 C.3   677  ILE677      0.0252
    129  CG1       -3.2190  -16.0740   18.5050 C.3   677  ILE677      0.0019
    130  CG2       -1.1880  -16.9910   17.3250 C.3   677  ILE677      0.0019
    131  CD1       -4.0160  -15.6100   17.2700 C.3   677  ILE677      0.0001
    132  N          0.9710  -21.0650   19.3290 N.3   680  PHE680     -0.1241
    133  CA         0.9840  -20.3570   20.6240 C.3   680  PHE680      0.1605
    134  C          0.7810  -21.4190   21.7340 C.2   680  PHE680      0.2264
    135  O         -0.0830  -22.3140   21.6000 O.2   680  PHE680     -0.2867
    136  CB        -0.1230  -19.2970   20.6850 C.3   680  PHE680      0.0534
    137  CG         0.1560  -18.1680   21.6330 C.ar  680  PHE680     -0.0203
    138  CD1        0.7040  -16.9450   21.1650 C.ar  680  PHE680     -0.0042
    139  CD2       -0.1060  -18.3100   23.0240 C.ar  680  PHE680     -0.0042
    140  CE1        0.9810  -15.8930   22.0560 C.ar  680  PHE680     -0.0003
    141  CE2        0.1560  -17.2570   23.9080 C.ar  680  PHE680     -0.0003
    142  CZ         0.7110  -16.0420   23.4200 C.ar  680  PHE680     -0.0000
    143  N         -0.4810  -22.3070   25.3590 N.3   682  TYR682     -0.1228
    144  CA        -1.4190  -21.9160   26.4260 C.3   682  TYR682      0.1721
    145  C         -1.4160  -22.8370   27.6850 C.2   682  TYR682      0.2437
    146  O         -0.9380  -23.9830   27.6380 O.2   682  TYR682     -0.2733
    147  CB        -2.8410  -21.8550   25.8730 C.3   682  TYR682      0.0547
    148  CG        -3.0550  -20.8780   24.7650 C.ar  682  TYR682     -0.0200
    149  CD1       -3.2940  -19.5300   25.0500 C.ar  682  TYR682     -0.0009
    150  CD2       -3.0780  -21.2960   23.4430 C.ar  682  TYR682     -0.0009
    151  CE1       -3.5450  -18.5970   24.0410 C.ar  682  TYR682      0.0417
    152  CE2       -3.2940  -20.3570   22.4000 C.ar  682  TYR682      0.0417
    153  CZ        -3.5500  -19.0270   22.6990 C.ar  682  TYR682      0.1957
    154  OH        -3.8230  -18.1090   21.6900 O.3   682  TYR682     -0.2866
    155  N         -1.9800  -22.3400   28.8120 N.am  683  PRO683     -0.2718
    156  CA        -2.0000  -23.1910   30.0280 C.3   683  PRO683      0.1535
    157  C         -3.2110  -24.1130   30.0950 C.2   683  PRO683      0.2598
    158  O         -3.3710  -24.8380   31.0910 O.2   683  PRO683     -0.2715
    159  CB        -2.0980  -22.1590   31.1690 C.3   683  PRO683      0.0310
    160  CG        -2.8650  -21.0150   30.5470 C.3   683  PRO683      0.0237
    161  CD        -2.5070  -20.9800   29.0600 C.3   683  PRO683      0.0939
    162  N         -4.0440  -24.0890   29.0500 N.am  684  TRP684     -0.1974
    163  CA        -5.4210  -24.6150   29.0860 C.3   684  TRP684      0.1640
    164  C         -5.5830  -26.0480   28.5780 C.2   684  TRP684      0.2290
    165  O         -4.7230  -26.5950   27.8540 O.2   684  TRP684     -0.2864
    166  CB        -6.3720  -23.6350   28.3560 C.3   684  TRP684      0.0576
    167  CG        -6.5750  -22.3130   29.1120 C.ar  684  TRP684      0.0006
    168  CD1       -6.8300  -22.1700   30.4470 C.ar  684  TRP684      0.0946
    169  CD2       -6.4980  -20.9800   28.5790 C.ar  684  TRP684      0.0152
    170  NE1       -6.9430  -20.8380   30.7810 N.ar  684  TRP684     -0.2442
    171  CE2       -6.7290  -20.0860   29.6500 C.ar  684  TRP684      0.0810
    172  CE3       -6.2210  -20.4530   27.3070 C.ar  684  TRP684      0.0012
    173  CZ2       -6.7610  -18.6870   29.4710 C.ar  684  TRP684      0.0191
    174  CZ3       -6.2400  -19.0790   27.1380 C.ar  684  TRP684      0.0001
    175  CH2       -6.5190  -18.2160   28.2120 C.ar  684  TRP684      0.0015
@<TRIPOS>BOND
     1    96    97    1
     2    99    98    2
     3    91    92    2
     4    91    90    1
     5    97    98    1
     6    97   100    1
     7    80    79    2
     8    90    89    1
     9    90    93    1
    10    68    69    1
    11    79    78    1
    12    89    95    1
    13   100   101    1
    14    93    94    1
    15    77    78    1
    16    77    70   am
    17   101   102    1
    18    69    70    1
    19    69    72    1
    20    78    81    1
    21    70    71    2
    22    95    94    1
    23    81    82    1
    24   123   121    1
    25    72    73    1
    26   131   129    1
    27   130   128    1
    28   126   125    1
    29   126   127    2
    30    84    82   ar
    31    84    86   ar
    32   102   103   ar
    33   102   104   ar
    34    82    83   ar
    35   125   128    1
    36   125   124    1
    37   121   122    1
    38   121   118    1
    39   128   129    1
    40    86    87   ar
    41    73    74    1
    42    36    35    2
    43    83    85   ar
    44   118   119    1
    45   118   117    1
    46   132   133    1
    47    74    75    1
    48   119   120    2
    49    87    85   ar
    50    87    88    1
    51    33    34    1
    52    35    34    1
    53    34    37    1
    54   117   111   am
    55   133   136    1
    56   133   134    1
    57   136   137    1
    58    75    76    1
    59   138   137   ar
    60   138   140   ar
    61   112   111    2
    62   111   110    1
    63   135   134    2
    64   137   139   ar
    65   154   153    1
    66    37    38    1
    67    38    39    1
    68   140   142   ar
    69    29    28    2
    70   152   153   ar
    71   152   150   ar
    72   153   151   ar
    73   110   109    1
    74   110   113    1
    75   108   107    2
    76   109   107   am
    77   139   141   ar
    78   107   106    1
    79    28    27    1
    80   142   141   ar
    81    39    41   ar
    82    39    40   ar
    83   150   148   ar
    84   106   105    1
    85    31    30    1
    86   114   113    1
    87   114   116    1
    88   114   115    1
    89   151   149   ar
    90    30    27    1
    91    30    32    1
    92    27    26    1
    93   148   149   ar
    94   148   147    1
    95   143   144    1
    96   147   144    1
    97   144   145    1
    98   174   172   ar
    99   174   175   ar
   100   172   169   ar
   101   146   145    2
   102   145   155   am
   103   165   164    2
   104   175   173   ar
   105   166   163    1
   106   166   167    1
   107    43    42    1
   108    43    44    1
   109   164   163    1
   110   169   167   ar
   111   169   171   ar
   112   155   161    1
   113   155   156    1
   114   162   163    1
   115   162   157   am
   116   161   160    1
   117   167   168   ar
   118    45    44    2
   119   173   171   ar
   120    44    46   am
   121   171   170   ar
   122   156   157    1
   123   156   159    1
   124   157   158    2
   125    24    23    2
   126   168   170   ar
   127    55    54    1
   128    55    56    1
   129   160   159    1
   130    25    23   am
   131    46    47    1
   132    54    51    1
   133    23    22    1
   134    56    50    1
   135    21    20    2
   136    47    48    1
   137    51    50    1
   138    51    52    1
   139    49    48    2
   140    22    19    1
   141    19    20    1
   142    19    18    1
   143    52    53    2
   144    52    57   am
   145     8     6   ar
   146     4     3    2
   147    57    58    1
   148     5     6    1
   149     5     2    1
   150     6     7   ar
   151     3     2    1
   152     3     9   am
   153     2     1    1
   154    58    61    1
   155    58    59    1
   156    12    11    2
   157    61    62    1
   158     9    10    1
   159    10    11    1
   160    10    13    1
   161    14    13    1
   162    14    15    1
   163    59    60    2
   164    17    15   ar
   165    62    63    1
   166    15    16   ar
   167    63    64    1
   168    64    65    2
   169    65    67    1
   170    65    66    1
