@<TRIPOS>MOLECULE
tmp/4iigB03.pdb
 149 143 0 0 0
SMALL
GASTEIGER

@<TRIPOS>ATOM
      1  N         67.0920    6.0650  -19.7740 N.3    47  TRP47      -0.1241
      2  CA        65.9760    5.7440  -18.9060 C.3    47  TRP47       0.1605
      3  C         66.4320    5.2380  -17.5720 C.2    47  TRP47       0.2264
      4  O         67.2040    4.2540  -17.5020 O.2    47  TRP47      -0.2867
      5  CB        65.0460    4.7960  -19.6000 C.3    47  TRP47       0.0550
      6  CG        63.9050    4.2550  -18.7500 C.ar   47  TRP47       0.0003
      7  CD1       63.7260    2.9070  -18.3230 C.ar   47  TRP47       0.0946
      8  CD2       62.7420    4.9850  -18.2730 C.ar   47  TRP47       0.0152
      9  NE1       62.5190    2.7900  -17.6110 N.ar   47  TRP47      -0.2442
     10  CE2       61.9120    4.0350  -17.5400 C.ar   47  TRP47       0.0810
     11  CE3       62.3380    6.3310  -18.3510 C.ar   47  TRP47       0.0012
     12  CZ2       60.7160    4.4140  -16.9090 C.ar   47  TRP47       0.0191
     13  CZ3       61.1510    6.7100  -17.7120 C.ar   47  TRP47       0.0001
     14  CH2       60.3520    5.7310  -16.9970 C.ar   47  TRP47       0.0015
     15  N         62.0930   11.2390  -13.9770 N.3    53  VAL53      -0.1245
     16  CA        61.4580   10.5650  -15.0860 C.3    53  VAL53       0.1561
     17  C         62.1660   10.9210  -16.3670 C.2    53  VAL53       0.2260
     18  O         62.3670   10.0520  -17.1970 O.2    53  VAL53      -0.2867
     19  CB        59.9540   10.9420  -15.1770 C.3    53  VAL53       0.0252
     20  CG1       59.3550   10.3920  -16.4460 C.3    53  VAL53       0.0019
     21  CG2       59.1960   10.3170  -13.9750 C.3    53  VAL53       0.0019
     22  N         56.7370   13.8710  -14.0330 N.3    71  ASP71      -0.1239
     23  CA        55.2800   13.7660  -14.0640 C.3    71  ASP71       0.1674
     24  C         54.7310   14.2900  -12.7070 C.2    71  ASP71       0.2266
     25  O         55.4980   14.3430  -11.7480 O.2    71  ASP71      -0.2867
     26  CB        54.9360   12.2870  -14.1940 C.3    71  ASP71       0.1410
     27  CG        55.2100   11.7230  -15.5990 C.2    71  ASP71       0.3668
     28  OD1       54.9220   12.4770  -16.5790 O.co2  71  ASP71      -0.2456
     29  OD2       55.6520   10.5310  -15.7440 O.co2  71  ASP71      -0.2456
     30  N         54.8650   12.7420   -9.4550 N.3    77  ARG77      -0.1245
     31  CA        54.8590   11.2840   -9.5720 C.3    77  ARG77       0.1563
     32  C         56.0790   10.6310   -8.9010 C.2    77  ARG77       0.2260
     33  O         57.1990   11.1930   -8.8880 O.2    77  ARG77      -0.2867
     34  CB        54.8430   10.9160  -11.0440 C.3    77  ARG77       0.0307
     35  CG        54.5880    9.4680  -11.2970 C.3    77  ARG77       0.0489
     36  CD        54.8910    9.1390  -12.7390 C.3    77  ARG77       0.2205
     37  NE        54.5610    7.7230  -12.9270 N.pl3  77  ARG77      -0.0865
     38  CZ        54.8330    7.0830  -14.0450 C.cat  77  ARG77       0.5346
     39  NH1       55.4160    7.7740  -15.0260 N.pl3  77  ARG77       0.1354
     40  NH2       54.5260    5.7830  -14.1980 N.pl3  77  ARG77       0.1354
     41  N         48.7410    3.7720  -29.9720 N.3   179  ARG179     -0.1231
     42  CA        49.5770    5.0040  -29.8260 C.3   179  ARG179      0.1694
     43  C         51.0850    4.6560  -29.8830 C.2   179  ARG179      0.2591
     44  O         51.9270    5.5440  -30.1970 O.2   179  ARG179     -0.2718
     45  CB        49.2680    5.7740  -28.5250 C.3   179  ARG179      0.0321
     46  CG        49.8110    5.0840  -27.2720 C.3   179  ARG179      0.0489
     47  CD        49.5660    5.8660  -25.9920 C.3   179  ARG179      0.2205
     48  NE        50.2570    5.1830  -24.9240 N.pl3 179  ARG179     -0.0865
     49  CZ        50.8600    5.7410  -23.8650 C.cat 179  ARG179      0.5346
     50  NH1       50.8090    7.0920  -23.6160 N.pl3 179  ARG179      0.1354
     51  NH2       51.5300    4.9170  -23.0430 N.pl3 179  ARG179      0.1354
     52  N         51.4160    3.3970  -29.5410 N.am  180  GLN180     -0.1979
     53  CA        52.7960    2.9250  -29.5670 C.3   180  GLN180      0.1601
     54  C         52.8890    1.4860  -30.1420 C.2   180  GLN180      0.2287
     55  O         52.0590    0.6050  -29.8160 O.2   180  GLN180     -0.2864
     56  CB        53.4610    3.0310  -28.1890 C.3   180  GLN180      0.0394
     57  CG        53.9790    4.4360  -27.8730 C.3   180  GLN180      0.0908
     58  CD        55.4870    4.6410  -28.2160 C.2   180  GLN180      0.2608
     59  OE1       55.9230    5.0610  -29.3920 O.2   180  GLN180     -0.2717
     60  NE2       56.3040    4.4090  -27.1790 N.am  180  GLN180     -0.0878
     61  N         53.4860   -1.2530  -27.4530 N.3   183  GLU183     -0.1245
     62  CA        52.2370   -1.4780  -26.6710 C.3   183  GLU183      0.1567
     63  C         51.2030   -2.2450  -27.4630 C.2   183  GLU183      0.2260
     64  O         50.5560   -3.2010  -26.9560 O.2   183  GLU183     -0.2867
     65  CB        51.5750   -0.1590  -26.2840 C.3   183  GLU183      0.0388
     66  CG        52.0060    0.3660  -24.9550 C.3   183  GLU183      0.1160
     67  CD        51.5540    1.7940  -24.7130 C.2   183  GLU183      0.3649
     68  OE1       50.3720    2.1100  -25.0360 O.co2 183  GLU183     -0.2457
     69  OE2       52.4160    2.5560  -24.1710 O.co2 183  GLU183     -0.2457
     70  N         52.9660   10.8230  -29.3690 N.3   227  TYR227     -0.1241
     71  CA        53.3830    9.5160  -29.8380 C.3   227  TYR227      0.1605
     72  C         52.7700    9.1570  -31.1790 C.2   227  TYR227      0.2264
     73  O         53.2530    8.2760  -31.8960 O.2   227  TYR227     -0.2867
     74  CB        52.7830    8.4770  -28.8900 C.3   227  TYR227      0.0534
     75  CG        53.5730    8.1670  -27.6620 C.ar  227  TYR227     -0.0201
     76  CD1       54.9280    7.8390  -27.7400 C.ar  227  TYR227     -0.0009
     77  CD2       52.9570    8.2180  -26.3880 C.ar  227  TYR227     -0.0009
     78  CE1       55.6280    7.4740  -26.5790 C.ar  227  TYR227      0.0417
     79  CE2       53.6650    7.8600  -25.2260 C.ar  227  TYR227      0.0417
     80  CZ        54.9850    7.5220  -25.3290 C.ar  227  TYR227      0.1957
     81  OH        55.6620    7.2090  -24.1930 O.3   227  TYR227     -0.2866
     82  N         57.7730   12.9650  -26.3270 N.3   259  ASP259     -0.1225
     83  CA        57.2210   11.9960  -25.3840 C.3   259  ASP259      0.1805
     84  C         58.2330   10.8270  -25.2770 C.2   259  ASP259      0.2597
     85  O         59.2040   10.7960  -26.0230 O.2   259  ASP259     -0.2718
     86  CB        55.8170   11.5840  -25.8030 C.3   259  ASP259      0.1424
     87  CG        54.9820   11.2310  -24.6280 C.2   259  ASP259      0.3668
     88  OD1       55.5730   10.8700  -23.5560 O.co2 259  ASP259     -0.2456
     89  OD2       53.7460   11.2430  -24.7800 O.co2 259  ASP259     -0.2456
     90  N         58.0540    9.9240  -24.3090 N.am  260  TRP260     -0.1976
     91  CA        59.0900    9.0330  -23.8850 C.3   260  TRP260      0.1640
     92  C         59.1270    7.8210  -24.8120 C.2   260  TRP260      0.2290
     93  O         58.2920    6.9000  -24.7110 O.2   260  TRP260     -0.2864
     94  CB        58.8130    8.6090  -22.4600 C.3   260  TRP260      0.0576
     95  CG        59.5190    9.4200  -21.3820 C.ar  260  TRP260      0.0006
     96  CD1       60.2830    8.9250  -20.3540 C.ar  260  TRP260      0.0946
     97  CD2       59.5450   10.8590  -21.2310 C.ar  260  TRP260      0.0152
     98  NE1       60.7570    9.9840  -19.5480 N.ar  260  TRP260     -0.2442
     99  CE2       60.2820   11.1550  -20.0590 C.ar  260  TRP260      0.0810
    100  CE3       58.9450   11.9070  -21.9180 C.ar  260  TRP260      0.0012
    101  CZ2       60.4880   12.4590  -19.6220 C.ar  260  TRP260      0.0191
    102  CZ3       59.1180   13.1990  -21.4540 C.ar  260  TRP260      0.0001
    103  CH2       59.8890   13.4740  -20.3490 C.ar  260  TRP260      0.0015
    104  N         64.3340    2.3930  -24.1660 N.3   284  PHE284     -0.1241
    105  CA        64.7540    2.4760  -22.7330 C.3   284  PHE284      0.1605
    106  C         66.0160    1.6600  -22.5280 C.2   284  PHE284      0.2264
    107  O         66.0410    0.4530  -22.8150 O.2   284  PHE284     -0.2867
    108  CB        63.6440    1.9990  -21.7920 C.3   284  PHE284      0.0534
    109  CG        62.4670    2.9570  -21.6850 C.ar  284  PHE284     -0.0203
    110  CD1       62.3880    4.0910  -22.4770 C.ar  284  PHE284     -0.0042
    111  CD2       61.4130    2.6870  -20.7870 C.ar  284  PHE284     -0.0042
    112  CE1       61.3300    4.9710  -22.3570 C.ar  284  PHE284     -0.0003
    113  CE2       60.3390    3.5740  -20.6550 C.ar  284  PHE284     -0.0003
    114  CZ        60.2950    4.7190  -21.4350 C.ar  284  PHE284     -0.0000
    115  N         51.1410    2.7840  -10.2420 N.3   416  ASP416     -0.1239
    116  CA        50.5720    3.8230  -11.1280 C.3   416  ASP416      0.1674
    117  C         49.0380    3.7760  -11.0900 C.2   416  ASP416      0.2266
    118  O         48.3820    4.0900  -12.0920 O.2   416  ASP416     -0.2867
    119  CB        51.0450    3.6620  -12.5790 C.3   416  ASP416      0.1410
    120  CG        52.6020    3.5970  -12.7200 C.2   416  ASP416      0.3668
    121  OD1       53.3360    4.2210  -11.9080 O.co2 416  ASP416     -0.2456
    122  OD2       53.1000    2.8990  -13.6580 O.co2 416  ASP416     -0.2456
    123  N         50.9750    7.3500  -16.2180 N.3   430  SER430     -0.1217
    124  CA        51.9410    8.3900  -15.7880 C.3   430  SER430      0.1889
    125  C         51.2810    9.5970  -15.0920 C.2   430  SER430      0.2288
    126  O         51.9440   10.3930  -14.4360 O.2   430  SER430     -0.2866
    127  CB        52.6890    8.9240  -17.0320 C.3   430  SER430      0.2089
    128  OG        51.7880    9.6320  -17.8970 O.3   430  SER430     -0.2183
    129  N         46.1720    5.4830  -18.9760 N.3   488  GLU488     -0.1245
    130  CA        47.1090    5.4570  -20.0480 C.3   488  GLU488      0.1567
    131  C         47.2490    4.0160  -20.6410 C.2   488  GLU488      0.2260
    132  O         47.1880    3.0120  -19.9390 O.2   488  GLU488     -0.2867
    133  CB        48.4510    5.9770  -19.5240 C.3   488  GLU488      0.0388
    134  CG        49.5280    6.0740  -20.6020 C.3   488  GLU488      0.1160
    135  CD        50.8110    6.7720  -20.1470 C.2   488  GLU488      0.3649
    136  OE1       50.7930    7.4500  -19.1010 O.co2 488  GLU488     -0.2457
    137  OE2       51.8630    6.6200  -20.8160 O.co2 488  GLU488     -0.2457
    138  N         49.5630    1.8720  -21.4070 N.3   490  TYR490     -0.1241
    139  CA        50.5110    0.7550  -21.1020 C.3   490  TYR490      0.1605
    140  C         49.9710   -0.1580  -20.0010 C.2   490  TYR490      0.2264
    141  O         50.5410   -1.1860  -19.6880 O.2   490  TYR490     -0.2867
    142  CB        51.9570    1.2070  -20.7870 C.3   490  TYR490      0.0534
    143  CG        52.0760    1.9970  -19.4890 C.ar  490  TYR490     -0.0201
    144  CD1       52.4630    1.3680  -18.2890 C.ar  490  TYR490     -0.0009
    145  CD2       51.7810    3.3880  -19.4590 C.ar  490  TYR490     -0.0009
    146  CE1       52.5700    2.0910  -17.1010 C.ar  490  TYR490      0.0417
    147  CE2       51.8560    4.1030  -18.2680 C.ar  490  TYR490      0.0417
    148  CZ        52.2560    3.4750  -17.1010 C.ar  490  TYR490      0.1957
    149  OH        52.3890    4.2330  -15.9340 O.3   490  TYR490     -0.2866
@<TRIPOS>BOND
     1    73    72    2
     2    72    71    1
     3    44    43    2
     4    54    55    2
     5    54    53    1
     6    41    42    1
     7    43    42    1
     8    43    52   am
     9    71    70    1
    10    71    74    1
    11    42    45    1
    12    53    52    1
    13    53    56    1
    14    59    58    2
    15    74    75    1
    16    45    46    1
    17    58    57    1
    18    58    60   am
    19    56    57    1
    20    76    75   ar
    21    76    78   ar
    22    75    77   ar
    23    63    64    2
    24    63    62    1
    25    61    62    1
    26    46    47    1
    27    62    65    1
    28    78    80   ar
    29    77    79   ar
    30    82    83    1
    31    65    66    1
    32    85    84    2
    33    47    48    1
    34    86    83    1
    35    86    87    1
    36    83    84    1
    37    80    79   ar
    38    80    81    1
    39    84    90   am
    40    68    67   ar
    41    66    67    1
    42    48    49    2
    43    92    93    2
    44    92    91    1
    45    89    87   ar
    46    67    69   ar
    47    87    88   ar
    48    90    91    1
    49   104   105    1
    50    91    94    1
    51    49    50    1
    52    49    51    1
    53   107   106    2
    54   105   106    1
    55   105   108    1
    56   110   112   ar
    57   110   109   ar
    58    94    95    1
    59   112   114   ar
    60   100   102   ar
    61   100    97   ar
    62   108   109    1
    63   109   111   ar
    64   102   103   ar
    65   114   113   ar
    66   138   139    1
    67    95    97   ar
    68    95    96   ar
    69    97    99   ar
    70   139   142    1
    71   139   140    1
    72   137   135   ar
    73   142   143    1
    74   111   113   ar
    75   131   130    1
    76   131   132    2
    77   134   135    1
    78   134   133    1
    79    96    98   ar
    80   103   101   ar
    81   135   136   ar
    82    99   101   ar
    83    99    98   ar
    84   130   133    1
    85   130   129    1
    86   140   141    2
    87     1     2    1
    88     5     2    1
    89     5     6    1
    90   143   145   ar
    91   143   144   ar
    92   145   147   ar
    93     2     3    1
    94     6     7   ar
    95     6     8   ar
    96    11     8   ar
    97    11    13   ar
    98     7     9   ar
    99   144   146   ar
   100     8    10   ar
   101   147   148   ar
   102   128   127    1
   103    13    14   ar
   104     9    10   ar
   105     3     4    2
   106    10    12   ar
   107    18    17    2
   108   146   148   ar
   109   148   149    1
   110   127   124    1
   111    14    12   ar
   112    28    27   ar
   113    20    19    1
   114    17    16    1
   115   123   124    1
   116   124   125    1
   117    29    27   ar
   118    27    26    1
   119    19    16    1
   120    19    21    1
   121   125   126    2
   122    16    15    1
   123    39    38    1
   124    40    38    1
   125    26    23    1
   126    23    22    1
   127    23    24    1
   128    38    37    2
   129   122   120   ar
   130    37    36    1
   131    36    35    1
   132   120   119    1
   133   120   121   ar
   134    24    25    2
   135   119   116    1
   136   118   117    2
   137    35    34    1
   138   116   117    1
   139   116   115    1
   140    34    31    1
   141    31    30    1
   142    31    32    1
   143    32    33    2
