@<TRIPOS>MOLECULE
tmp/4iihA00.pdb
 217 209 0 0 0
SMALL
GASTEIGER

@<TRIPOS>ATOM
      1  N          8.2260  -20.5430   20.0370 N.3    47  TRP47      -0.1241
      2  CA         9.3450  -19.8690   19.3560 C.3    47  TRP47       0.1605
      3  C          8.8200  -18.8500   18.3160 C.2    47  TRP47       0.2264
      4  O          8.0290  -19.2300   17.4070 O.2    47  TRP47      -0.2867
      5  CB        10.2480  -20.8760   18.6730 C.3    47  TRP47       0.0550
      6  CG        11.4180  -20.2580   17.8450 C.ar   47  TRP47       0.0003
      7  CD1       11.6040  -20.3610   16.4500 C.ar   47  TRP47       0.0946
      8  CD2       12.5160  -19.4490   18.3460 C.ar   47  TRP47       0.0152
      9  NE1       12.7690  -19.7020   16.1030 N.ar   47  TRP47      -0.2442
     10  CE2       13.3420  -19.1220   17.2200 C.ar   47  TRP47       0.0810
     11  CE3       12.8770  -18.9570   19.6330 C.ar   47  TRP47       0.0012
     12  CZ2       14.5400  -18.3130   17.3490 C.ar   47  TRP47       0.0191
     13  CZ3       14.0550  -18.1320   19.7690 C.ar   47  TRP47       0.0001
     14  CH2       14.8730  -17.8540   18.6350 C.ar   47  TRP47       0.0015
     15  N         12.8250  -12.8290   22.3190 N.3    53  VAL53      -0.1245
     16  CA        13.2940  -14.2040   22.0530 C.3    53  VAL53       0.1561
     17  C         12.7170  -15.2540   23.0390 C.2    53  VAL53       0.2260
     18  O         12.7040  -16.3960   22.7170 O.2    53  VAL53      -0.2867
     19  CB        14.8680  -14.3590   21.9260 C.3    53  VAL53       0.0252
     20  CG1       15.3850  -13.4270   20.7610 C.3    53  VAL53       0.0019
     21  CG2       15.5510  -13.9600   23.2010 C.3    53  VAL53       0.0019
     22  N         18.0780  -11.7480   24.9840 N.3    71  ASP71      -0.1239
     23  CA        19.5570  -11.6300   24.8690 C.3    71  ASP71       0.1674
     24  C         20.0150  -10.1790   24.6240 C.2    71  ASP71       0.2266
     25  O         19.1660   -9.3680   24.2380 O.2    71  ASP71      -0.2867
     26  CB        20.0150  -12.5680   23.7760 C.3    71  ASP71       0.1410
     27  CG        20.5180  -13.8940   24.4380 C.2    71  ASP71       0.3668
     28  OD1       21.4740  -13.8750   25.2780 O.co2  71  ASP71      -0.2456
     29  OD2       19.9810  -14.8680   24.1410 O.co2  71  ASP71      -0.2456
     30  N         19.7180   -7.8950   21.8070 N.3    77  ARG77      -0.1231
     31  CA        19.8460   -8.7150   20.5870 C.3    77  ARG77       0.1694
     32  C         18.6450   -8.4220   19.6710 C.2    77  ARG77       0.2592
     33  O         17.5490   -8.1460   20.2000 O.2    77  ARG77      -0.2718
     34  CB        19.8100  -10.2120   20.9620 C.3    77  ARG77       0.0321
     35  CG        20.2180  -11.1090   19.7930 C.3    77  ARG77       0.0489
     36  CD        19.9670  -12.5880   20.0110 C.3    77  ARG77       0.2205
     37  NE        20.3280  -13.3070   18.7890 N.pl3  77  ARG77      -0.0865
     38  CZ        20.0110  -14.5900   18.6120 C.cat  77  ARG77       0.5346
     39  NH1       19.3850  -15.2400   19.6060 N.pl3  77  ARG77       0.1354
     40  NH2       20.3770  -15.2550   17.5200 N.pl3  77  ARG77       0.1354
     41  N         18.8470   -8.4490   18.3410 N.am   78  ASP78      -0.1974
     42  CA        17.7330   -8.5730   17.4160 C.3    78  ASP78       0.1709
     43  C         16.8310   -7.3530   17.4990 C.2    78  ASP78       0.2293
     44  O         15.6070   -7.4710   17.3540 O.2    78  ASP78      -0.2864
     45  CB        16.9000   -9.8540   17.6440 C.3    78  ASP78       0.1436
     46  CG        17.5080  -11.0720   17.0060 C.2    78  ASP78       0.3671
     47  OD1       18.3760  -10.9240   16.0980 O.co2  78  ASP78      -0.2456
     48  OD2       17.1550  -12.2210   17.4030 O.co2  78  ASP78      -0.2456
     49  N         18.9300  -11.5860   29.3980 N.3   120  LEU120     -0.1245
     50  CA        19.5240  -12.9190   29.4700 C.3   120  LEU120      0.1561
     51  C         21.0570  -12.7630   29.6420 C.2   120  LEU120      0.2260
     52  O         21.7950  -13.0520   28.7040 O.2   120  LEU120     -0.2867
     53  CB        19.1680  -13.7580   28.1940 C.3   120  LEU120      0.0270
     54  CG        17.5850  -13.9490   28.0400 C.3   120  LEU120      0.0019
     55  CD1       17.1910  -14.8150   26.8460 C.3   120  LEU120      0.0001
     56  CD2       17.0650  -14.5960   29.3430 C.3   120  LEU120      0.0001
     57  N         32.5940  -20.0630   23.8660 N.3   135  ARG135     -0.1245
     58  CA        31.8090  -18.9850   24.4960 C.3   135  ARG135      0.1563
     59  C         32.4660  -18.4090   25.7460 C.2   135  ARG135      0.2260
     60  O         31.8070  -17.6600   26.4440 O.2   135  ARG135     -0.2867
     61  CB        30.4070  -19.4880   24.8470 C.3   135  ARG135      0.0307
     62  CG        29.6370  -19.9680   23.5690 C.3   135  ARG135      0.0489
     63  CD        28.2540  -20.4650   24.0230 C.3   135  ARG135      0.2205
     64  NE        27.3430  -19.3040   24.1650 N.pl3 135  ARG135     -0.0865
     65  CZ        26.0420  -19.4190   24.4590 C.cat 135  ARG135      0.5346
     66  NH1       25.5660  -20.6730   24.7100 N.pl3 135  ARG135      0.1354
     67  NH2       25.2550  -18.3120   24.5400 N.pl3 135  ARG135      0.1354
     68  N         23.8610  -16.9380   33.8340 N.3   168  LYS168     -0.1231
     69  CA        23.8710  -18.1330   32.9680 C.3   168  LYS168      0.1693
     70  C         25.3570  -18.5730   32.6990 C.2   168  LYS168      0.2592
     71  O         26.3020  -17.8030   32.9930 O.2   168  LYS168     -0.2718
     72  CB        23.1320  -17.8310   31.6350 C.3   168  LYS168      0.0285
     73  CG        23.7530  -16.7480   30.7090 C.3   168  LYS168      0.0035
     74  CD        22.7360  -16.3900   29.5790 C.3   168  LYS168      0.0206
     75  CE        23.4550  -15.8400   28.3980 C.3   168  LYS168      0.1093
     76  NZ        22.5140  -15.4090   27.3460 N.3   168  LYS168     -0.1314
     77  N         25.6180  -19.7370   32.1170 N.am  169  HIS169     -0.1976
     78  CA        24.7020  -20.8930   31.9130 C.3   169  HIS169      0.1656
     79  C         25.0600  -21.8280   33.0600 C.2   169  HIS169      0.2291
     80  O         26.2410  -22.1950   33.2370 O.2   169  HIS169     -0.2864
     81  CB        25.0080  -21.6010   30.5510 C.3   169  HIS169      0.0771
     82  CG        24.8400  -20.6870   29.3780 C.ar  169  HIS169      0.0820
     83  ND1       25.8430  -19.8360   28.9330 N.ar  169  HIS169     -0.2267
     84  CD2       23.7630  -20.4330   28.5930 C.ar  169  HIS169      0.1154
     85  CE1       25.3820  -19.1040   27.9250 C.ar  169  HIS169      0.1986
     86  NE2       24.1360  -19.4730   27.6910 N.ar  169  HIS169     -0.2212
     87  N         27.0030  -30.1230   22.4350 N.3   179  ARG179     -0.1231
     88  CA        26.1640  -29.4970   23.4640 C.3   179  ARG179      0.1694
     89  C         24.6740  -29.7330   23.2150 C.2   179  ARG179      0.2591
     90  O         23.8720  -29.5670   24.1500 O.2   179  ARG179     -0.2718
     91  CB        26.3950  -27.9920   23.5510 C.3   179  ARG179      0.0321
     92  CG        25.7310  -27.2880   22.3360 C.3   179  ARG179      0.0489
     93  CD        26.0680  -25.7570   22.4420 C.3   179  ARG179      0.2205
     94  NE        25.3330  -25.1180   21.3790 N.pl3 179  ARG179     -0.0865
     95  CZ        24.6570  -23.9650   21.5340 C.cat 179  ARG179      0.5346
     96  NH1       24.6690  -23.3000   22.6660 N.pl3 179  ARG179      0.1354
     97  NH2       23.9490  -23.5250   20.5240 N.pl3 179  ARG179      0.1354
     98  N         24.2670  -29.9750   21.9570 N.am  180  GLN180     -0.1979
     99  CA        22.8610  -30.2280   21.5730 C.3   180  GLN180      0.1601
    100  C         22.8410  -31.3370   20.5360 C.2   180  GLN180      0.2287
    101  O         23.7150  -31.3620   19.6200 O.2   180  GLN180     -0.2864
    102  CB        22.1590  -28.9790   20.9690 C.3   180  GLN180      0.0394
    103  CG        21.6340  -27.9810   22.0510 C.3   180  GLN180      0.0908
    104  CD        20.3170  -28.4890   22.6240 C.2   180  GLN180      0.2608
    105  OE1       20.2630  -29.3960   23.5040 O.2   180  GLN180     -0.2717
    106  NE2       19.2400  -27.9420   22.1120 N.am  180  GLN180     -0.0878
    107  N         22.0620  -30.1040   16.7870 N.3   183  GLU183     -0.1245
    108  CA        23.2570  -29.3990   16.3170 C.3   183  GLU183      0.1567
    109  C         24.4080  -30.3480   15.9460 C.2   183  GLU183      0.2260
    110  O         25.0900  -30.2120   14.8960 O.2   183  GLU183     -0.2867
    111  CB        23.7680  -28.5370   17.4440 C.3   183  GLU183      0.0388
    112  CG        24.0680  -27.1430   17.0890 C.3   183  GLU183      0.1160
    113  CD        24.3020  -26.2930   18.3360 C.2   183  GLU183      0.3649
    114  OE1       23.3890  -25.5770   18.7220 O.co2 183  GLU183     -0.2457
    115  OE2       25.4110  -26.3350   18.8900 O.co2 183  GLU183     -0.2457
    116  N         19.8030  -19.3360   34.3740 N.3   224  MET224     -0.1245
    117  CA        19.4220  -20.1230   33.2120 C.3   224  MET224      0.1570
    118  C         20.2790  -21.3980   33.2700 C.2   224  MET224      0.2261
    119  O         21.5200  -21.3020   33.3630 O.2   224  MET224     -0.2867
    120  CB        19.7040  -19.3680   31.8850 C.3   224  MET224      0.0387
    121  CG        19.3870  -20.2500   30.6440 C.3   224  MET224      0.0595
    122  SD        20.0400  -19.5240   29.1070 S.3   224  MET224     -0.1393
    123  CE        19.1400  -17.9150   29.1930 C.3   224  MET224      0.0692
    124  N         22.4560  -26.5470   28.4790 N.3   227  TYR227     -0.1241
    125  CA        22.2070  -27.6500   27.5460 C.3   227  TYR227      0.1605
    126  C         22.9140  -28.9860   27.8960 C.2   227  TYR227      0.2264
    127  O         22.4270  -30.0930   27.5330 O.2   227  TYR227     -0.2867
    128  CB        22.7550  -27.2680   26.1450 C.3   227  TYR227      0.0534
    129  CG        21.9690  -26.2350   25.4210 C.ar  227  TYR227     -0.0201
    130  CD1       20.6000  -26.4290   25.1190 C.ar  227  TYR227     -0.0009
    131  CD2       22.6220  -25.0970   24.9040 C.ar  227  TYR227     -0.0009
    132  CE1       19.8490  -25.4460   24.3990 C.ar  227  TYR227      0.0417
    133  CE2       21.8940  -24.1330   24.1750 C.ar  227  TYR227      0.0417
    134  CZ        20.5490  -24.3030   23.9400 C.ar  227  TYR227      0.1957
    135  OH        19.8760  -23.3260   23.2340 O.3   227  TYR227     -0.2866
    136  N         17.6310  -23.0550   29.1890 N.3   259  ASP259     -0.1225
    137  CA        18.1550  -22.6050   27.8840 C.3   259  ASP259      0.1805
    138  C         17.1560  -23.0670   26.7850 C.2   259  ASP259      0.2597
    139  O         16.2660  -23.8710   27.0460 O.2   259  ASP259     -0.2718
    140  CB        19.6240  -23.1660   27.6260 C.3   259  ASP259      0.1424
    141  CG        20.4510  -22.1950   26.7400 C.2   259  ASP259      0.3668
    142  OD1       19.8590  -21.4300   25.9350 O.co2 259  ASP259     -0.2456
    143  OD2       21.6560  -22.1650   26.8540 O.co2 259  ASP259     -0.2456
    144  N         17.2460  -22.4810   25.5790 N.am  260  TRP260     -0.1976
    145  CA        16.2610  -22.6460   24.5140 C.3   260  TRP260      0.1640
    146  C         16.3740  -24.0440   23.9020 C.2   260  TRP260      0.2290
    147  O         17.2190  -24.2450   23.0870 O.2   260  TRP260     -0.2864
    148  CB        16.4220  -21.5640   23.4440 C.3   260  TRP260      0.0576
    149  CG        15.6880  -20.1460   23.7610 C.ar  260  TRP260      0.0006
    150  CD1       14.8710  -19.4330   22.8750 C.ar  260  TRP260      0.0946
    151  CD2       15.6410  -19.4400   24.9970 C.ar  260  TRP260      0.0152
    152  NE1       14.4170  -18.3160   23.4600 N.ar  260  TRP260     -0.2442
    153  CE2       14.8610  -18.2650   24.7690 C.ar  260  TRP260      0.0810
    154  CE3       16.2680  -19.6110   26.2530 C.ar  260  TRP260      0.0012
    155  CZ2       14.5780  -17.3190   25.7880 C.ar  260  TRP260      0.0191
    156  CZ3       16.0070  -18.6340   27.3100 C.ar  260  TRP260      0.0001
    157  CH2       15.1490  -17.5050   27.0380 C.ar  260  TRP260      0.0015
    158  N         11.3110  -25.9670   18.4060 N.3   284  PHE284     -0.1241
    159  CA        10.7640  -24.6660   17.9340 C.3   284  PHE284      0.1605
    160  C          9.4920  -24.8500   17.0920 C.2   284  PHE284      0.2264
    161  O          9.5640  -25.5370   16.0640 O.2   284  PHE284     -0.2867
    162  CB        11.7840  -23.9080   17.1090 C.3   284  PHE284      0.0534
    163  CG        12.9460  -23.3620   17.9450 C.ar  284  PHE284     -0.0203
    164  CD1       12.9500  -23.4840   19.3490 C.ar  284  PHE284     -0.0042
    165  CD2       14.0260  -22.7130   17.3060 C.ar  284  PHE284     -0.0042
    166  CE1       14.0450  -22.9530   20.1220 C.ar  284  PHE284     -0.0003
    167  CE2       15.0950  -22.1560   18.0560 C.ar  284  PHE284     -0.0003
    168  CZ        15.1090  -22.2960   19.4670 C.ar  284  PHE284     -0.0000
    169  N         11.9700  -10.2370   15.3040 N.3   337  TRP337     -0.1241
    170  CA        11.8920  -11.1100   14.0980 C.3   337  TRP337      0.1605
    171  C         11.7540  -10.3100   12.8090 C.2   337  TRP337      0.2264
    172  O         11.7890  -10.9000   11.7180 O.2   337  TRP337     -0.2867
    173  CB        10.6330  -12.0140   14.1710 C.3   337  TRP337      0.0550
    174  CG        10.3950  -12.5730   15.5730 C.ar  337  TRP337      0.0003
    175  CD1        9.2920  -12.4030   16.3610 C.ar  337  TRP337      0.0946
    176  CD2       11.3530  -13.3000   16.3500 C.ar  337  TRP337      0.0152
    177  NE1        9.5120  -12.9780   17.6190 N.ar  337  TRP337     -0.2442
    178  CE2       10.7510  -13.5980   17.5870 C.ar  337  TRP337      0.0810
    179  CE3       12.6340  -13.7710   16.0820 C.ar  337  TRP337      0.0012
    180  CZ2       11.4260  -14.3080   18.5970 C.ar  337  TRP337      0.0191
    181  CZ3       13.2970  -14.5000   17.0780 C.ar  337  TRP337      0.0001
    182  CH2       12.6880  -14.7450   18.3190 C.ar  337  TRP337      0.0015
    183  N         23.9500  -12.6690   13.2480 N.3   416  ASP416     -0.1239
    184  CA        24.5030  -13.1090   14.5770 C.3   416  ASP416      0.1674
    185  C         26.0700  -13.0030   14.5930 C.2   416  ASP416      0.2266
    186  O         26.7620  -13.7240   15.3570 O.2   416  ASP416     -0.2867
    187  CB        24.1050  -14.5720   14.8970 C.3   416  ASP416      0.1410
    188  CG        22.6000  -14.7380   15.0020 C.2   416  ASP416      0.3668
    189  OD1       21.9260  -13.7040   15.3180 O.co2 416  ASP416     -0.2456
    190  OD2       22.0910  -15.8970   14.7990 O.co2 416  ASP416     -0.2456
    191  N         24.2360  -16.2050   19.8860 N.3   430  SER430     -0.1217
    192  CA        23.1180  -15.4970   20.5010 C.3   430  SER430      0.1889
    193  C         23.6090  -14.4260   21.4670 C.2   430  SER430      0.2288
    194  O         22.8460  -13.5530   21.8430 O.2   430  SER430     -0.2866
    195  CB        22.2210  -16.5140   21.2750 C.3   430  SER430      0.2089
    196  OG        22.9520  -16.9210   22.4530 O.3   430  SER430     -0.2183
    197  N         28.9400  -19.2230   19.6160 N.3   488  GLU488     -0.1245
    198  CA        28.0410  -20.2940   19.9430 C.3   488  GLU488      0.1567
    199  C         28.0870  -21.4040   18.8710 C.2   488  GLU488      0.2260
    200  O         28.2010  -21.1270   17.6530 O.2   488  GLU488     -0.2867
    201  CB        26.6360  -19.7490   20.0380 C.3   488  GLU488      0.0388
    202  CG        25.6850  -20.7030   20.8300 C.3   488  GLU488      0.1160
    203  CD        24.3760  -20.0030   21.2490 C.2   488  GLU488      0.3649
    204  OE1       23.5030  -20.7440   21.7860 O.co2 488  GLU488     -0.2457
    205  OE2       24.2000  -18.7460   21.0620 O.co2 488  GLU488     -0.2457
    206  N         25.9690  -23.2160   17.1870 N.3   490  TYR490     -0.1241
    207  CA        25.0160  -23.3900   16.0710 C.3   490  TYR490      0.1605
    208  C         25.5460  -22.6990   14.8020 C.2   490  TYR490      0.2264
    209  O         25.0260  -22.9350   13.7380 O.2   490  TYR490     -0.2867
    210  CB        23.5770  -22.9760   16.4200 C.3   490  TYR490      0.0534
    211  CG        23.4020  -21.4760   16.5210 C.ar  490  TYR490     -0.0201
    212  CD1       23.0280  -20.7250   15.4060 C.ar  490  TYR490     -0.0009
    213  CD2       23.6290  -20.8180   17.7510 C.ar  490  TYR490     -0.0009
    214  CE1       22.8280  -19.3550   15.4820 C.ar  490  TYR490      0.0417
    215  CE2       23.4690  -19.4350   17.8490 C.ar  490  TYR490      0.0417
    216  CZ        23.0550  -18.7330   16.7280 C.ar  490  TYR490      0.1957
    217  OH        22.9210  -17.3590   16.8130 O.3   490  TYR490     -0.2866
@<TRIPOS>BOND
     1   172   171    2
     2   171   170    1
     3   183   184    1
     4   209   208    2
     5   170   173    1
     6   170   169    1
     7   173   174    1
     8   184   185    1
     9   184   187    1
    10   185   186    2
    11   190   188   ar
    12   208   207    1
    13   110   109    2
    14   187   188    1
    15   188   189   ar
    16   212   214   ar
    17   212   211   ar
    18   214   216   ar
    19   174   176   ar
    20   174   175   ar
    21   109   108    1
    22   161   160    2
    23   207   210    1
    24   207   206    1
    25   179   176   ar
    26   179   181   ar
    27    47    46   ar
    28     9     7   ar
    29     9    10   ar
    30   108   107    1
    31   108   111    1
    32   176   178   ar
    33   175   177   ar
    34   210   211    1
    35     7     6   ar
    36   211   213   ar
    37   216   217    1
    38   216   215   ar
    39    46    48   ar
    40    46    45    1
    41   181   182   ar
    42   112   111    1
    43   112   113    1
    44   160   159    1
    45   162   159    1
    46   162   163    1
    47    10    12   ar
    48    10     8   ar
    49   165   163   ar
    50   165   167   ar
    51    12    14   ar
    52    44    43    2
    53     4     3    2
    54    42    43    1
    55    42    45    1
    56    42    41    1
    57    40    38    1
    58   178   177   ar
    59   178   180   ar
    60   200   199    2
    61   213   215   ar
    62     6     8   ar
    63     6     5    1
    64   159   158    1
    65   163   164   ar
    66   167   168   ar
    67     3     2    1
    68   182   180   ar
    69   113   114   ar
    70   113   115   ar
    71    41    32   am
    72     8    11   ar
    73    38    37    2
    74    38    39    1
    75    14    13   ar
    76     5     2    1
    77    37    36    1
    78   199   198    1
    79   164   166   ar
    80     2     1    1
    81   168   166   ar
    82   197   198    1
    83   101   100    2
    84    11    13   ar
    85    32    33    2
    86    32    31    1
    87    35    36    1
    88    35    34    1
    89   191   192    1
    90   198   201    1
    91   201   202    1
    92   192   195    1
    93   192   193    1
    94    97    95    1
    95   100    99    1
    96    31    34    1
    97    31    30    1
    98    20    19    1
    99   202   203    1
   100   102    99    1
   101   102   103    1
   102   205   203   ar
   103   203   204   ar
   104   195   196    1
   105    94    95    2
   106    94    93    1
   107   193   194    2
   108    95    96    1
   109    99    98    1
   110    19    16    1
   111    19    21    1
   112    98    89   am
   113   103   104    1
   114    16    15    1
   115    16    17    1
   116   106   104   am
   117    92    93    1
   118    92    91    1
   119    87    88    1
   120   104   105    2
   121    18    17    2
   122   150   152   ar
   123   150   149   ar
   124   147   146    2
   125    89    88    1
   126    89    90    2
   127   135   134    1
   128   148   149    1
   129   148   145    1
   130   152   153   ar
   131    88    91    1
   132    62    63    1
   133    62    61    1
   134   149   151   ar
   135    26    27    1
   136    26    23    1
   137    57    58    1
   138   146   145    1
   139   134   133   ar
   140   134   132   ar
   141    63    64    1
   142    29    27   ar
   143    64    65    2
   144   133   131   ar
   145    25    24    2
   146   132   130   ar
   147    27    28   ar
   148    65    67    1
   149    65    66    1
   150    58    61    1
   151    58    59    1
   152   145   144    1
   153    24    23    1
   154   153   151   ar
   155   153   155   ar
   156    23    22    1
   157   131   129   ar
   158   151   154   ar
   159   130   129   ar
   160   129   128    1
   161   144   138   am
   162    59    60    2
   163   155   157   ar
   164   142   141   ar
   165   128   125    1
   166   154   156   ar
   167   141   143   ar
   168   141   140    1
   169   138   139    2
   170   138   137    1
   171    55    54    1
   172   157   156   ar
   173    76    75    1
   174   127   126    2
   175   125   126    1
   176   125   124    1
   177   140   137    1
   178    86    85   ar
   179    86    84   ar
   180   137   136    1
   181    85    83   ar
   182    54    53    1
   183    54    56    1
   184    53    50    1
   185    75    74    1
   186    84    82   ar
   187    52    51    2
   188    83    82   ar
   189   122   123    1
   190   122   121    1
   191    82    81    1
   192    49    50    1
   193    50    51    1
   194    74    73    1
   195    81    78    1
   196   121   120    1
   197    73    72    1
   198    72    69    1
   199   120   117    1
   200    78    77    1
   201    78    79    1
   202    77    70   am
   203    70    69    1
   204    70    71    2
   205    69    68    1
   206    79    80    2
   207   117   118    1
   208   117   116    1
   209   118   119    2
