@<TRIPOS>MOLECULE
tmp/4iilA00.pdb
 203 198 0 0 0
SMALL
GASTEIGER

@<TRIPOS>ATOM
      1  N         24.2710   44.8010   11.3360 N.3    10  PRO10      -0.2102
      2  CA        25.7020   44.5220   11.1900 C.3    10  PRO10       0.1504
      3  C         25.9410   43.0070   11.1200 C.2    10  PRO10       0.2576
      4  O         26.4750   42.3940   12.0390 O.2    10  PRO10      -0.2718
      5  CB        26.3160   45.1780   12.4420 C.3    10  PRO10       0.0282
      6  CG        25.2180   45.9990   13.0500 C.3    10  PRO10       0.0208
      7  CD        23.9660   45.2480   12.6970 C.3    10  PRO10       0.0893
      8  N         25.5300   42.4240    9.9960 N.am   11  GLY11      -0.1943
      9  CA        25.5170   40.9910    9.7860 C.3    11  GLY11       0.2014
     10  C         24.2680   40.6290    9.0060 C.2    11  GLY11       0.2638
     11  O         23.9380   41.2950    8.0200 O.2    11  GLY11      -0.2714
     12  N         23.5670   39.5980    9.4690 N.am   12  PHE12      -0.1973
     13  CA        22.3370   39.1180    8.8450 C.3    12  PHE12       0.1639
     14  C         21.2450   39.0850    9.8990 C.2    12  PHE12       0.2290
     15  O         21.5020   38.8050   11.0770 O.2    12  PHE12      -0.2864
     16  CB        22.5060   37.7110    8.2900 C.3    12  PHE12       0.0560
     17  CG        23.5340   37.6010    7.2090 C.ar   12  PHE12      -0.0200
     18  CD1       23.2480   38.0180    5.9250 C.ar   12  PHE12      -0.0042
     19  CD2       24.7800   37.0590    7.4800 C.ar   12  PHE12      -0.0042
     20  CE1       24.2010   37.9100    4.9100 C.ar   12  PHE12      -0.0003
     21  CE2       25.7410   36.9440    6.4820 C.ar   12  PHE12      -0.0003
     22  CZ        25.4520   37.3640    5.1890 C.ar   12  PHE12      -0.0000
     23  N         20.2350   35.3800   13.9730 N.3    16  SER16      -0.1203
     24  CA        20.9390   36.2070   14.9560 C.3    16  SER16       0.2005
     25  C         19.9400   36.8540   15.8950 C.2    16  SER16       0.2461
     26  O         19.3260   37.8330   15.5270 O.2    16  SER16      -0.2732
     27  CB        21.7630   37.2860   14.2570 C.3    16  SER16       0.2103
     28  OG        22.9140   36.7150   13.6600 O.3    16  SER16      -0.2182
     29  N         19.7870   36.3180   17.1160 N.am   17  PRO17      -0.2717
     30  CA        18.7020   36.8100   17.9880 C.3    17  PRO17       0.1535
     31  C         18.6420   38.3250   18.1380 C.2    17  PRO17       0.2598
     32  O         17.5770   38.9020   17.9890 O.2    17  PRO17      -0.2715
     33  CB        18.9920   36.1050   19.3110 C.3    17  PRO17       0.0310
     34  CG        19.5790   34.7720   18.8720 C.3    17  PRO17       0.0237
     35  CD        20.4590   35.1260   17.6840 C.3    17  PRO17       0.0939
     36  N         19.7630   38.9760   18.3870 N.am   18  VAL18      -0.1964
     37  CA        19.7210   40.4300   18.5820 C.3    18  VAL18       0.1727
     38  C         19.1690   41.1580   17.3580 C.2    18  VAL18       0.2616
     39  O         18.4400   42.1370   17.4920 O.2    18  VAL18      -0.2715
     40  CB        21.1090   41.0310   18.9550 C.3    18  VAL18       0.0290
     41  CG1       21.4590   40.6750   20.3930 C.3    18  VAL18       0.0023
     42  CG2       22.2260   40.6090   17.9700 C.3    18  VAL18       0.0023
     43  N         19.5490   40.7160   16.1590 N.am   19  TYR19      -0.1974
     44  CA        19.1410   41.4190   14.9460 C.3    19  TYR19       0.1639
     45  C         17.7340   41.0120   14.5170 C.2    19  TYR19       0.2290
     46  O         16.9850   41.8360   13.9690 O.2    19  TYR19      -0.2864
     47  CB        20.1460   41.1760   13.8140 C.3    19  TYR19       0.0560
     48  CG        21.5650   41.5690   14.1500 C.ar   19  TYR19      -0.0198
     49  CD1       21.8440   42.6370   15.0010 C.ar   19  TYR19      -0.0009
     50  CD2       22.6290   40.8690   13.6150 C.ar   19  TYR19      -0.0009
     51  CE1       23.1400   42.9960   15.2990 C.ar   19  TYR19       0.0417
     52  CE2       23.9200   41.2140   13.9070 C.ar   19  TYR19       0.0417
     53  CZ        24.1750   42.2550   14.7570 C.ar   19  TYR19       0.1957
     54  OH        25.4580   42.6080   15.0400 O.3    19  TYR19      -0.2866
     55  N         33.1690   43.3180    8.4460 N.3    51  GLN51      -0.1245
     56  CA        33.1100   44.4970    9.3120 C.3    51  GLN51       0.1566
     57  C         33.8560   45.7060    8.7540 C.2    51  GLN51       0.2260
     58  O         33.5550   46.8490    9.1210 O.2    51  GLN51      -0.2867
     59  CB        33.6240   44.1380   10.7060 C.3    51  GLN51       0.0367
     60  CG        32.8410   42.9930   11.3060 C.3    51  GLN51       0.0905
     61  CD        33.2220   42.6780   12.7360 C.2    51  GLN51       0.2608
     62  OE1       33.9960   43.4040   13.3800 O.2    51  GLN51      -0.2717
     63  NE2       32.6720   41.5850   13.2470 N.am   51  GLN51      -0.0878
     64  N         31.4230   48.1960    7.1800 N.3    54  TRP54      -0.1241
     65  CA        30.2830   48.7440    7.9150 C.3    54  TRP54       0.1605
     66  C         30.2750   50.2690    7.9540 C.2    54  TRP54       0.2264
     67  O         29.2260   50.8890    7.7350 O.2    54  TRP54      -0.2867
     68  CB        30.2160   48.1980    9.3280 C.3    54  TRP54       0.0550
     69  CG        29.8700   46.7400    9.3920 C.ar   54  TRP54       0.0003
     70  CD1       29.5330   45.9170    8.3550 C.ar   54  TRP54       0.0946
     71  CD2       29.8300   45.9450   10.5690 C.ar   54  TRP54       0.0152
     72  NE1       29.2750   44.6500    8.8250 N.ar   54  TRP54      -0.2442
     73  CE2       29.4520   44.6450   10.1840 C.ar   54  TRP54       0.0810
     74  CE3       30.0840   46.2100   11.9140 C.ar   54  TRP54       0.0012
     75  CZ2       29.3120   43.6090   11.0980 C.ar   54  TRP54       0.0191
     76  CZ3       29.9530   45.1720   12.8290 C.ar   54  TRP54       0.0001
     77  CH2       29.5630   43.8930   12.4160 C.ar   54  TRP54       0.0015
     78  N         24.4610   46.7060   18.6590 N.3    74  ASN74      -0.1226
     79  CA        25.6920   46.0040   19.0660 C.3    74  ASN74       0.1770
     80  C         26.7380   47.0100   19.5460 C.2    74  ASN74       0.2439
     81  O         26.7570   48.1930   19.1470 O.2    74  ASN74      -0.2733
     82  CB        26.1870   44.9000   18.0850 C.3    74  ASN74       0.1168
     83  CG        27.3070   45.3300   17.1340 C.2    74  ASN74       0.2627
     84  OD1       28.2100   46.0980   17.4640 O.2    74  ASN74      -0.2716
     85  ND2       27.2660   44.7640   15.9320 N.am   74  ASN74      -0.0877
     86  N         27.5830   46.5650   20.4810 N.am   75  PRO75      -0.2718
     87  CA        28.3490   47.5630   21.2300 C.3    75  PRO75       0.1535
     88  C         29.4930   48.2010   20.4440 C.2    75  PRO75       0.2598
     89  O         30.0780   49.1720   20.9110 O.2    75  PRO75      -0.2715
     90  CB        28.8550   46.7720   22.4450 C.3    75  PRO75       0.0310
     91  CG        28.8190   45.3350   22.0310 C.3    75  PRO75       0.0237
     92  CD        27.6230   45.2380   21.1290 C.3    75  PRO75       0.0939
     93  N         29.8030   47.6760   19.2720 N.am   76  ALA76      -0.1978
     94  CA        30.8360   48.2720   18.4170 C.3    76  ALA76       0.1597
     95  C         30.3150   49.4690   17.6220 C.2    76  ALA76       0.2287
     96  O         31.1000   50.2300   17.0620 O.2    76  ALA76      -0.2864
     97  CB        31.3960   47.2250   17.4610 C.3    76  ALA76       0.0319
     98  N         21.6650   47.8130   22.4120 N.3    97  ASP97      -0.1239
     99  CA        22.8040   46.9950   22.8160 C.3    97  ASP97       0.1674
    100  C         24.1220   47.7550   22.6190 C.2    97  ASP97       0.2266
    101  O         25.0990   47.2180   22.0880 O.2    97  ASP97      -0.2867
    102  CB        22.7800   45.6480   22.0690 C.3    97  ASP97       0.1410
    103  CG        23.8760   44.6840   22.5190 C.2    97  ASP97       0.3668
    104  OD1       24.2960   44.7160   23.6920 O.co2  97  ASP97      -0.2456
    105  OD2       24.3170   43.8710   21.6820 O.co2  97  ASP97      -0.2456
    106  N         23.7540   43.3230   31.1910 N.3   113  GLN113     -0.1245
    107  CA        24.1450   41.9680   30.8580 C.3   113  GLN113      0.1566
    108  C         24.9380   41.2770   31.9670 C.2   113  GLN113      0.2260
    109  O         25.2120   40.0770   31.8740 O.2   113  GLN113     -0.2867
    110  CB        24.8530   41.9280   29.5100 C.3   113  GLN113      0.0367
    111  CG        23.9120   42.3980   28.3940 C.3   113  GLN113      0.0905
    112  CD        24.4170   41.9790   27.0380 C.2   113  GLN113      0.2608
    113  OE1       25.5070   42.3930   26.6250 O.2   113  GLN113     -0.2717
    114  NE2       23.6680   41.1160   26.3590 N.am  113  GLN113     -0.0878
    115  N         32.8370   36.0450   18.4470 N.3   147  GLN147     -0.1245
    116  CA        34.1180   36.7520   18.5060 C.3   147  GLN147      0.1566
    117  C         34.3010   37.2680   19.9190 C.2   147  GLN147      0.2260
    118  O         33.3610   37.3240   20.6880 O.2   147  GLN147     -0.2867
    119  CB        34.1400   37.9480   17.5460 C.3   147  GLN147      0.0367
    120  CG        33.8850   37.5800   16.1370 C.3   147  GLN147      0.0905
    121  CD        33.8310   38.7770   15.2220 C.2   147  GLN147      0.2608
    122  OE1       33.1220   39.8050   15.4800 O.2   147  GLN147     -0.2717
    123  NE2       34.5610   38.6610   14.1060 N.am  147  GLN147     -0.0878
    124  N         35.1120   40.5240   22.2700 N.3   149  TYR149     -0.1241
    125  CA        34.8890   41.9500   22.2370 C.3   149  TYR149      0.1605
    126  C         34.7360   42.4080   23.6800 C.2   149  TYR149      0.2264
    127  O         34.4400   41.5910   24.5620 O.2   149  TYR149     -0.2867
    128  CB        33.6650   42.3340   21.3810 C.3   149  TYR149      0.0534
    129  CG        32.3750   41.6020   21.6440 C.ar  149  TYR149     -0.0201
    130  CD1       32.1770   40.3220   21.1430 C.ar  149  TYR149     -0.0009
    131  CD2       31.3250   42.2070   22.3400 C.ar  149  TYR149     -0.0009
    132  CE1       30.9950   39.6380   21.3600 C.ar  149  TYR149      0.0417
    133  CE2       30.1190   41.5270   22.5480 C.ar  149  TYR149      0.0417
    134  CZ        29.9660   40.2360   22.0440 C.ar  149  TYR149      0.1957
    135  OH        28.8040   39.5160   22.2040 O.3   149  TYR149     -0.2866
    136  N         32.5350   43.8930   25.6660 N.3   151  VAL151     -0.1245
    137  CA        31.3770   43.5100   26.4650 C.3   151  VAL151      0.1561
    138  C         31.4200   42.0230   26.8080 C.2   151  VAL151      0.2260
    139  O         31.0920   41.6280   27.9280 O.2   151  VAL151     -0.2867
    140  CB        30.0550   43.8820   25.7520 C.3   151  VAL151      0.0252
    141  CG1       28.8560   43.1660   26.3560 C.3   151  VAL151      0.0019
    142  CG2       29.8510   45.4000   25.8170 C.3   151  VAL151      0.0019
    143  N         29.9470   39.8000   30.0000 N.3   156  ILE156     -0.1245
    144  CA        29.2150   38.5490   29.8660 C.3   156  ILE156      0.1561
    145  C         29.9710   37.3680   30.4830 C.2   156  ILE156      0.2260
    146  O         29.4070   36.6150   31.2850 O.2   156  ILE156     -0.2867
    147  CB        28.8680   38.2620   28.3820 C.3   156  ILE156      0.0252
    148  CG1       27.9150   39.3280   27.8760 C.3   156  ILE156      0.0019
    149  CG2       28.2590   36.8860   28.2150 C.3   156  ILE156      0.0019
    150  CD1       27.6600   39.3220   26.3700 C.3   156  ILE156      0.0001
    151  N         30.1110   34.9180   13.0120 N.3   181  TRP181     -0.1241
    152  CA        28.7690   34.8310   13.5470 C.3   181  TRP181      0.1605
    153  C         27.8480   33.9960   12.6700 C.2   181  TRP181      0.2264
    154  O         26.6280   34.1690   12.7270 O.2   181  TRP181     -0.2867
    155  CB        28.2050   36.2410   13.7200 C.3   181  TRP181      0.0550
    156  CG        29.0060   37.0440   14.7280 C.ar  181  TRP181      0.0003
    157  CD1       30.0480   37.8950   14.4670 C.ar  181  TRP181      0.0946
    158  CD2       28.8330   37.0500   16.1500 C.ar  181  TRP181      0.0152
    159  NE1       30.5370   38.4130   15.6350 N.ar  181  TRP181     -0.2442
    160  CE2       29.8070   37.9190   16.6840 C.ar  181  TRP181      0.0810
    161  CE3       27.9490   36.4070   17.0210 C.ar  181  TRP181      0.0012
    162  CZ2       29.9130   38.1730   18.0560 C.ar  181  TRP181      0.0191
    163  CZ3       28.0490   36.6540   18.3630 C.ar  181  TRP181      0.0001
    164  CH2       29.0320   37.5100   18.8770 C.ar  181  TRP181      0.0015
    165  N         26.7770   31.9490   22.1080 N.3   205  ILE205     -0.1245
    166  CA        26.5040   33.3260   21.7410 C.3   205  ILE205      0.1561
    167  C         27.3210   33.5640   20.4830 C.2   205  ILE205      0.2260
    168  O         28.3450   34.2520   20.5000 O.2   205  ILE205     -0.2867
    169  CB        26.8820   34.3320   22.8600 C.3   205  ILE205      0.0252
    170  CG1       26.1890   33.9580   24.1870 C.3   205  ILE205      0.0019
    171  CG2       26.4860   35.7570   22.4210 C.3   205  ILE205      0.0019
    172  CD1       26.6890   34.8060   25.3350 C.3   205  ILE205      0.0001
    173  N         25.5320   33.7510   17.1160 N.3   207  GLY207     -0.1225
    174  CA        24.6980   34.1580   15.9930 C.3   207  GLY207      0.1811
    175  C         24.1550   32.9520   15.2480 C.2   207  GLY207      0.2280
    176  O         23.6250   32.0100   15.8550 O.2   207  GLY207     -0.2866
    177  N         20.7510   32.3000   25.2080 N.3   227  PHE227     -0.1227
    178  CA        20.8690   33.7290   25.5040 C.3   227  PHE227      0.1736
    179  C         20.0300   34.5710   24.5460 C.2   227  PHE227      0.2595
    180  O         19.7520   34.1760   23.3960 O.2   227  PHE227     -0.2718
    181  CB        22.3400   34.1570   25.3710 C.3   227  PHE227      0.0547
    182  CG        22.8030   35.2370   26.3460 C.ar  227  PHE227     -0.0202
    183  CD1       22.6660   35.0730   27.7170 C.ar  227  PHE227     -0.0042
    184  CD2       23.4710   36.3740   25.8860 C.ar  227  PHE227     -0.0042
    185  CE1       23.1520   36.0210   28.5990 C.ar  227  PHE227     -0.0003
    186  CE2       23.9700   37.3190   26.7770 C.ar  227  PHE227     -0.0003
    187  CZ        23.8020   37.1370   28.1400 C.ar  227  PHE227     -0.0000
    188  N         19.6320   35.7420   25.0390 N.am  228  ASP228     -0.1974
    189  CA        19.0860   36.8580   24.2460 C.3   228  ASP228      0.1709
    190  C         17.5860   36.7740   23.9670 C.2   228  ASP228      0.2293
    191  O         16.8720   37.7410   24.2260 O.2   228  ASP228     -0.2864
    192  CB        19.8860   37.1230   22.9700 C.3   228  ASP228      0.1436
    193  CG        21.3040   37.5860   23.2670 C.2   228  ASP228      0.3671
    194  OD1       21.4930   38.4320   24.1750 O.co2 228  ASP228     -0.2456
    195  OD2       22.2380   37.1180   22.5910 O.co2 228  ASP228     -0.2456
    196  N         17.2030   39.5290   26.6890 N.3   245  MET245     -0.1245
    197  CA        17.0390   40.9720   26.5950 C.3   245  MET245      0.1570
    198  C         15.7490   41.2330   25.8300 C.2   245  MET245      0.2261
    199  O         15.4550   40.5500   24.8370 O.2   245  MET245     -0.2867
    200  CB        18.2320   41.6210   25.8540 C.3   245  MET245      0.0387
    201  CG        18.5430   40.9810   24.4860 C.3   245  MET245      0.0595
    202  SD        19.4810   42.0070   23.3380 S.3   245  MET245     -0.1393
    203  CE        21.1080   41.9170   24.0840 C.3   245  MET245      0.0692
@<TRIPOS>BOND
     1    20    22   ar
     2    20    18   ar
     3    22    21   ar
     4    18    17   ar
     5    21    19   ar
     6    64    65    1
     7    17    19   ar
     8    17    16    1
     9    67    66    2
    10    65    66    1
    11    65    68    1
    12    11    10    2
    13    16    13    1
    14    70    72   ar
    15    70    69   ar
    16    55    56    1
    17    57    58    2
    18    57    56    1
    19    72    73   ar
    20    13    12    1
    21    13    14    1
    22    10    12   am
    23    10     9    1
    24    56    59    1
    25    68    69    1
    26    69    71   ar
    27     9     8    1
    28    14    15    2
    29     8     3   am
    30    73    71   ar
    31    73    75   ar
    32    71    74   ar
    33    59    60    1
    34    75    77   ar
    35     3     2    1
    36     3     4    2
    37     2     1    1
    38     2     5    1
    39    60    61    1
    40     1     7    1
    41    74    76   ar
    42    77    76   ar
    43     5     6    1
    44   153   154    2
    45   153   152    1
    46     7     6    1
    47    61    63   am
    48    61    62    2
    49   151   152    1
    50   152   155    1
    51    50    52   ar
    52    50    48   ar
    53    28    27    1
    54   155   156    1
    55    47    48    1
    56    47    44    1
    57    52    53   ar
    58    46    45    2
    59    23    24    1
    60   123   121   am
    61    48    49   ar
    62    27    24    1
    63   157   156   ar
    64   157   159   ar
    65    45    44    1
    66   156   158   ar
    67    53    54    1
    68    53    51   ar
    69    44    43    1
    70    24    25    1
    71    49    51   ar
    72   121   122    2
    73   121   120    1
    74   175   176    2
    75   175   174    1
    76    26    25    2
    77   159   160   ar
    78    25    29   am
    79    85    83   am
    80   174   173    1
    81   120   119    1
    82   158   160   ar
    83   158   161   ar
    84    43    38   am
    85   160   162   ar
    86   161   163   ar
    87    96    95    2
    88    29    35    1
    89    29    30    1
    90    83    84    2
    91    83    82    1
    92    38    39    2
    93    38    37    1
    94    97    94    1
    95   119   116    1
    96    95    94    1
    97    35    34    1
    98    42    40    1
    99    30    31    1
   100    30    33    1
   101    32    31    2
   102   162   164   ar
   103    82    79    1
   104    31    36   am
   105   163   164   ar
   106    36    37    1
   107    94    93    1
   108   115   116    1
   109   116   117    1
   110    37    40    1
   111    78    79    1
   112    34    33    1
   113    40    41    1
   114    79    80    1
   115    81    80    2
   116    93    88   am
   117    80    86   am
   118   117   118    2
   119    88    89    2
   120    88    87    1
   121    86    92    1
   122    86    87    1
   123   167   168    2
   124   167   166    1
   125    92    91    1
   126   130   132   ar
   127   130   129   ar
   128    87    90    1
   129   132   134   ar
   130   128   129    1
   131   128   125    1
   132   129   131   ar
   133   105   103   ar
   134   166   165    1
   135   166   169    1
   136    91    90    1
   137   134   135    1
   138   134   133   ar
   139   102   103    1
   140   102    99    1
   141   101   100    2
   142   125   124    1
   143   125   126    1
   144   131   133   ar
   145    98    99    1
   146   171   169    1
   147   103   104   ar
   148   195   193   ar
   149   100    99    1
   150   169   170    1
   151   192   193    1
   152   192   189    1
   153   193   194   ar
   154   202   203    1
   155   202   201    1
   156   180   179    2
   157   126   127    2
   158   190   191    2
   159   190   189    1
   160   170   172    1
   161   189   188    1
   162   201   200    1
   163   179   188   am
   164   179   178    1
   165   199   198    2
   166   177   178    1
   167   181   178    1
   168   181   182    1
   169   136   137    1
   170   140   142    1
   171   140   141    1
   172   140   137    1
   173   198   197    1
   174   200   197    1
   175   184   182   ar
   176   184   186   ar
   177   182   183   ar
   178   114   112   am
   179   150   148    1
   180   137   138    1
   181   197   196    1
   182   113   112    2
   183   186   187   ar
   184   138   139    2
   185   112   111    1
   186   183   185   ar
   187   148   147    1
   188   187   185   ar
   189   149   147    1
   190   147   144    1
   191   111   110    1
   192   110   107    1
   193   144   143    1
   194   144   145    1
   195   145   146    2
   196   107   106    1
   197   107   108    1
   198   109   108    2
