@<TRIPOS>MOLECULE
tmp/4iioB00.pdb
 107 107 0 0 0
SMALL
GASTEIGER

@<TRIPOS>ATOM
      1  N          9.5850   21.4060   21.7100 N.3    15  LYS15      -0.1231
      2  CA         8.2900   20.7590   21.8800 C.3    15  LYS15       0.1693
      3  C          7.1930   21.5620   21.1770 C.2    15  LYS15       0.2592
      4  O          7.4330   22.6690   20.6940 O.2    15  LYS15      -0.2718
      5  CB         7.9820   20.5640   23.3730 C.3    15  LYS15       0.0285
      6  CG         8.9220   19.5650   24.0090 C.3    15  LYS15       0.0035
      7  CD         8.2460   18.8570   25.1410 C.3    15  LYS15       0.0206
      8  CE         8.1440   19.7770   26.3380 C.3    15  LYS15       0.1093
      9  NZ         9.5140   20.1560   26.8270 N.3    15  LYS15      -0.1314
     10  N          5.9920   21.0010   21.1220 N.am   16  ASP16      -0.1960
     11  CA         4.8910   21.6100   20.3770 C.3    16  ASP16       0.1840
     12  C          4.3930   22.9340   20.9740 C.2    16  ASP16       0.2622
     13  O          3.7110   23.7000   20.2930 O.2    16  ASP16      -0.2715
     14  CB         3.7300   20.6100   20.2050 C.3    16  ASP16       0.1450
     15  CG         3.0770   20.2040   21.5310 C.2    16  ASP16       0.3671
     16  OD1        3.6190   20.5010   22.6170 O.co2  16  ASP16      -0.2456
     17  OD2        2.0070   19.5560   21.4840 O.co2  16  ASP16      -0.2456
     18  N          4.7400   23.1970   22.2360 N.am   17  ASN17      -0.1958
     19  CA         4.3340   24.4420   22.9000 C.3    17  ASN17       0.1819
     20  C          5.5270   25.3410   23.2630 C.2    17  ASN17       0.2621
     21  O          5.4500   26.1840   24.1730 O.2    17  ASN17      -0.2715
     22  CB         3.4530   24.1470   24.1250 C.3    17  ASN17       0.1195
     23  CG         4.2310   23.5280   25.2660 C.2    17  ASN17       0.2630
     24  OD1        5.2360   22.8590   25.0460 O.2    17  ASN17      -0.2716
     25  ND2        3.7750   23.7590   26.4990 N.am   17  ASN17      -0.0877
     26  N          6.6310   25.1500   22.5460 N.am   18  HIS18      -0.1973
     27  CA         7.7540   26.0750   22.6330 C.3    18  HIS18       0.1656
     28  C          7.6700   27.1590   21.5620 C.2    18  HIS18       0.2291
     29  O          7.1920   26.9310   20.4330 O.2    18  HIS18      -0.2864
     30  CB         9.0790   25.3190   22.5280 C.3    18  HIS18       0.0771
     31  CG         9.4070   24.4960   23.7370 C.ar   18  HIS18       0.0820
     32  ND1       10.5790   23.7780   23.8430 N.ar   18  HIS18      -0.2267
     33  CD2        8.7290   24.2830   24.8890 C.ar   18  HIS18       0.1154
     34  CE1       10.6040   23.1520   25.0070 C.ar   18  HIS18       0.1986
     35  NE2        9.4940   23.4400   25.6620 N.ar   18  HIS18      -0.2212
     36  N          4.6320   35.3160   31.1990 N.3    31  GLU31      -0.1245
     37  CA         4.9720   34.7250   32.4960 C.3    31  GLU31       0.1567
     38  C          6.4420   34.3610   32.6070 C.2    31  GLU31       0.2260
     39  O          7.0680   33.9620   31.6260 O.2    31  GLU31      -0.2867
     40  CB         4.1330   33.4760   32.7520 C.3    31  GLU31       0.0388
     41  CG         4.2970   32.9030   34.1560 C.3    31  GLU31       0.1160
     42  CD         3.0090   32.3170   34.6830 C.2    31  GLU31       0.3649
     43  OE1        2.0320   33.0850   34.8260 O.co2  31  GLU31      -0.2457
     44  OE2        2.9800   31.1020   34.9570 O.co2  31  GLU31      -0.2457
     45  N          8.7350   31.7580   34.7260 N.3    33  GLN33      -0.1245
     46  CA         8.7690   30.5830   35.5910 C.3    33  GLN33       0.1566
     47  C         10.2060   30.1040   35.7460 C.2    33  GLN33       0.2260
     48  O         10.6250   29.1180   35.1170 O.2    33  GLN33      -0.2867
     49  CB         7.8750   29.4740   35.0250 C.3    33  GLN33       0.0367
     50  CG         7.7570   28.2450   35.9100 C.3    33  GLN33       0.0905
     51  CD         6.8730   27.1780   35.2960 C.2    33  GLN33       0.2608
     52  OE1        5.6520   27.3280   35.2400 O.2    33  GLN33      -0.2717
     53  NE2        7.4850   26.0910   34.8400 N.am   33  GLN33      -0.0878
     54  N         12.4200   29.1860   32.5840 N.3    36  TRP36      -0.1241
     55  CA        11.5850   29.1610   31.3900 C.3    36  TRP36       0.1605
     56  C         10.5770   30.3010   31.4390 C.2    36  TRP36       0.2264
     57  O          9.9460   30.5480   32.4710 O.2    36  TRP36      -0.2867
     58  CB        10.8370   27.8340   31.2910 C.3    36  TRP36       0.0550
     59  CG        11.6850   26.6780   30.8820 C.ar   36  TRP36       0.0003
     60  CD1       12.3530   25.8180   31.7090 C.ar   36  TRP36       0.0946
     61  CD2       11.9360   26.2300   29.5430 C.ar   36  TRP36       0.0152
     62  NE1       13.0100   24.8600   30.9620 N.ar   36  TRP36      -0.2442
     63  CE2       12.7750   25.0930   29.6320 C.ar   36  TRP36       0.0810
     64  CE3       11.5260   26.6700   28.2770 C.ar   36  TRP36       0.0012
     65  CZ2       13.2220   24.3990   28.4990 C.ar   36  TRP36       0.0191
     66  CZ3       11.9750   25.9790   27.1450 C.ar   36  TRP36       0.0001
     67  CH2       12.8110   24.8520   27.2690 C.ar   36  TRP36       0.0015
     68  N          7.1780   32.2380   29.3640 N.3    38  PHE38      -0.1241
     69  CA         6.0920   32.0640   28.4080 C.3    38  PHE38       0.1605
     70  C          5.8160   33.4130   27.7620 C.2    38  PHE38       0.2264
     71  O          5.7070   34.4230   28.4550 O.2    38  PHE38      -0.2867
     72  CB         4.8400   31.5380   29.1130 C.3    38  PHE38       0.0534
     73  CG         3.7380   31.1520   28.1620 C.ar   38  PHE38      -0.0203
     74  CD1        3.8130   29.9550   27.4540 C.ar   38  PHE38      -0.0042
     75  CD2        2.6360   31.9950   27.9620 C.ar   38  PHE38      -0.0042
     76  CE1        2.8030   29.5840   26.5650 C.ar   38  PHE38      -0.0003
     77  CE2        1.6260   31.6330   27.0750 C.ar   38  PHE38      -0.0003
     78  CZ         1.7130   30.4340   26.3760 C.ar   38  PHE38      -0.0000
     79  N          2.4530   31.7520   20.3400 N.3    45  ARG45      -0.1231
     80  CA         2.7110   31.6900   21.7870 C.3    45  ARG45       0.1694
     81  C          3.5610   30.4680   22.1210 C.2    45  ARG45       0.2593
     82  O          3.5910   29.4920   21.3640 O.2    45  ARG45      -0.2718
     83  CB         1.3940   31.5640   22.5420 C.3    45  ARG45       0.0321
     84  CG         0.5110   32.7920   22.4650 C.3    45  ARG45       0.0489
     85  CD         0.6420   33.6240   23.7180 C.3    45  ARG45       0.2205
     86  NE        -0.2910   34.7410   23.6990 N.pl3  45  ARG45      -0.0865
     87  CZ        -1.5900   34.6460   23.9540 C.cat  45  ARG45       0.5346
     88  NH1       -2.1500   33.4730   24.2470 N.pl3  45  ARG45       0.1354
     89  NH2       -2.3310   35.7350   23.9070 N.pl3  45  ARG45       0.1354
     90  N          4.2520   30.5210   23.2560 N.am   46  GLY46      -0.1942
     91  CA         4.9930   29.3630   23.7210 C.3    46  GLY46       0.2014
     92  C          6.0560   29.6640   24.7500 C.2    46  GLY46       0.2638
     93  O          6.3230   30.8250   25.0870 O.2    46  GLY46      -0.2714
     94  N          6.6640   28.5870   25.2280 N.am   47  TRP47      -0.1973
     95  CA         7.7260   28.6510   26.2280 C.3    47  TRP47       0.1640
     96  C          9.0980   28.7440   25.5710 C.2    47  TRP47       0.2290
     97  O          9.2890   28.2900   24.4480 O.2    47  TRP47      -0.2864
     98  CB         7.6810   27.3860   27.0830 C.3    47  TRP47       0.0576
     99  CG         6.4290   27.2770   27.8870 C.ar   47  TRP47       0.0006
    100  CD1        5.2620   26.6470   27.5250 C.ar   47  TRP47       0.0946
    101  CD2        6.2060   27.8200   29.1930 C.ar   47  TRP47       0.0152
    102  NE1        4.3330   26.7630   28.5350 N.ar   47  TRP47      -0.2442
    103  CE2        4.8850   27.4740   29.5700 C.ar   47  TRP47       0.0810
    104  CE3        6.9980   28.5580   30.0880 C.ar   47  TRP47       0.0012
    105  CZ2        4.3340   27.8560   30.7970 C.ar   47  TRP47       0.0191
    106  CZ3        6.4540   28.9320   31.3110 C.ar   47  TRP47       0.0001
    107  CH2        5.1280   28.5740   31.6570 C.ar   47  TRP47       0.0015
@<TRIPOS>BOND
     1    14    11    1
     2    14    15    1
     3    13    12    2
     4    79    80    1
     5    11    12    1
     6    11    10    1
     7    29    28    2
     8     4     3    2
     9    12    18   am
    10    10     3   am
    11     3     2    1
    12    82    81    2
    13    17    15   ar
    14    15    16   ar
    15    28    27    1
    16     1     2    1
    17    80    81    1
    18    80    83    1
    19     2     5    1
    20    81    90   am
    21    18    19    1
    22    84    83    1
    23    84    85    1
    24    30    27    1
    25    30    31    1
    26    26    27    1
    27    26    20   am
    28    19    20    1
    29    19    22    1
    30    90    91    1
    31    20    21    2
    32     5     6    1
    33    86    85    1
    34    86    87    2
    35    91    92    1
    36    31    32   ar
    37    31    33   ar
    38    32    34   ar
    39    89    87    1
    40    87    88    1
    41     6     7    1
    42    22    23    1
    43    97    96    2
    44    92    93    2
    45    92    94   am
    46    33    35   ar
    47    34    35   ar
    48    24    23    2
    49     7     8    1
    50    94    95    1
    51    23    25   am
    52    96    95    1
    53    95    98    1
    54     8     9    1
    55    78    76   ar
    56    78    77   ar
    57    76    74   ar
    58    77    75   ar
    59    98    99    1
    60    66    67   ar
    61    66    64   ar
    62    67    65   ar
    63    74    73   ar
    64   100    99   ar
    65   100   102   ar
    66    70    69    1
    67    70    71    2
    68    99   101   ar
    69    75    73   ar
    70    73    72    1
    71    64    61   ar
    72    69    72    1
    73    69    68    1
    74    65    63   ar
    75   102   103   ar
    76   101   103   ar
    77   101   104   ar
    78    61    63   ar
    79    61    59   ar
    80   103   105   ar
    81    63    62   ar
    82   104   106   ar
    83   105   107   ar
    84    59    58    1
    85    59    60   ar
    86    62    60   ar
    87    36    37    1
    88    58    55    1
    89   106   107   ar
    90    55    56    1
    91    55    54    1
    92    56    57    2
    93    39    38    2
    94    37    38    1
    95    37    40    1
    96    40    41    1
    97    41    42    1
    98    42    43   ar
    99    42    44   ar
   100    45    46    1
   101    53    51   am
   102    49    46    1
   103    49    50    1
   104    48    47    2
   105    52    51    2
   106    51    50    1
   107    46    47    1
