@<TRIPOS>MOLECULE
tmp/4iirA00.pdb
 180 166 0 0 0
SMALL
GASTEIGER

@<TRIPOS>ATOM
      1  N         -0.5680   -2.9680   21.1490 N.3    26  THR26      -0.1203
      2  CA        -0.2210   -3.3150   19.7670 C.3    26  THR26       0.1994
      3  C          0.6100   -2.1720   19.1580 C.2    26  THR26       0.2618
      4  O          1.5650   -2.4280   18.4210 O.2    26  THR26      -0.2717
      5  CB        -1.4730   -3.6420   18.9240 C.3    26  THR26       0.1784
      6  OG1       -2.4230   -4.3710   19.7030 O.3    26  THR26      -0.2211
      7  CG2       -1.1360   -4.4380   17.6740 C.3    26  THR26       0.0376
      8  N          0.2300   -0.9360   19.4860 N.am   27  GLY27      -0.1942
      9  CA         0.8730    0.2900   19.0270 C.3    27  GLY27       0.2014
     10  C          0.1910    1.5190   19.5930 C.2    27  GLY27       0.2638
     11  O         -1.0170    1.6930   19.4080 O.2    27  GLY27      -0.2714
     12  N          0.9590    2.3740   20.2970 N.am   28  GLN28      -0.1977
     13  CA         0.4410    3.5910   20.9270 C.3    28  GLN28       0.1601
     14  C          0.4920    4.8330   20.0100 C.2    28  GLN28       0.2287
     15  O         -0.0080    4.7620   18.8860 O.2    28  GLN28      -0.2864
     16  CB         1.0900    3.8270   22.3040 C.3    28  GLN28       0.0394
     17  CG         0.0650    4.0020   23.4200 C.3    28  GLN28       0.0908
     18  CD         0.6870    4.4490   24.7190 C.2    28  GLN28       0.2608
     19  OE1        1.4090    3.6990   25.3870 O.2    28  GLN28      -0.2717
     20  NE2        0.3880    5.6740   25.1250 N.am   28  GLN28      -0.0878
     21  N         -3.4990    7.1710   16.1590 N.3    30  SER30      -0.1217
     22  CA        -4.4900    6.4990   16.9980 C.3    30  SER30       0.1889
     23  C         -3.8860    5.2870   17.7030 C.2    30  SER30       0.2288
     24  O         -3.1180    4.5380   17.0930 O.2    30  SER30      -0.2866
     25  CB        -5.6940    6.0660   16.1660 C.3    30  SER30       0.2089
     26  OG        -6.2120    7.1360   15.3920 O.3    30  SER30      -0.2183
     27  N         -4.0180    1.6020   19.1880 N.3    32  VAL32      -0.1245
     28  CA        -4.7230    0.3430   18.9290 C.3    32  VAL32       0.1561
     29  C         -4.4420   -0.6380   20.0650 C.2    32  VAL32       0.2260
     30  O         -3.2890   -1.0160   20.2920 O.2    32  VAL32      -0.2867
     31  CB        -4.4160   -0.2540   17.5260 C.3    32  VAL32       0.0252
     32  CG1       -5.1800   -1.5580   17.2960 C.3    32  VAL32       0.0019
     33  CG2       -4.7290    0.7480   16.4160 C.3    32  VAL32       0.0019
     34  N         -5.6600   -4.3560   22.3100 N.3    34  ARG34      -0.1245
     35  CA        -6.2570   -5.6850   22.2150 C.3    34  ARG34       0.1563
     36  C         -7.2320   -5.8280   23.3740 C.2    34  ARG34       0.2260
     37  O         -6.8790   -5.5170   24.5160 O.2    34  ARG34      -0.2867
     38  CB        -5.1900   -6.7910   22.2730 C.3    34  ARG34       0.0307
     39  CG        -4.3640   -6.9160   21.0040 C.3    34  ARG34       0.0489
     40  CD        -3.5420   -8.1900   20.9970 C.3    34  ARG34       0.2205
     41  NE        -2.6310   -8.2390   19.8520 N.pl3  34  ARG34      -0.0865
     42  CZ        -2.9340   -8.7630   18.6680 C.cat  34  ARG34       0.5346
     43  NH1       -4.1320   -9.2940   18.4540 N.pl3  34  ARG34       0.1354
     44  NH2       -2.0420   -8.7580   17.6870 N.pl3  34  ARG34       0.1354
     45  N         -9.8970   -5.9110   18.3670 N.3    46  ALA46      -0.1245
     46  CA        -8.8960   -4.8550   18.3090 C.3    46  ALA46       0.1562
     47  C         -9.6600   -3.5370   18.3440 C.2    46  ALA46       0.2260
     48  O        -10.5660   -3.3310   17.5280 O.2    46  ALA46      -0.2867
     49  CB        -8.0890   -4.9630   17.0300 C.3    46  ALA46       0.0290
     50  N         -9.3910    0.5110   18.0480 N.3    48  LYS48      -0.1245
     51  CA        -8.6310    1.6710   17.5920 C.3    48  LYS48       0.1561
     52  C         -9.2380    2.9120   18.2410 C.2    48  LYS48       0.2260
     53  O        -10.4000    3.2340   17.9910 O.2    48  LYS48      -0.2867
     54  CB        -8.6670    1.7720   16.0580 C.3    48  LYS48       0.0271
     55  CG        -7.8350    2.9070   15.4670 C.3    48  LYS48       0.0035
     56  CD        -7.7680    2.7890   13.9510 C.3    48  LYS48       0.0206
     57  CE        -7.0710    3.9600   13.3080 C.3    48  LYS48       0.1093
     58  NZ        -6.7010    3.6670   11.8990 N.3    48  LYS48      -0.1314
     59  N        -10.0430   -5.0180    5.8530 N.3    82  LEU82      -0.1245
     60  CA       -10.2930   -5.0680    7.2970 C.3    82  LEU82       0.1561
     61  C        -11.7820   -4.9490    7.6330 C.2    82  LEU82       0.2260
     62  O        -12.4840   -4.1230    7.0470 O.2    82  LEU82      -0.2867
     63  CB        -9.4620   -3.9860    8.0180 C.3    82  LEU82       0.0270
     64  CG        -9.5620   -3.8670    9.5470 C.3    82  LEU82       0.0019
     65  CD1       -9.0520   -5.1150   10.2470 C.3    82  LEU82       0.0001
     66  CD2       -8.7930   -2.6630   10.0330 C.3    82  LEU82       0.0001
     67  N        -12.5470   -3.5640   15.6400 N.3    98  PHE98      -0.1227
     68  CA       -12.1110   -4.3460   14.4890 C.3    98  PHE98       0.1736
     69  C        -11.9580   -5.8170   14.8050 C.2    98  PHE98       0.2598
     70  O        -11.8430   -6.2000   15.9740 O.2    98  PHE98      -0.2717
     71  CB       -10.7610   -3.8180   13.9730 C.3    98  PHE98       0.0547
     72  CG       -10.7840   -2.4320   13.3880 C.ar   98  PHE98      -0.0202
     73  CD1      -11.5650   -2.1420   12.2760 C.ar   98  PHE98      -0.0042
     74  CD2       -9.9730   -1.4300   13.9040 C.ar   98  PHE98      -0.0042
     75  CE1      -11.5660   -0.8640   11.7190 C.ar   98  PHE98      -0.0003
     76  CE2       -9.9690   -0.1540   13.3380 C.ar   98  PHE98      -0.0003
     77  CZ       -10.7700    0.1220   12.2550 C.ar   98  PHE98      -0.0000
     78  N        -11.9010   -6.6380   13.7390 N.am   99  GLU99      -0.1934
     79  CA       -11.6400   -8.0690   13.8190 C.3    99  GLU99       0.1818
     80  C        -10.2120   -8.2490   14.3610 C.2    99  GLU99       0.2332
     81  O         -9.3530   -7.4160   14.0510 O.2    99  GLU99      -0.2860
     82  CB       -11.8030   -8.7440   12.4370 C.2    99  GLU99       0.0097
     83  CG       -10.8270   -8.2940   11.3560 C.2    99  GLU99       0.0837
     84  CD       -10.8460   -9.0850   10.0630 C.2    99  GLU99       0.3877
     85  OE1      -10.8760  -10.3360   10.1220 O.co2  99  GLU99      -0.2406
     86  OE2      -10.7740   -8.4510    8.9860 O.co2  99  GLU99      -0.2406
     87  N         -6.4120   -9.4410   14.5760 N.3   101  LEU101     -0.1231
     88  CA        -5.3740   -9.9220   13.6630 C.3   101  LEU101      0.1693
     89  C         -4.0290  -10.0070   14.3900 C.2   101  LEU101      0.2593
     90  O         -3.8300   -9.3180   15.3940 O.2   101  LEU101     -0.2718
     91  CB        -5.2960   -9.0730   12.3820 C.3   101  LEU101      0.0284
     92  CG        -6.4630   -9.2250   11.3900 C.3   101  LEU101      0.0019
     93  CD1       -6.5740   -8.0160   10.4890 C.3   101  LEU101      0.0001
     94  CD2       -6.3340  -10.4920   10.5550 C.3   101  LEU101      0.0001
     95  N         -3.1320  -10.8870   13.9140 N.am  102  SER102     -0.1938
     96  CA        -1.8360  -11.1510   14.5360 C.3   102  SER102      0.2055
     97  C         -0.8070  -10.0160   14.4620 C.2   102  SER102      0.2643
     98  O         -0.5360   -9.3870   15.4860 O.2   102  SER102     -0.2714
     99  CB        -1.2540  -12.4720   14.0350 C.3   102  SER102      0.2130
    100  OG        -0.0790  -12.8330   14.7410 O.3   102  SER102     -0.2179
    101  N         -0.2020   -9.7890   13.2740 N.am  103  MET103     -0.1962
    102  CA         0.8560   -8.7920   13.0460 C.3   103  MET103      0.1736
    103  C          0.6790   -8.1080   11.6930 C.2   103  MET103      0.2616
    104  O         -0.0020   -8.6460   10.8170 O.2   103  MET103     -0.2715
    105  CB         2.2390   -9.4870   12.9810 C.3   103  MET103      0.0427
    106  CG         2.6180  -10.3360   14.1760 C.3   103  MET103      0.0599
    107  SD         3.7870  -11.6350   13.6860 S.3   103  MET103     -0.1393
    108  CE         5.3170  -10.7250   13.6850 C.3   103  MET103      0.0692
    109  N          1.3750   -6.9730   11.4880 N.am  104  ASN104     -0.1972
    110  CA         1.4110   -6.3120   10.1860 C.3   104  ASN104      0.1688
    111  C          2.5780   -6.9210    9.3740 C.2   104  ASN104      0.2292
    112  O          3.4070   -7.6250    9.9600 O.2   104  ASN104     -0.2864
    113  CB         1.4960   -4.7800   10.3060 C.3   104  ASN104      0.1181
    114  CG         2.6920   -4.2140   11.0340 C.2   104  ASN104      0.2629
    115  OD1        3.8490   -4.5270   10.7410 O.2   104  ASN104     -0.2716
    116  ND2        2.4390   -3.2660   11.9230 N.am  104  ASN104     -0.0877
    117  N          6.2320   -6.2070   10.5690 N.3   107  GLU107     -0.1245
    118  CA         6.5740   -7.0190   11.7360 C.3   107  GLU107      0.1567
    119  C          6.9880   -8.4370   11.3380 C.2   107  GLU107      0.2260
    120  O          7.9280   -8.9700   11.9270 O.2   107  GLU107     -0.2867
    121  CB         5.4150   -7.0490   12.7460 C.3   107  GLU107      0.0388
    122  CG         5.2540   -5.7540   13.5290 C.3   107  GLU107      0.1160
    123  CD         3.9910   -5.6290   14.3620 C.2   107  GLU107      0.3649
    124  OE1        4.1030   -5.2200   15.5400 O.co2 107  GLU107     -0.2457
    125  OE2        2.8900   -5.9110   13.8360 O.co2 107  GLU107     -0.2457
    126  N         -2.2430    4.6880    1.0770 N.3   146  ASP146     -0.1239
    127  CA        -1.2180    4.3380    2.0700 C.3   146  ASP146      0.1674
    128  C         -0.8930    2.8410    2.1410 C.2   146  ASP146      0.2266
    129  O         -0.5960    2.3260    3.2230 O.2   146  ASP146     -0.2867
    130  CB        -1.4980    4.9420    3.4670 C.3   146  ASP146      0.1410
    131  CG        -0.2450    5.3130    4.2510 C.2   146  ASP146      0.3668
    132  OD1       -0.3220    5.3780    5.4950 O.co2 146  ASP146     -0.2456
    133  OD2        0.8120    5.5340    3.6180 O.co2 146  ASP146     -0.2456
    134  N          1.2850   -0.1800    2.1620 N.3   148  LYS148     -0.1245
    135  CA         2.6650   -0.4800    2.5600 C.3   148  LYS148      0.1561
    136  C          2.6600   -1.6510    3.5590 C.2   148  LYS148      0.2260
    137  O          1.6150   -1.8770    4.1740 O.2   148  LYS148     -0.2867
    138  CB         3.3590    0.7720    3.1580 C.3   148  LYS148      0.0271
    139  CG         2.6650    1.4210    4.3500 C.3   148  LYS148      0.0035
    140  CD         3.4410    2.6430    4.8170 C.3   148  LYS148      0.0206
    141  CE         2.8730    3.2410    6.0760 C.3   148  LYS148      0.1093
    142  NZ         3.6630    4.4170    6.5230 N.3   148  LYS148     -0.1314
    143  N          3.3830   -1.9790    6.6020 N.3   150  ASP150     -0.1225
    144  CA         2.8940   -1.5390    7.9160 C.3   150  ASP150      0.1805
    145  C          1.3580   -1.5300    7.9870 C.2   150  ASP150      0.2597
    146  O          0.8010   -1.7260    9.0670 O.2   150  ASP150     -0.2718
    147  CB         3.4280   -0.1350    8.2570 C.3   150  ASP150      0.1424
    148  CG         4.9100    0.0470    8.0040 C.2   150  ASP150      0.3668
    149  OD1        5.2830    0.3230    6.8420 O.co2 150  ASP150     -0.2456
    150  OD2        5.6950   -0.0820    8.9660 O.co2 150  ASP150     -0.2456
    151  N          0.6830   -1.2870    6.8440 N.am  151  ASN151     -0.1974
    152  CA        -0.7770   -1.2060    6.7610 C.3   151  ASN151      0.1688
    153  C         -1.4840   -2.4600    6.2350 C.2   151  ASN151      0.2292
    154  O         -2.6790   -2.4150    5.9280 O.2   151  ASN151     -0.2864
    155  CB        -1.2110    0.0630    6.0220 C.3   151  ASN151      0.1181
    156  CG        -0.8240    1.3340    6.7390 C.2   151  ASN151      0.2629
    157  OD1       -0.6580    1.3670    7.9650 O.2   151  ASN151     -0.2716
    158  ND2       -0.6620    2.4100    5.9880 N.am  151  ASN151     -0.0877
    159  N         -2.2240   -6.3380    7.4470 N.3   153  LEU153     -0.1245
    160  CA        -2.1860   -7.2440    8.5890 C.3   153  LEU153      0.1561
    161  C         -2.4670   -8.6710    8.2070 C.2   153  LEU153      0.2260
    162  O         -3.1480   -8.9240    7.2170 O.2   153  LEU153     -0.2867
    163  CB        -3.1160   -6.7710    9.7090 C.3   153  LEU153      0.0270
    164  CG        -2.4290   -5.9690   10.8090 C.3   153  LEU153      0.0019
    165  CD1       -2.2210   -4.5320   10.4060 C.3   153  LEU153      0.0001
    166  CD2       -3.2010   -6.0420   12.0820 C.3   153  LEU153      0.0001
    167  N         -5.4550   -2.7390    5.9520 N.3   164  CYS164     -0.1221
    168  CA        -5.8930   -1.9550    7.1060 C.3   164  CYS164      0.1808
    169  C         -5.5180   -0.4700    6.9750 C.2   164  CYS164      0.2601
    170  O         -4.9120   -0.0750    5.9770 O.2   164  CYS164     -0.2717
    171  CB        -5.3480   -2.5680    8.3950 C.3   164  CYS164      0.0970
    172  SG        -5.7360   -4.3280    8.6040 S.3   164  CYS164     -0.0800
    173  N         -5.8820    0.3490    7.9950 N.am  165  ASP165     -0.1973
    174  CA        -5.6280    1.7880    8.1000 C.3   165  ASP165      0.1709
    175  C         -6.1710    2.6030    6.9280 C.2   165  ASP165      0.2293
    176  O         -5.4420    2.9200    5.9860 O.2   165  ASP165     -0.2864
    177  CB        -4.1510    2.1030    8.4200 C.3   165  ASP165      0.1436
    178  CG        -3.8670    3.5760    8.6630 C.2   165  ASP165      0.3671
    179  OD1       -4.6480    4.2210    9.3990 O.co2 165  ASP165     -0.2456
    180  OD2       -2.8680    4.0840    8.1130 O.co2 165  ASP165     -0.2456
@<TRIPOS>BOND
     1   126   127    1
     2   127   128    1
     3   127   130    1
     4   128   129    2
     5   134   135    1
     6   135   138    1
     7   135   136    1
     8   138   139    1
     9   130   131    1
    10   136   137    2
    11   133   131   ar
    12   131   132   ar
    13   139   140    1
    14   140   141    1
    15    59    60    1
    16   154   153    2
    17   167   168    1
    18   170   169    2
    19   176   175    2
    20   158   156   am
    21   155   156    1
    22   155   152    1
    23   141   142    1
    24   153   152    1
    25   143   144    1
    26   156   157    2
    27   152   151    1
    28   149   148   ar
    29   151   145   am
    30   175   174    1
    31   169   168    1
    32   169   173   am
    33    62    61    2
    34   168   171    1
    35   162   161    2
    36    60    61    1
    37    60    63    1
    38   159   160    1
    39   144   145    1
    40   144   147    1
    41   145   146    2
    42   173   174    1
    43   148   147    1
    44   148   150   ar
    45    63    64    1
    46   174   177    1
    47   180   178   ar
    48   161   160    1
    49   171   172    1
    50   177   178    1
    51   160   163    1
    52   178   179   ar
    53    86    84   ar
    54   111   112    2
    55   111   110    1
    56    64    66    1
    57    64    65    1
    58   163   164    1
    59    84    85   ar
    60    84    83    1
    61   110   113    1
    62   110   109    1
    63   113   114    1
    64   165   164    1
    65    93    92    1
    66    94    92    1
    67   117   118    1
    68   115   114    2
    69   164   166    1
    70   104   103    2
    71   114   116   am
    72   119   118    1
    73   119   120    2
    74    83    82    2
    75    92    91    1
    76   109   103   am
    77   103   102    1
    78    75    77   ar
    79    75    73   ar
    80   118   121    1
    81    58    57    1
    82    77    76   ar
    83    73    72   ar
    84    91    88    1
    85    82    79    1
    86   121   122    1
    87   105   102    1
    88   105   106    1
    89   102   101    1
    90   101    97   am
    91    57    56    1
    92    76    74   ar
    93    72    74   ar
    94    72    71    1
    95   122   123    1
    96    88    89    1
    97    88    87    1
    98   108   107    1
    99   107   106    1
   100    78    79    1
   101    78    69   am
   102    79    80    1
   103   125   123   ar
   104    95    89   am
   105    95    96    1
   106    56    55    1
   107    71    68    1
   108    99    96    1
   109    99   100    1
   110    81    80    2
   111   123   124   ar
   112    89    90    2
   113    97    96    1
   114    97    98    2
   115    68    69    1
   116    68    67    1
   117    69    70    2
   118    26    25    1
   119    55    54    1
   120    54    51    1
   121    21    22    1
   122    25    22    1
   123    33    31    1
   124    22    23    1
   125    49    46    1
   126    24    23    2
   127    32    31    1
   128    31    28    1
   129    48    47    2
   130    51    50    1
   131    51    52    1
   132     7     5    1
   133    44    42    1
   134    53    52    2
   135    46    47    1
   136    46    45    1
   137     4     3    2
   138    43    42    1
   139    42    41    2
   140    15    14    2
   141     5     6    1
   142     5     2    1
   143    28    27    1
   144    28    29    1
   145     9     8    1
   146     9    10    1
   147     3     8   am
   148     3     2    1
   149    11    10    2
   150    10    12   am
   151     2     1    1
   152    41    40    1
   153    14    13    1
   154    29    30    2
   155    12    13    1
   156    13    16    1
   157    40    39    1
   158    39    38    1
   159    35    38    1
   160    35    34    1
   161    35    36    1
   162    16    17    1
   163    36    37    2
   164    17    18    1
   165    18    20   am
   166    18    19    2
