@<TRIPOS>MOLECULE
tmp/4iisC00.pdb
 84 82 0 0 0
SMALL
GASTEIGER

@<TRIPOS>ATOM
      1  N        -81.5480   23.8960  -44.6820 N.3    24  LYS24      -0.1231
      2  CA       -82.9950   23.7080  -44.8470 C.3    24  LYS24       0.1693
      3  C        -83.8300   24.9130  -44.4220 C.2    24  LYS24       0.2593
      4  O        -84.7620   25.3130  -45.1290 O.2    24  LYS24      -0.2718
      5  CB       -83.4340   22.4930  -44.0190 C.3    24  LYS24       0.0285
      6  CG       -84.8760   22.0410  -44.1650 C.3    24  LYS24       0.0035
      7  CD       -85.0070   20.6340  -43.5830 C.3    24  LYS24       0.0206
      8  CE       -86.3740   20.0080  -43.8580 C.3    24  LYS24       0.1093
      9  NZ       -87.0380   19.5790  -42.5810 N.3    24  LYS24      -0.1314
     10  N        -83.4860   25.4470  -43.2460 N.am   25  SER25      -0.1938
     11  CA       -84.1700   26.5580  -42.5670 C.3    25  SER25       0.2055
     12  C        -83.7670   27.9580  -43.0210 C.2    25  SER25       0.2643
     13  O        -84.2280   28.9520  -42.4610 O.2    25  SER25      -0.2714
     14  CB       -83.9700   26.4490  -41.0550 C.3    25  SER25       0.2130
     15  OG       -84.0830   25.1090  -40.6170 O.3    25  SER25      -0.2179
     16  N        -82.8670   28.0140  -43.9980 N.am   26  ASN26      -0.1971
     17  CA       -82.2980   29.2510  -44.5470 C.3    26  ASN26       0.1688
     18  C        -81.5350   30.0280  -43.4660 C.2    26  ASN26       0.2292
     19  O        -81.3940   31.2580  -43.5560 O.2    26  ASN26      -0.2864
     20  CB       -83.4600   30.1440  -45.0130 C.3    26  ASN26       0.1181
     21  CG       -84.2240   29.5900  -46.1900 C.2    26  ASN26       0.2629
     22  OD1      -83.6730   28.8900  -47.0460 O.2    26  ASN26      -0.2716
     23  ND2      -85.5670   29.7400  -46.1130 N.am   26  ASN26      -0.0877
     24  N        -85.9330   25.2390  -31.6970 N.3   302  PHE302     -0.1241
     25  CA       -86.4060   23.9350  -32.1440 C.3   302  PHE302      0.1605
     26  C        -86.6910   22.9810  -31.0020 C.2   302  PHE302      0.2264
     27  O        -86.0510   23.0020  -29.9480 O.2   302  PHE302     -0.2867
     28  CB       -85.3920   23.2810  -33.0920 C.3   302  PHE302      0.0534
     29  CG       -85.3410   23.9120  -34.4410 C.ar  302  PHE302     -0.0203
     30  CD1      -85.9970   23.3280  -35.5060 C.ar  302  PHE302     -0.0042
     31  CD2      -84.7260   25.1340  -34.6310 C.ar  302  PHE302     -0.0042
     32  CE1      -85.9750   23.9100  -36.7530 C.ar  302  PHE302     -0.0003
     33  CE2      -84.7080   25.7360  -35.8760 C.ar  302  PHE302     -0.0003
     34  CZ       -85.3290   25.1230  -36.9410 C.ar  302  PHE302     -0.0000
     35  N        -89.9560   23.6150  -35.6950 N.3   308  GLN308     -0.1245
     36  CA       -89.8400   24.9110  -35.0820 C.3   308  GLN308      0.1566
     37  C        -90.9000   25.0640  -34.0020 C.2   308  GLN308      0.2260
     38  O        -92.0550   24.6710  -34.1700 O.2   308  GLN308     -0.2867
     39  CB       -90.0410   26.0110  -36.1040 C.3   308  GLN308      0.0367
     40  CG       -88.8680   26.4090  -36.8960 C.3   308  GLN308      0.0905
     41  CD       -89.0600   27.8180  -37.3740 C.2   308  GLN308      0.2608
     42  OE1      -89.3890   28.0680  -38.5380 O.2   308  GLN308     -0.2717
     43  NE2      -88.9090   28.7650  -36.4490 N.am  308  GLN308     -0.0878
     44  N        -92.2380   28.7140  -35.8200 N.3   311  ASN311     -0.1225
     45  CA       -92.5420   28.8460  -37.2690 C.3   311  ASN311      0.1785
     46  C        -91.9980   30.1300  -37.8990 C.2   311  ASN311      0.2597
     47  O        -92.7640   30.9640  -38.4040 O.2   311  ASN311     -0.2718
     48  CB       -94.0600   28.7570  -37.5170 C.3   311  ASN311      0.1169
     49  CG       -94.4120   28.5770  -38.9910 C.2   311  ASN311      0.2627
     50  OD1      -93.6710   27.9490  -39.7490 O.2   311  ASN311     -0.2716
     51  ND2      -95.5500   29.1300  -39.3970 N.am  311  ASN311     -0.0877
     52  N        -90.6740   30.2480  -37.9450 N.am  312  LEU312     -0.1966
     53  CA       -90.0280   31.4770  -38.4100 C.3   312  LEU312      0.1728
     54  C        -89.4390   31.4280  -39.8380 C.2   312  LEU312      0.2616
     55  O        -88.9310   30.3920  -40.2580 O.2   312  LEU312     -0.2715
     56  CB       -88.9010   31.8270  -37.4110 C.3   312  LEU312      0.0311
     57  CG       -89.1930   31.9010  -35.9000 C.3   312  LEU312      0.0022
     58  CD1      -87.9380   32.1740  -35.1150 C.3   312  LEU312      0.0001
     59  CD2      -90.2230   32.9600  -35.6100 C.3   312  LEU312      0.0001
     60  N        -89.5310   32.5390  -40.5770 N.am  313  ASN313     -0.1958
     61  CA       -88.7480   32.7350  -41.8110 C.3   313  ASN313      0.1819
     62  C        -87.4020   33.3760  -41.5020 C.2   313  ASN313      0.2621
     63  O        -87.3540   34.4750  -40.9600 O.2   313  ASN313     -0.2715
     64  CB       -89.5160   33.6260  -42.8070 C.3   313  ASN313      0.1195
     65  CG       -88.9420   33.5840  -44.2330 C.2   313  ASN313      0.2630
     66  OD1      -88.1770   32.6800  -44.6050 O.2   313  ASN313     -0.2716
     67  ND2      -89.2950   34.6040  -45.0300 N.am  313  ASN313     -0.0877
     68  N        -86.3070   32.7080  -41.8500 N.am  314  PHE314     -0.1960
     69  CA       -84.9730   33.2810  -41.6200 C.3   314  PHE314      0.1771
     70  C        -84.2740   34.0850  -42.7390 C.2   314  PHE314      0.2620
     71  O        -83.2520   34.7440  -42.4770 O.2   314  PHE314     -0.2715
     72  CB       -84.0170   32.2000  -41.0990 C.3   314  PHE314      0.0574
     73  CG       -84.4930   31.5430  -39.8310 C.ar  314  PHE314     -0.0200
     74  CD1      -84.1680   32.0930  -38.5970 C.ar  314  PHE314     -0.0042
     75  CD2      -85.1790   30.3480  -39.8600 C.ar  314  PHE314     -0.0042
     76  CE1      -84.5870   31.5040  -37.4220 C.ar  314  PHE314     -0.0003
     77  CE2      -85.5870   29.7450  -38.6820 C.ar  314  PHE314     -0.0003
     78  CZ       -85.2900   30.3320  -37.4600 C.ar  314  PHE314     -0.0000
     79  N        -84.8000   34.0630  -43.9610 N.am  315  SER315     -0.1950
     80  CA       -84.2310   34.9290  -44.9990 C.3   315  SER315      0.1924
     81  C        -84.7690   36.3810  -44.9510 C.2   315  SER315      0.2314
     82  O        -84.5020   37.1030  -43.9600 O.2   315  SER315     -0.2863
     83  CB       -84.4770   34.3150  -46.3810 C.3   315  SER315      0.2116
     84  OG       -83.9370   33.0060  -46.4270 O.3   315  SER315     -0.2180
@<TRIPOS>BOND
     1    22    21    2
     2    84    83    1
     3    83    80    1
     4    21    23   am
     5    21    20    1
     6     4     3    2
     7    67    65   am
     8    20    17    1
     9    80    81    1
    10    80    79    1
    11    81    82    2
    12     2     1    1
    13     2     3    1
    14     2     5    1
    15    66    65    2
    16    17    16    1
    17    17    18    1
    18     3    10   am
    19    65    64    1
    20     6     5    1
    21     6     7    1
    22    16    12   am
    23    79    70   am
    24     8     7    1
    25     8     9    1
    26    19    18    2
    27    10    11    1
    28    12    11    1
    29    12    13    2
    30    64    61    1
    31    70    71    2
    32    70    69    1
    33    11    14    1
    34    68    69    1
    35    68    62   am
    36    61    62    1
    37    61    60    1
    38    69    72    1
    39    62    63    2
    40    72    73    1
    41    14    15    1
    42    60    54   am
    43    55    54    2
    44    75    73   ar
    45    75    77   ar
    46    54    53    1
    47    73    74   ar
    48    50    49    2
    49    51    49   am
    50    49    48    1
    51    77    78   ar
    52    74    76   ar
    53    42    41    2
    54    53    52    1
    55    53    56    1
    56    47    46    2
    57    52    46   am
    58    46    45    1
    59    48    45    1
    60    78    76   ar
    61    56    57    1
    62    41    40    1
    63    41    43   am
    64    45    44    1
    65    34    32   ar
    66    34    33   ar
    67    40    39    1
    68    32    30   ar
    69    39    36    1
    70    57    59    1
    71    57    58    1
    72    33    31   ar
    73    35    36    1
    74    30    29   ar
    75    36    37    1
    76    31    29   ar
    77    29    28    1
    78    38    37    2
    79    28    25    1
    80    25    24    1
    81    25    26    1
    82    26    27    2
