@<TRIPOS>MOLECULE
tmp/4iitA00.pdb
 179 173 0 0 0
SMALL
GASTEIGER

@<TRIPOS>ATOM
      1  N         74.0150   -3.4350  -26.4860 N.3    33  ARG33      -0.1231
      2  CA        74.3240   -4.4300  -27.5040 C.3    33  ARG33       0.1694
      3  C         75.5280   -5.2880  -27.0720 C.2    33  ARG33       0.2591
      4  O         75.3910   -6.5010  -26.9010 O.2    33  ARG33      -0.2718
      5  CB        74.6180   -3.7480  -28.8430 C.3    33  ARG33       0.0321
      6  CG        75.0030   -4.6980  -30.0080 C.3    33  ARG33       0.0489
      7  CD        75.5570   -3.8960  -31.2010 C.3    33  ARG33       0.2205
      8  NE        76.8050   -3.2140  -30.8470 N.pl3  33  ARG33      -0.0865
      9  CZ        78.0160   -3.7670  -30.9180 C.cat  33  ARG33       0.5346
     10  NH1       78.1650   -5.0180  -31.3420 N.pl3  33  ARG33       0.1354
     11  NH2       79.0820   -3.0670  -30.5610 N.pl3  33  ARG33       0.1354
     12  N         76.6870   -4.6550  -26.8780 N.am   34  GLN34      -0.1979
     13  CA        77.9420   -5.3910  -26.6380 C.3    34  GLN34       0.1601
     14  C         78.0170   -6.1050  -25.2810 C.2    34  GLN34       0.2287
     15  O         78.3980   -7.2720  -25.2270 O.2    34  GLN34      -0.2864
     16  CB        79.1810   -4.5020  -26.8410 C.3    34  GLN34       0.0394
     17  CG        80.4880   -5.2220  -26.5060 C.3    34  GLN34       0.0908
     18  CD        81.7260   -4.5240  -27.0450 C.2    34  GLN34       0.2608
     19  OE1       81.6800   -3.8790  -28.0920 O.2    34  GLN34      -0.2717
     20  NE2       82.8510   -4.6700  -26.3370 N.am   34  GLN34      -0.0878
     21  N         75.4150   -8.9890  -25.2620 N.3    37  GLN37      -0.1245
     22  CA        75.8380  -10.1400  -26.0370 C.3    37  GLN37       0.1566
     23  C         77.0550  -10.8440  -25.4130 C.2    37  GLN37       0.2260
     24  O         77.2610  -12.0550  -25.6270 O.2    37  GLN37      -0.2867
     25  CB        76.0400   -9.7550  -27.5120 C.3    37  GLN37       0.0367
     26  CG        74.7010   -9.2640  -28.1490 C.3    37  GLN37       0.0905
     27  CD        74.8050   -8.7530  -29.5800 C.2    37  GLN37       0.2608
     28  OE1       73.8020   -8.6930  -30.2890 O.2    37  GLN37      -0.2717
     29  NE2       76.0030   -8.3740  -30.0050 N.am   37  GLN37      -0.0878
     30  N         72.8280  -11.5150  -30.4860 N.3   103  LYS103     -0.1231
     31  CA        73.8440  -12.5290  -30.7400 C.3   103  LYS103      0.1693
     32  C         74.4980  -13.0150  -29.4410 C.2   103  LYS103      0.2592
     33  O         74.2700  -12.4670  -28.3520 O.2   103  LYS103     -0.2718
     34  CB        74.9380  -11.9510  -31.6680 C.3   103  LYS103      0.0285
     35  CG        74.4600  -11.4760  -33.0430 C.3   103  LYS103      0.0035
     36  CD        75.6190  -10.7950  -33.8000 C.3   103  LYS103      0.0206
     37  CE        75.3320  -10.5980  -35.2870 C.3   103  LYS103      0.1093
     38  NZ        74.1980   -9.6220  -35.5550 N.3   103  LYS103     -0.1314
     39  N         75.2930  -14.0740  -29.5760 N.am  104  TYR104     -0.1962
     40  CA        76.2300  -14.5050  -28.5560 C.3   104  TYR104      0.1771
     41  C         77.4150  -14.9840  -29.3920 C.2   104  TYR104      0.2620
     42  O         77.2960  -15.1140  -30.6170 O.2   104  TYR104     -0.2715
     43  CB        75.6500  -15.6310  -27.6710 C.3   104  TYR104      0.0574
     44  CG        75.1800  -16.8150  -28.4850 C.ar  104  TYR104     -0.0198
     45  CD1       76.0770  -17.8160  -28.8740 C.ar  104  TYR104     -0.0009
     46  CD2       73.8550  -16.9060  -28.9060 C.ar  104  TYR104     -0.0009
     47  CE1       75.6750  -18.8670  -29.6400 C.ar  104  TYR104      0.0417
     48  CE2       73.4430  -17.9520  -29.6940 C.ar  104  TYR104      0.0417
     49  CZ        74.3550  -18.9350  -30.0520 C.ar  104  TYR104      0.1957
     50  OH        73.9410  -19.9950  -30.8120 O.3   104  TYR104     -0.2866
     51  N         78.5420  -15.2580  -28.7390 N.am  105  SER105     -0.1936
     52  CA        79.7930  -15.5620  -29.4330 C.3   105  SER105      0.2055
     53  C         79.7270  -16.7620  -30.3720 C.2   105  SER105      0.2643
     54  O         79.2590  -17.8470  -30.0130 O.2   105  SER105     -0.2714
     55  CB        80.9320  -15.7630  -28.4330 C.3   105  SER105      0.2130
     56  OG        82.1820  -15.8620  -29.1050 O.3   105  SER105     -0.2179
     57  N         80.2700  -16.5520  -31.5650 N.am  106  SER106     -0.1949
     58  CA        80.2400  -17.5220  -32.6350 C.3   106  SER106      0.1924
     59  C         80.7760  -18.8680  -32.1700 C.2   106  SER106      0.2314
     60  O         80.3530  -19.9150  -32.6550 O.2   106  SER106     -0.2863
     61  CB        81.0740  -16.9980  -33.8100 C.3   106  SER106      0.2116
     62  OG        82.4460  -16.8380  -33.4360 O.3   106  SER106     -0.2180
     63  N         90.8370  -10.3990  -25.2820 N.3   132  ASN132     -0.1240
     64  CA        89.7620   -9.4480  -25.5270 C.3   132  ASN132      0.1653
     65  C         89.3700   -8.7040  -24.2600 C.2   132  ASN132      0.2266
     66  O         89.2540   -7.4860  -24.2500 O.2   132  ASN132     -0.2867
     67  CB        88.5670  -10.1950  -26.1580 C.3   132  ASN132      0.1155
     68  CG        87.2550   -9.4350  -26.0620 C.2   132  ASN132      0.2627
     69  OD1       86.5310   -9.5690  -25.0720 O.2   132  ASN132     -0.2716
     70  ND2       86.9200   -8.6680  -27.1100 N.am  132  ASN132     -0.0877
     71  N         88.1010  -16.4680  -34.8290 N.3   193  MET193     -0.1230
     72  CA        86.9380  -15.7060  -35.2650 C.3   193  MET193      0.1702
     73  C         86.2600  -14.9750  -34.1060 C.2   193  MET193      0.2592
     74  O         85.5100  -14.0300  -34.3250 O.2   193  MET193     -0.2718
     75  CB        85.9420  -16.6310  -35.9720 C.3   193  MET193      0.0401
     76  CG        86.5070  -17.3020  -37.2230 C.3   193  MET193      0.0596
     77  SD        85.2420  -18.1230  -38.2310 S.3   193  MET193     -0.1393
     78  CE        86.1850  -19.5230  -38.8230 C.3   193  MET193      0.0692
     79  N         86.5260  -15.4040  -32.8760 N.am  194  MET194     -0.1965
     80  CA        86.0020  -14.7290  -31.6870 C.3   194  MET194      0.1736
     81  C         86.3960  -13.2390  -31.6170 C.2   194  MET194      0.2616
     82  O         85.6920  -12.4440  -31.0050 O.2   194  MET194     -0.2715
     83  CB        86.4770  -15.4310  -30.4170 C.3   194  MET194      0.0427
     84  CG        85.9300  -16.8450  -30.2020 C.3   194  MET194      0.0599
     85  SD        86.7810  -17.5600  -28.7720 S.3   194  MET194     -0.1393
     86  CE        86.0660  -16.5870  -27.4310 C.3   194  MET194      0.0692
     87  N         87.5200  -12.8790  -32.2380 N.am  195  PHE195     -0.1960
     88  CA        87.9540  -11.4760  -32.2940 C.3   195  PHE195      0.1771
     89  C         87.1310  -10.5620  -33.2020 C.2   195  PHE195      0.2620
     90  O         87.2170   -9.3530  -33.0720 O.2   195  PHE195     -0.2715
     91  CB        89.4420  -11.3840  -32.5910 C.3   195  PHE195      0.0574
     92  CG        90.2670  -11.9820  -31.5150 C.ar  195  PHE195     -0.0200
     93  CD1       90.5390  -11.2580  -30.3710 C.ar  195  PHE195     -0.0042
     94  CD2       90.7130  -13.3010  -31.6160 C.ar  195  PHE195     -0.0042
     95  CE1       91.2810  -11.8220  -29.3420 C.ar  195  PHE195     -0.0003
     96  CE2       91.4380  -13.8860  -30.5900 C.ar  195  PHE195     -0.0003
     97  CZ        91.7340  -13.1460  -29.4520 C.ar  195  PHE195     -0.0000
     98  N         86.3110  -11.1460  -34.0740 N.am  196  GLY196     -0.1940
     99  CA        85.3290  -10.3970  -34.8670 C.3   196  GLY196      0.1998
    100  C         85.8410  -10.3060  -36.2920 C.2   196  GLY196      0.2480
    101  O         86.9030  -10.8600  -36.6050 O.2   196  GLY196     -0.2729
    102  N         85.1080   -9.5980  -37.1620 N.am  197  PRO197     -0.2726
    103  CA        85.5650   -9.4120  -38.5480 C.3   197  PRO197      0.1402
    104  C         86.8640   -8.5880  -38.6820 C.2   197  PRO197      0.2269
    105  O         87.2870   -7.9350  -37.7290 O.2   197  PRO197     -0.2865
    106  CB        84.3820   -8.6750  -39.2060 C.3   197  PRO197      0.0296
    107  CG        83.6900   -7.9860  -38.0860 C.3   197  PRO197      0.0237
    108  CD        83.8100   -8.9350  -36.9140 C.3   197  PRO197      0.0939
    109  N         85.9710   -4.5990  -42.4090 N.3   201  ASN201     -0.1225
    110  CA        84.6410   -5.2090  -42.5100 C.3   201  ASN201      0.1785
    111  C         83.9360   -5.1690  -41.1610 C.2   201  ASN201      0.2598
    112  O         83.1720   -6.0670  -40.8190 O.2   201  ASN201     -0.2718
    113  CB        84.7260   -6.6600  -43.0290 C.3   201  ASN201      0.1169
    114  CG        85.3500   -6.7640  -44.4340 C.2   201  ASN201      0.2627
    115  OD1       86.4870   -7.2250  -44.5890 O.2   201  ASN201     -0.2716
    116  ND2       84.6060   -6.3310  -45.4590 N.am  201  ASN201     -0.0877
    117  N         84.1880   -4.1130  -40.3940 N.am  202  SER202     -0.1938
    118  CA        83.7260   -4.0310  -39.0140 C.3   202  SER202      0.2040
    119  C         82.8910   -2.7800  -38.7580 C.2   202  SER202      0.2485
    120  O         83.4390   -1.7490  -38.3960 O.2   202  SER202     -0.2729
    121  CB        84.9280   -4.0920  -38.0650 C.3   202  SER202      0.2129
    122  OG        84.5400   -3.8010  -36.7450 O.3   202  SER202     -0.2179
    123  N         81.3540   -3.0260  -38.4360 N.am  203  PRO203     -0.2715
    124  CA        80.0180   -2.4010  -38.2650 C.3   203  PRO203      0.1536
    125  C         79.9730   -1.3600  -37.2010 C.2   203  PRO203      0.2598
    126  O         79.0780   -0.5050  -37.1940 O.2   203  PRO203     -0.2715
    127  CB        79.1070   -3.5980  -37.9260 C.3   203  PRO203      0.0310
    128  CG        80.0300   -4.6450  -37.3470 C.3   203  PRO203      0.0237
    129  CD        81.3260   -4.4880  -38.1520 C.3   203  PRO203      0.0939
    130  N         80.8220   -1.5240  -36.1840 N.am  204  ASN204     -0.1973
    131  CA        80.7760   -0.6190  -35.0560 C.3   204  ASN204      0.1688
    132  C         82.1620   -0.2810  -34.5020 C.2   204  ASN204      0.2292
    133  O         82.3260    0.2170  -33.3690 O.2   204  ASN204     -0.2864
    134  CB        79.8780   -1.1100  -33.9270 C.3   204  ASN204      0.1181
    135  CG        78.6070   -1.7290  -34.4740 C.2   204  ASN204      0.2629
    136  OD1       77.5670   -1.0520  -34.6250 O.2   204  ASN204     -0.2716
    137  ND2       78.7460   -3.0100  -34.8400 N.am  204  ASN204     -0.0877
    138  N         83.1090    2.7330  -31.9070 N.3   208  SER208     -0.1217
    139  CA        83.6140    2.0470  -30.7210 C.3   208  SER208      0.1889
    140  C         85.0330    2.4690  -30.3950 C.2   208  SER208      0.2288
    141  O         85.3510    2.6970  -29.2240 O.2   208  SER208     -0.2866
    142  CB        83.5340    0.5260  -30.8580 C.3   208  SER208      0.2089
    143  OG        82.2120    0.0720  -30.6280 O.3   208  SER208     -0.2183
    144  N         86.1930    0.1070  -27.6850 N.3   214  LYS214     -0.1245
    145  CA        87.1960   -0.7970  -28.1900 C.3   214  LYS214      0.1561
    146  C         88.5250   -0.0510  -28.1340 C.2   214  LYS214      0.2260
    147  O         88.6510    1.0390  -28.6950 O.2   214  LYS214     -0.2867
    148  CB        86.8290   -1.2050  -29.6210 C.3   214  LYS214      0.0271
    149  CG        87.7940   -2.1710  -30.2980 C.3   214  LYS214      0.0035
    150  CD        87.3450   -2.5040  -31.7360 C.3   214  LYS214      0.0206
    151  CE        85.9710   -3.2060  -31.7670 C.3   214  LYS214      0.1093
    152  NZ        85.6590   -3.8710  -33.0700 N.3   214  LYS214     -0.1314
    153  N         89.9960   -5.4570  -33.8050 N.3   218  ASN218     -0.1240
    154  CA        89.8180   -6.9010  -33.9410 C.3   218  ASN218      0.1653
    155  C         91.1070   -7.5720  -34.4290 C.2   218  ASN218      0.2266
    156  O         91.5970   -8.5400  -33.8180 O.2   218  ASN218     -0.2867
    157  CB        88.6570   -7.2050  -34.8980 C.3   218  ASN218      0.1155
    158  CG        87.3360   -6.5970  -34.4410 C.2   218  ASN218      0.2627
    159  OD1       87.2430   -6.0150  -33.3540 O.2   218  ASN218     -0.2716
    160  ND2       86.2960   -6.7500  -35.2620 N.am  218  ASN218     -0.0877
    161  N         82.0290  -17.8260  -41.1100 N.3   264  PHE264     -0.1241
    162  CA        81.7770  -16.8740  -40.0120 C.3   264  PHE264      0.1605
    163  C         80.4160  -16.1730  -40.1500 C.2   264  PHE264      0.2264
    164  O         79.6470  -16.0790  -39.1870 O.2   264  PHE264     -0.2867
    165  CB        82.9080  -15.8510  -39.9620 C.3   264  PHE264      0.0534
    166  CG        82.7050  -14.7470  -38.9500 C.ar  264  PHE264     -0.0203
    167  CD1       82.9870  -14.9590  -37.5960 C.ar  264  PHE264     -0.0042
    168  CD2       82.2910  -13.4830  -39.3580 C.ar  264  PHE264     -0.0042
    169  CE1       82.8320  -13.9480  -36.6700 C.ar  264  PHE264     -0.0003
    170  CE2       82.1340  -12.4660  -38.4400 C.ar  264  PHE264     -0.0003
    171  CZ        82.4060  -12.7000  -37.0770 C.ar  264  PHE264     -0.0000
    172  N         77.2290  -16.5660  -37.4900 N.3   268  ILE268     -0.1245
    173  CA        76.6500  -15.4830  -36.6990 C.3   268  ILE268      0.1561
    174  C         75.2070  -15.2030  -37.0880 C.2   268  ILE268      0.2260
    175  O         74.4320  -14.6830  -36.2840 O.2   268  ILE268     -0.2867
    176  CB        77.5190  -14.1980  -36.6780 C.3   268  ILE268      0.0252
    177  CG1       77.7750  -13.6600  -38.0920 C.3   268  ILE268      0.0019
    178  CG2       78.8400  -14.4530  -35.9200 C.3   268  ILE268      0.0019
    179  CD1       78.1440  -12.1750  -38.1000 C.3   268  ILE268      0.0001
@<TRIPOS>BOND
     1   116   114   am
     2   115   114    2
     3   114   113    1
     4   113   110    1
     5   110   109    1
     6   110   111    1
     7   111   112    2
     8   111   117   am
     9   161   162    1
    10   117   118    1
    11   163   162    1
    12   163   164    2
    13   162   165    1
    14   165   166    1
    15   168   166   ar
    16   168   170   ar
    17   106   103    1
    18   106   107    1
    19   118   119    1
    20   118   121    1
    21   166   167   ar
    22    78    77    1
    23   119   123   am
    24   119   120    2
    25   104   103    1
    26   104   105    2
    27   103   102    1
    28   170   171   ar
    29   123   124    1
    30   123   129    1
    31   124   127    1
    32   124   125    1
    33    77    76    1
    34   129   128    1
    35   179   177    1
    36   177   176    1
    37   107   108    1
    38   121   122    1
    39   127   128    1
    40   167   169   ar
    41   172   173    1
    42    76    75    1
    43   125   126    2
    44   125   130   am
    45   102   108    1
    46   102   100   am
    47   174   173    1
    48   174   175    2
    49   171   169   ar
    50   173   176    1
    51   176   178    1
    52   101   100    2
    53   100    99    1
    54   130   131    1
    55    75    72    1
    56    38    37    1
    57    37    36    1
    58    72    71    1
    59    72    73    1
    60   160   158   am
    61   131   132    1
    62   131   134    1
    63   157   158    1
    64   157   154    1
    65    99    98    1
    66   137   135   am
    67   136   135    2
    68   132   133    2
    69   135   134    1
    70   158   159    2
    71   155   154    1
    72   155   156    2
    73    74    73    2
    74    73    79   am
    75    98    89   am
    76   154   153    1
    77    61    62    1
    78    61    58    1
    79    36    35    1
    80    89    90    2
    81    89    88    1
    82   152   151    1
    83    35    34    1
    84    79    80    1
    85    60    59    2
    86    58    59    1
    87    58    57    1
    88    91    88    1
    89    91    92    1
    90    88    87    1
    91    87    81   am
    92   138   139    1
    93   151   150    1
    94   150   149    1
    95    80    81    1
    96    80    83    1
    97    34    31    1
    98    81    82    2
    99    94    92   ar
   100    94    96   ar
   101    57    53   am
   102    92    93   ar
   103    10     9    1
   104     7     8    1
   105     7     6    1
   106     9     8    2
   107     9    11    1
   108   142   139    1
   109   142   143    1
   110    50    49    1
   111    31    30    1
   112    31    32    1
   113   139   140    1
   114    42    41    2
   115    96    97   ar
   116    83    84    1
   117   140   141    2
   118    53    54    2
   119    53    52    1
   120    93    95   ar
   121   149   148    1
   122    28    27    2
   123    84    85    1
   124    49    48   ar
   125    49    47   ar
   126     6     5    1
   127    29    27   am
   128    48    46   ar
   129    47    45   ar
   130   148   145    1
   131    27    26    1
   132    39    32   am
   133    39    40    1
   134    97    95   ar
   135    32    33    2
   136    52    51    1
   137    52    55    1
   138    41    51   am
   139    41    40    1
   140    56    55    1
   141    46    44   ar
   142    45    44   ar
   143     5     2    1
   144    85    86    1
   145   147   146    2
   146    40    43    1
   147    44    43    1
   148   145   146    1
   149   145   144    1
   150    26    25    1
   151    19    18    2
   152    25    22    1
   153     2     3    1
   154     2     1    1
   155    70    68   am
   156     3     4    2
   157     3    12   am
   158    18    17    1
   159    18    20   am
   160    12    13    1
   161    16    13    1
   162    16    17    1
   163    13    14    1
   164    67    68    1
   165    67    64    1
   166    68    69    2
   167    22    23    1
   168    22    21    1
   169    24    23    2
   170    64    63    1
   171    64    65    1
   172    14    15    2
   173    65    66    2
