@<TRIPOS>MOLECULE
tmp/4iixA00.pdb
 165 159 0 0 0
SMALL
GASTEIGER

@<TRIPOS>ATOM
      1  N         -7.1890   -0.9980   32.1070 N.3    20  ALA20      -0.1245
      2  CA        -7.2720    0.4570   32.2670 C.3    20  ALA20       0.1562
      3  C         -8.4390    1.0480   31.4860 C.2    20  ALA20       0.2260
      4  O         -8.6930    0.6290   30.3580 O.2    20  ALA20      -0.2867
      5  CB        -5.9790    1.1180   31.8280 C.3    20  ALA20       0.0290
      6  N         -6.9840   -1.3000   25.2570 N.3    84  ILE84      -0.1231
      7  CA        -5.6950   -0.9750   25.8560 C.3    84  ILE84       0.1692
      8  C         -5.4410   -1.9880   26.9620 C.2    84  ILE84       0.2593
      9  O         -6.3630   -2.6790   27.3920 O.2    84  ILE84      -0.2718
     10  CB        -5.6860    0.4650   26.4430 C.3    84  ILE84       0.0266
     11  CG1       -4.2580    0.9870   26.6340 C.3    84  ILE84       0.0019
     12  CG2       -6.4900    0.5460   27.7360 C.3    84  ILE84       0.0020
     13  CD1       -4.1840    2.5080   26.7030 C.3    84  ILE84       0.0001
     14  N         -4.2000   -2.0570   27.4270 N.am   85  GLY85      -0.1942
     15  CA        -3.8350   -2.9350   28.5300 C.3    85  GLY85       0.2014
     16  C         -3.9940   -2.2750   29.8900 C.2    85  GLY85       0.2639
     17  O         -5.0360   -1.6790   30.1940 O.2    85  GLY85      -0.2714
     18  N         -2.9530   -2.3860   30.7070 N.am   86  GLY86      -0.1939
     19  CA        -2.9930   -1.9240   32.0800 C.3    86  GLY86       0.2014
     20  C         -2.2090   -2.8950   32.9460 C.2    86  GLY86       0.2638
     21  O         -0.9930   -3.0430   32.7940 O.2    86  GLY86      -0.2714
     22  N         -2.9110   -3.5830   33.8400 N.am   87  ASP87      -0.1971
     23  CA        -2.2800   -4.4370   34.8410 C.3    87  ASP87       0.1709
     24  C         -3.1340   -5.6380   35.2210 C.2    87  ASP87       0.2293
     25  O         -2.6270   -6.5520   35.8780 O.2    87  ASP87      -0.2864
     26  CB        -2.0440   -3.6540   36.1340 C.3    87  ASP87       0.1436
     27  CG        -0.9850   -2.5920   35.9970 C.2    87  ASP87       0.3671
     28  OD1        0.2110   -2.9350   36.0940 O.co2  87  ASP87      -0.2456
     29  OD2       -1.3380   -1.4110   35.7940 O.co2  87  ASP87      -0.2456
     30  N         -2.2470   -6.6620   23.1600 N.3   111  TYR111     -0.1227
     31  CA        -0.8640   -6.8560   23.5890 C.3   111  TYR111      0.1736
     32  C         -0.6970   -6.3830   25.0280 C.2   111  TYR111      0.2595
     33  O         -1.6800   -6.0540   25.7010 O.2   111  TYR111     -0.2718
     34  CB         0.1390   -6.1980   22.6150 C.3   111  TYR111      0.0548
     35  CG         0.2100   -4.6880   22.6430 C.ar  111  TYR111     -0.0200
     36  CD1        1.2760   -4.0380   23.2570 C.ar  111  TYR111     -0.0009
     37  CD2       -0.7630   -3.9090   22.0210 C.ar  111  TYR111     -0.0009
     38  CE1        1.3570   -2.6570   23.2700 C.ar  111  TYR111      0.0417
     39  CE2       -0.6800   -2.5270   22.0200 C.ar  111  TYR111      0.0417
     40  CZ         0.3710   -1.9110   22.6580 C.ar  111  TYR111      0.1957
     41  OH         0.4260   -0.5280   22.6560 O.3   111  TYR111     -0.2866
     42  N          0.5350   -6.3670   25.5090 N.am  112  ALA112     -0.1966
     43  CA         0.8340   -5.7900   26.8090 C.3   112  ALA112      0.1728
     44  C          0.1130   -6.5810   27.9020 C.2   112  ALA112      0.2616
     45  O          0.1750   -7.8170   27.9110 O.2   112  ALA112     -0.2715
     46  CB         0.4880   -4.3130   26.8320 C.3   112  ALA112      0.0334
     47  N         -0.5840   -5.9140   28.8170 N.am  113  ASP113     -0.1971
     48  CA        -1.2870   -6.6430   29.8720 C.3   113  ASP113      0.1709
     49  C         -2.2480   -7.6980   29.3230 C.2   113  ASP113      0.2293
     50  O         -2.5350   -8.7120   29.9940 O.2   113  ASP113     -0.2864
     51  CB        -2.0680   -5.6790   30.7680 C.3   113  ASP113      0.1436
     52  CG        -2.8030   -6.3990   31.8610 C.2   113  ASP113      0.3671
     53  OD1       -2.1300   -6.8920   32.7870 O.co2 113  ASP113     -0.2456
     54  OD2       -4.0430   -6.5230   31.7610 O.co2 113  ASP113     -0.2456
     55  N         -3.8960    2.5160   21.8530 N.3   137  PRO137     -0.2116
     56  CA        -2.4840    2.8440   21.6040 C.3   137  PRO137      0.1372
     57  C         -2.0770    2.6170   20.1470 C.2   137  PRO137      0.2244
     58  O         -1.2740    3.3780   19.6080 O.2   137  PRO137     -0.2868
     59  CB        -1.7260    1.8840   22.5310 C.3   137  PRO137      0.0268
     60  CG        -2.6730    0.7390   22.7390 C.3   137  PRO137      0.0207
     61  CD        -4.0460    1.3580   22.7510 C.3   137  PRO137      0.0892
     62  N          7.4890    8.9440   24.0310 N.3   177  SER177     -0.1202
     63  CA         6.2700    9.1560   24.7950 C.3   177  SER177      0.2020
     64  C          5.7540   10.5730   24.5940 C.2   177  SER177      0.2618
     65  O          5.8230   11.4060   25.5000 O.2   177  SER177     -0.2717
     66  CB         6.5380    8.9180   26.2830 C.3   177  SER177      0.2103
     67  OG         5.3290    8.8110   27.0140 O.3   177  SER177     -0.2182
     68  N          5.2630   10.8410   23.3900 N.am  178  ILE178     -0.1979
     69  CA         4.6590   12.1230   23.0510 C.3   178  ILE178      0.1595
     70  C          3.4700   11.8540   22.1450 C.2   178  ILE178      0.2287
     71  O          3.2600   10.7220   21.6950 O.2   178  ILE178     -0.2864
     72  CB         5.6450   13.0730   22.3130 C.3   178  ILE178      0.0276
     73  CG1        6.0520   12.4930   20.9560 C.3   178  ILE178      0.0022
     74  CG2        6.8570   13.4130   23.1830 C.3   178  ILE178      0.0022
     75  CD1        6.7660   13.5100   20.0740 C.3   178  ILE178      0.0001
     76  N          0.2380   11.7440   22.6130 N.3   180  TRP180     -0.1241
     77  CA        -0.6300   10.6840   23.1190 C.3   180  TRP180      0.1605
     78  C         -2.1330   10.9300   22.9000 C.2   180  TRP180      0.2264
     79  O         -2.7860   10.1630   22.1960 O.2   180  TRP180     -0.2867
     80  CB        -0.3020   10.3920   24.5860 C.3   180  TRP180      0.0550
     81  CG        -1.2150    9.3800   25.2130 C.ar  180  TRP180      0.0003
     82  CD1       -2.1160    9.6160   26.2070 C.ar  180  TRP180      0.0946
     83  CD2       -1.3440    7.9810   24.8720 C.ar  180  TRP180      0.0152
     84  NE1       -2.7910    8.4560   26.5190 N.ar  180  TRP180     -0.2442
     85  CE2       -2.3460    7.4440   25.7090 C.ar  180  TRP180      0.0810
     86  CE3       -0.7100    7.1360   23.9500 C.ar  180  TRP180      0.0012
     87  CZ2       -2.7220    6.0980   25.6590 C.ar  180  TRP180      0.0191
     88  CZ3       -1.0900    5.8040   23.8960 C.ar  180  TRP180      0.0001
     89  CH2       -2.0890    5.3000   24.7450 C.ar  180  TRP180      0.0015
     90  N          4.0240  -10.3300   26.5450 N.3   212  ASN212     -0.1240
     91  CA         4.6320   -9.3700   27.4560 C.3   212  ASN212      0.1653
     92  C          5.1460  -10.1030   28.6830 C.2   212  ASN212      0.2266
     93  O          4.3730  -10.7140   29.4240 O.2   212  ASN212     -0.2867
     94  CB         3.6110   -8.3160   27.8560 C.3   212  ASN212      0.1155
     95  CG         4.2090   -7.2380   28.7220 C.2   212  ASN212      0.2627
     96  OD1        4.1770   -7.3250   29.9580 O.2   212  ASN212     -0.2716
     97  ND2        4.7510   -6.2080   28.0920 N.am  212  ASN212     -0.0877
     98  N          6.6560   -9.2290   31.6250 N.3   214  ASN214     -0.1225
     99  CA         6.2030   -8.8330   32.9440 C.3   214  ASN214      0.1785
    100  C          4.7760   -9.3200   33.2090 C.2   214  ASN214      0.2597
    101  O          4.4450   -9.7730   34.3080 O.2   214  ASN214     -0.2718
    102  CB         6.2760   -7.3250   33.1170 C.3   214  ASN214      0.1169
    103  CG         6.1600   -6.9230   34.5620 C.2   214  ASN214      0.2627
    104  OD1        6.9090   -7.4070   35.4060 O.2   214  ASN214     -0.2716
    105  ND2        5.1950   -6.0660   34.8670 N.am  214  ASN214     -0.0877
    106  N          3.9130   -9.2350   32.2060 N.am  215  THR215     -0.1953
    107  CA         2.5340   -9.6850   32.3840 C.3   215  THR215      0.1897
    108  C          2.4460  -11.1970   32.6230 C.2   215  THR215      0.2313
    109  O          1.5880  -11.6570   33.3810 O.2   215  THR215     -0.2863
    110  CB         1.6750   -9.2920   31.1750 C.3   215  THR215      0.1794
    111  OG1        1.6930   -7.8710   31.0470 O.3   215  THR215     -0.2208
    112  CG2        0.2300   -9.7480   31.3390 C.3   215  THR215      0.0378
    113  N          8.9750   -6.2530   26.6430 N.3   238  ASP238     -0.1225
    114  CA         8.5900   -5.4600   27.8070 C.3   238  ASP238      0.1805
    115  C          8.6430   -3.9780   27.4520 C.2   238  ASP238      0.2598
    116  O          9.1890   -3.5940   26.4130 O.2   238  ASP238     -0.2718
    117  CB         9.4760   -5.7600   29.0220 C.3   238  ASP238      0.1424
    118  CG         9.0400   -7.0010   29.7880 C.2   238  ASP238      0.3668
    119  OD1        7.8760   -7.0530   30.2430 O.co2 238  ASP238     -0.2456
    120  OD2        9.8620   -7.9330   29.9430 O.co2 238  ASP238     -0.2456
    121  N          8.0780   -3.1570   28.3290 N.am  239  SER239     -0.1938
    122  CA         7.9320   -1.7320   28.0940 C.3   239  SER239      0.2055
    123  C          8.3400   -0.9080   29.3090 C.2   239  SER239      0.2643
    124  O          7.9120   -1.1810   30.4260 O.2   239  SER239     -0.2714
    125  CB         6.4740   -1.4230   27.7620 C.3   239  SER239      0.2130
    126  OG         6.2030   -0.0420   27.9380 O.3   239  SER239     -0.2179
    127  N          9.1560    0.1140   29.0660 N.am  240  ARG240     -0.1963
    128  CA         9.4910    1.1310   30.0560 C.3   240  ARG240      0.1729
    129  C         10.0390    0.5500   31.3490 C.2   240  ARG240      0.2616
    130  O          9.7690    1.0650   32.4360 O.2   240  ARG240     -0.2715
    131  CB         8.2760    2.0130   30.3560 C.3   240  ARG240      0.0348
    132  CG         7.7590    2.7930   29.1630 C.3   240  ARG240      0.0492
    133  CD         6.4410    3.4500   29.5700 C.3   240  ARG240      0.2205
    134  NE         5.7970    4.2310   28.5170 N.pl3 240  ARG240     -0.0865
    135  CZ         5.8290    5.5600   28.4400 C.cat 240  ARG240      0.5346
    136  NH1        6.4970    6.2710   29.3430 N.pl3 240  ARG240      0.1354
    137  NH2        5.1970    6.1800   27.4520 N.pl3 240  ARG240      0.1354
    138  N         10.8170   -0.5150   31.2420 N.am  241  LYS241     -0.1977
    139  CA        11.4080   -1.1030   32.4320 C.3   241  LYS241      0.1596
    140  C         12.8310   -0.6460   32.6690 C.2   241  LYS241      0.2287
    141  O         13.5700   -0.3020   31.7420 O.2   241  LYS241     -0.2864
    142  CB        11.4070   -2.6350   32.3580 C.3   241  LYS241      0.0298
    143  CG        10.0570   -3.2670   32.1500 C.3   241  LYS241      0.0038
    144  CD         9.0640   -2.8260   33.2010 C.3   241  LYS241      0.0206
    145  CE         7.7550   -3.5690   33.0390 C.3   241  LYS241      0.1093
    146  NZ         6.6930   -2.9800   33.8710 N.3   241  LYS241     -0.1314
    147  N         10.2720   -0.5230   24.6270 N.3   271  GLU271     -0.1245
    148  CA         9.9320    0.8990   24.6380 C.3   271  GLU271      0.1567
    149  C         10.6390    1.6200   25.7830 C.2   271  GLU271      0.2260
    150  O         10.4130    1.2920   26.9530 O.2   271  GLU271     -0.2867
    151  CB         8.4170    1.0320   24.8060 C.3   271  GLU271      0.0388
    152  CG         7.9030    2.4570   24.9590 C.3   271  GLU271      0.1160
    153  CD         6.4080    2.5050   25.2240 C.2   271  GLU271      0.3649
    154  OE1        5.8890    1.6520   25.9650 O.co2 271  GLU271     -0.2457
    155  OE2        5.7330    3.3960   24.6570 O.co2 271  GLU271     -0.2457
    156  N          5.6540   -2.6180   22.2730 N.3   305  HIS305     -0.1241
    157  CA         5.0540   -1.3170   22.5470 C.3   305  HIS305      0.1621
    158  C          5.5700   -0.2130   21.6200 C.2   305  HIS305      0.2264
    159  O          5.0740    0.9120   21.6660 O.2   305  HIS305     -0.2867
    160  CB         5.3270   -0.9040   23.9890 C.3   305  HIS305      0.0745
    161  CG         4.5300   -1.6490   25.0180 C.ar  305  HIS305      0.0817
    162  ND1        4.6390   -3.0070   25.2400 N.ar  305  HIS305     -0.2268
    163  CD2        3.6350   -1.1940   25.9230 C.ar  305  HIS305      0.1154
    164  CE1        3.8390   -3.3510   26.2370 C.ar  305  HIS305      0.1986
    165  NE2        3.2200   -2.2700   26.6690 N.ar  305  HIS305     -0.2212
@<TRIPOS>BOND
     1    58    57    2
     2    75    73    1
     3    57    56    1
     4    73    72    1
     5    56    55    1
     6    56    59    1
     7   158   159    2
     8   158   157    1
     9    71    70    2
    10    55    61    1
    11    39    37   ar
    12    39    40   ar
    13    37    35   ar
    14    70    69    1
    15    79    78    2
    16   156   157    1
    17    72    69    1
    18    72    74    1
    19    59    60    1
    20   157   160    1
    21    76    77    1
    22    34    35    1
    23    34    31    1
    24    35    36   ar
    25    41    40    1
    26    40    38   ar
    27    60    61    1
    28    78    77    1
    29    69    68    1
    30    77    80    1
    31    30    31    1
    32    36    38   ar
    33    68    64   am
    34    31    32    1
    35    88    86   ar
    36    88    89   ar
    37    86    83   ar
    38   160   161    1
    39    62    63    1
    40    80    81    1
    41    64    63    1
    42    64    65    2
    43   147   148    1
    44   148   151    1
    45   148   149    1
    46   155   153   ar
    47    89    87   ar
    48    63    66    1
    49   151   152    1
    50    83    81   ar
    51    83    85   ar
    52   152   153    1
    53   161   162   ar
    54   161   163   ar
    55    32    42   am
    56    32    33    2
    57    81    82   ar
    58   153   154   ar
    59   162   164   ar
    60     6     7    1
    61    42    43    1
    62    87    85   ar
    63    85    84   ar
    64   149   150    2
    65     7    10    1
    66     7     8    1
    67   163   165   ar
    68    82    84   ar
    69   164   165   ar
    70    66    67    1
    71   116   115    2
    72    10    11    1
    73    10    12    1
    74    90    91    1
    75    11    13    1
    76   113   114    1
    77    43    46    1
    78    43    44    1
    79     8     9    2
    80     8    14   am
    81    14    15    1
    82   115   114    1
    83   115   121   am
    84   137   135    1
    85    91    94    1
    86    91    92    1
    87   125   126    1
    88   125   122    1
    89   114   117    1
    90    94    95    1
    91    44    45    2
    92    44    47   am
    93    97    95   am
    94   122   121    1
    95   122   123    1
    96   135   134    2
    97   135   136    1
    98   134   133    1
    99    15    16    1
   100    92    93    2
   101    95    96    2
   102    47    48    1
   103   117   118    1
   104   127   123   am
   105   127   128    1
   106   132   133    1
   107   132   131    1
   108   123   124    2
   109    49    48    1
   110    49    50    2
   111   118   120   ar
   112   118   119   ar
   113    48    51    1
   114    16    17    2
   115    16    18   am
   116   128   131    1
   117   128   129    1
   118     4     3    2
   119    18    19    1
   120    51    52    1
   121   111   110    1
   122   110   112    1
   123   110   107    1
   124   138   129   am
   125   138   139    1
   126   129   130    2
   127     3     2    1
   128    98    99    1
   129   141   140    2
   130    54    52   ar
   131     5     2    1
   132    52    53   ar
   133    19    20    1
   134     1     2    1
   135   143   142    1
   136   143   144    1
   137   106   107    1
   138   106   100   am
   139   142   139    1
   140   107   108    1
   141   139   140    1
   142   108   109    2
   143    21    20    2
   144    99   102    1
   145    99   100    1
   146    20    22   am
   147   145   144    1
   148   145   146    1
   149   102   103    1
   150   100   101    2
   151    22    23    1
   152   103   105   am
   153   103   104    2
   154    23    24    1
   155    23    26    1
   156    24    25    2
   157    29    27   ar
   158    27    28   ar
   159    27    26    1
