@<TRIPOS>MOLECULE
tmp/4ij1A00.pdb
 135 130 0 0 0
SMALL
GASTEIGER

@<TRIPOS>ATOM
      1  N          7.0250   -6.6930   37.2070 N.3    62  MET62      -0.1245
      2  CA         7.7540   -5.5450   36.6780 C.3    62  MET62       0.1570
      3  C          8.7770   -4.9840   37.6540 C.2    62  MET62       0.2261
      4  O          9.9320   -4.7750   37.2980 O.2    62  MET62      -0.2867
      5  CB         6.7860   -4.4500   36.2430 C.3    62  MET62       0.0387
      6  CG         6.0370   -4.8440   34.9910 C.3    62  MET62       0.0595
      7  SD         4.7270   -3.7030   34.5670 S.3    62  MET62      -0.1393
      8  CE         5.6930   -2.2560   34.1560 C.3    62  MET62       0.0692
      9  N          8.0620    9.1450   37.9100 N.3   108  HIS108     -0.1241
     10  CA         8.3020    8.0250   37.0230 C.3   108  HIS108      0.1621
     11  C          7.5720    8.3540   35.7350 C.2   108  HIS108      0.2264
     12  O          6.3540    8.5410   35.7450 O.2   108  HIS108     -0.2867
     13  CB         7.7190    6.7400   37.6290 C.3   108  HIS108      0.0745
     14  CG         7.9450    5.5160   36.8000 C.ar  108  HIS108      0.0817
     15  ND1        7.0610    4.4580   36.7740 N.ar  108  HIS108     -0.2268
     16  CD2        8.9620    5.1810   35.9670 C.ar  108  HIS108      0.1154
     17  CE1        7.5240    3.5220   35.9620 C.ar  108  HIS108      0.1986
     18  NE2        8.6720    3.9360   35.4610 N.ar  108  HIS108     -0.2212
     19  N          7.8140    9.0000   31.0030 N.3   110  ASN110     -0.1240
     20  CA         8.4220    8.7950   29.7010 C.3   110  ASN110      0.1653
     21  C          8.0840    9.9470   28.7660 C.2   110  ASN110      0.2266
     22  O          7.2310   10.7820   29.0840 O.2   110  ASN110     -0.2867
     23  CB         7.9280    7.4720   29.1180 C.3   110  ASN110      0.1155
     24  CG         8.7550    7.0080   27.9420 C.2   110  ASN110      0.2627
     25  OD1        9.7480    7.6400   27.5800 O.2   110  ASN110     -0.2716
     26  ND2        8.3510    5.8960   27.3360 N.am  110  ASN110     -0.0877
     27  N         11.3900    5.8740   32.5610 N.3   145  ALA145     -0.1231
     28  CA        10.8620    4.5080   32.5110 C.3   145  ALA145      0.1679
     29  C         11.6760    3.5300   31.6590 C.2   145  ALA145      0.2434
     30  O         11.9720    2.4260   32.1120 O.2   145  ALA145     -0.2733
     31  CB         9.3690    4.5050   32.0950 C.3   145  ALA145      0.0304
     32  N         12.0380    3.9190   30.4200 N.am  146  PRO146     -0.2729
     33  CA        12.8440    2.9670   29.6460 C.3   146  PRO146      0.1401
     34  C         14.1520    2.5990   30.3380 C.2   146  PRO146      0.2269
     35  O         14.6310    1.4750   30.1940 O.2   146  PRO146     -0.2865
     36  CB        13.1170    3.7270   28.3410 C.3   146  PRO146      0.0296
     37  CG        11.9320    4.6170   28.1810 C.3   146  PRO146      0.0237
     38  CD        11.5930    5.0570   29.5910 C.3   146  PRO146      0.0939
     39  N         13.0440    0.1380   33.4130 N.3   149  HIS149     -0.1227
     40  CA        12.2450   -1.0310   33.0350 C.3   149  HIS149      0.1737
     41  C         12.5830   -1.5580   31.6290 C.2   149  HIS149      0.2438
     42  O         11.6790   -1.7600   30.8250 O.2   149  HIS149     -0.2733
     43  CB        10.7550   -0.6640   33.0630 C.3   149  HIS149      0.0758
     44  CG        10.2310   -0.3200   34.4270 C.ar  149  HIS149      0.0818
     45  ND1       10.0020   -1.2710   35.3960 N.ar  149  HIS149     -0.2268
     46  CD2        9.8650    0.8680   34.9690 C.ar  149  HIS149      0.1154
     47  CE1        9.5220   -0.6830   36.4840 C.ar  149  HIS149      0.1986
     48  NE2        9.4310    0.6080   36.2500 N.ar  149  HIS149     -0.2212
     49  N         13.8780   -1.8010   31.3330 N.am  150  PRO150     -0.2729
     50  CA        14.2330   -2.1580   29.9500 C.3   150  PRO150      0.1401
     51  C         13.5230   -3.4120   29.4320 C.2   150  PRO150      0.2269
     52  O         13.1560   -3.4510   28.2610 O.2   150  PRO150     -0.2865
     53  CB        15.7430   -2.4190   30.0320 C.3   150  PRO150      0.0296
     54  CG        16.0040   -2.7720   31.4730 C.3   150  PRO150      0.0237
     55  CD        15.0360   -1.8960   32.2400 C.3   150  PRO150      0.0939
     56  N         10.6740   -4.3110   29.7360 N.3   152  TYR152     -0.1227
     57  CA         9.2720   -4.0360   29.4140 C.3   152  TYR152      0.1736
     58  C          9.0640   -3.4310   28.0160 C.2   152  TYR152      0.2595
     59  O          7.9390   -3.1490   27.6160 O.2   152  TYR152     -0.2718
     60  CB         8.6620   -3.1110   30.4810 C.3   152  TYR152      0.0548
     61  CG         7.1440   -3.0850   30.4810 C.ar  152  TYR152     -0.0200
     62  CD1        6.4200   -4.1660   30.9720 C.ar  152  TYR152     -0.0009
     63  CD2        6.4400   -1.9830   30.0080 C.ar  152  TYR152     -0.0009
     64  CE1        5.0360   -4.1580   30.9750 C.ar  152  TYR152      0.0417
     65  CE2        5.0440   -1.9630   30.0150 C.ar  152  TYR152      0.0417
     66  CZ         4.3550   -3.0670   30.4960 C.ar  152  TYR152      0.1957
     67  OH         2.9660   -3.0880   30.5060 O.3   152  TYR152     -0.2866
     68  N         10.1410   -3.2280   27.2630 N.am  153  ARG153     -0.1980
     69  CA        10.0140   -2.5210   25.9870 C.3   153  ARG153      0.1597
     70  C          9.0760   -3.1780   24.9810 C.2   153  ARG153      0.2287
     71  O          8.4240   -2.4860   24.2010 O.2   153  ARG153     -0.2864
     72  CB        11.3820   -2.3000   25.3500 C.3   153  ARG153      0.0334
     73  CG        12.1230   -3.5800   25.0720 C.3   153  ARG153      0.0492
     74  CD        13.2160   -3.3730   24.0470 C.3   153  ARG153      0.2205
     75  NE        13.9030   -4.6310   23.7880 N.pl3 153  ARG153     -0.0865
     76  CZ        14.8280   -5.1320   24.5920 C.cat 153  ARG153      0.5346
     77  NH1       15.1620   -4.4660   25.6910 N.pl3 153  ARG153      0.1354
     78  NH2       15.4180   -6.2870   24.3020 N.pl3 153  ARG153      0.1354
     79  N          5.5460   -2.3110   26.0850 N.3   156  ALA156     -0.1245
     80  CA         5.2530   -0.9000   25.8790 C.3   156  ALA156      0.1562
     81  C          4.9390   -0.6420   24.4060 C.2   156  ALA156      0.2260
     82  O          4.0220    0.1170   24.0780 O.2   156  ALA156     -0.2867
     83  CB         6.4180   -0.0270   26.3610 C.3   156  ALA156      0.0290
     84  N          1.4600   -1.8590   23.5360 N.3   159  ARG159     -0.1231
     85  CA         0.4660   -0.9310   24.0590 C.3   159  ARG159      0.1694
     86  C          0.1540    0.1670   23.0370 C.2   159  ARG159      0.2591
     87  O         -1.0100    0.5140   22.8320 O.2   159  ARG159     -0.2718
     88  CB         0.9480   -0.3300   25.3920 C.3   159  ARG159      0.0321
     89  CG        -0.0350    0.6570   26.0240 C.3   159  ARG159      0.0489
     90  CD         0.4690    1.2550   27.3550 C.3   159  ARG159      0.2205
     91  NE         1.7690    1.9050   27.1900 N.pl3 159  ARG159     -0.0865
     92  CZ         1.9650    3.0350   26.5110 C.cat 159  ARG159      0.5346
     93  NH1        0.9460    3.6500   25.9230 N.pl3 159  ARG159      0.1354
     94  NH2        3.1840    3.5490   26.4120 N.pl3 159  ARG159      0.1354
     95  N          1.2020    0.6960   22.4050 N.am  160  ARG160     -0.1980
     96  CA         1.0600    1.7680   21.4240 C.3   160  ARG160      0.1597
     97  C          0.3980    1.2690   20.1440 C.2   160  ARG160      0.2287
     98  O         -0.4020    1.9780   19.5410 O.2   160  ARG160     -0.2864
     99  CB         2.4240    2.3760   21.0840 C.3   160  ARG160      0.0334
    100  CG         3.2650    2.7840   22.2850 C.3   160  ARG160      0.0492
    101  CD         4.5190    3.5410   21.8430 C.3   160  ARG160      0.2205
    102  NE         5.3460    2.7720   20.9100 N.pl3 160  ARG160     -0.0865
    103  CZ         6.5780    2.3430   21.1720 C.cat 160  ARG160      0.5346
    104  NH1        7.1420    2.6060   22.3440 N.pl3 160  ARG160      0.1354
    105  NH2        7.2500    1.6530   20.2590 N.pl3 160  ARG160      0.1354
    106  N         -3.0660   -2.3660   31.0470 N.3   168  PHE168     -0.1241
    107  CA        -1.6480   -2.0170   31.0040 C.3   168  PHE168      0.1605
    108  C         -1.4400   -0.5420   31.2720 C.2   168  PHE168      0.2264
    109  O         -0.3590   -0.1300   31.7140 O.2   168  PHE168     -0.2867
    110  CB        -1.0320   -2.3730   29.6510 C.3   168  PHE168      0.0534
    111  CG        -0.6220   -3.8120   29.5360 C.ar  168  PHE168     -0.0203
    112  CD1       -1.1040   -4.7550   30.4260 C.ar  168  PHE168     -0.0042
    113  CD2        0.2460   -4.2160   28.5400 C.ar  168  PHE168     -0.0042
    114  CE1       -0.7270   -6.0950   30.3240 C.ar  168  PHE168     -0.0003
    115  CE2        0.6220   -5.5500   28.4240 C.ar  168  PHE168     -0.0003
    116  CZ         0.1420   -6.4850   29.3280 C.ar  168  PHE168     -0.0000
    117  N         -0.0610    0.3520   34.7230 N.3   171  LEU171     -0.1231
    118  CA         1.2160   -0.2090   35.1990 C.3   171  LEU171      0.1693
    119  C          2.3070    0.8370   35.4490 C.2   171  LEU171      0.2592
    120  O          3.1200    0.6980   36.3700 O.2   171  LEU171     -0.2718
    121  CB         1.7010   -1.2970   34.2490 C.3   171  LEU171      0.0284
    122  CG         0.7280   -2.4850   34.2390 C.3   171  LEU171      0.0019
    123  CD1        1.1030   -3.5070   33.2180 C.3   171  LEU171      0.0001
    124  CD2        0.7290   -3.0950   35.6350 C.3   171  LEU171      0.0001
    125  N          2.3300    1.8780   34.6320 N.am  172  GLY172     -0.1957
    126  CA         3.2530    2.9830   34.8600 C.3   172  GLY172      0.1869
    127  C          3.2380    3.5450   36.2760 C.2   172  GLY172      0.2309
    128  O          4.2510    3.5090   36.9880 O.2   172  GLY172     -0.2863
    129  N          4.4360    1.2130   39.0020 N.3   175  THR175     -0.1218
    130  CA         5.7840    0.6310   38.9770 C.3   175  THR175      0.1862
    131  C          6.9030    1.6490   39.0580 C.2   175  THR175      0.2287
    132  O          7.9620    1.4620   38.4430 O.2   175  THR175     -0.2866
    133  CB         6.0200   -0.2540   37.7370 C.3   175  THR175      0.1770
    134  OG1        5.7760    0.5010   36.5410 O.3   175  THR175     -0.2211
    135  CG2        5.1140   -1.4970   37.7830 C.3   175  THR175      0.0375
@<TRIPOS>BOND
     1    98    97    2
     2    97    96    1
     3   105   103    1
     4   102   103    2
     5   102   101    1
     6    99    96    1
     7    99   100    1
     8   103   104    1
     9    96    95    1
    10   101   100    1
    11    95    86   am
    12    87    86    2
    13    86    85    1
    14    84    85    1
    15    75    74    1
    16    75    76    2
    17    74    73    1
    18    85    88    1
    19    82    81    2
    20    71    70    2
    21    78    76    1
    22    81    80    1
    23    76    77    1
    24    70    69    1
    25    73    72    1
    26    72    69    1
    27    88    89    1
    28    80    79    1
    29    80    83    1
    30    93    92    1
    31    69    68    1
    32    89    90    1
    33    94    92    1
    34    92    91    2
    35    91    90    1
    36    68    58   am
    37    26    24   am
    38    25    24    2
    39    59    58    2
    40    24    23    1
    41    58    57    1
    42    37    36    1
    43    37    38    1
    44    52    51    2
    45    36    33    1
    46   115   113   ar
    47   115   116   ar
    48   113   111   ar
    49    21    22    2
    50    21    20    1
    51    23    20    1
    52   116   114   ar
    53    57    56    1
    54    57    60    1
    55    51    50    1
    56   111   110    1
    57   111   112   ar
    58    38    32    1
    59    33    34    1
    60    33    32    1
    61   110   107    1
    62    20    19    1
    63    50    53    1
    64    50    49    1
    65    63    65   ar
    66    63    61   ar
    67    65    66   ar
    68    53    54    1
    69    35    34    2
    70   114   112   ar
    71    32    29   am
    72    61    60    1
    73    61    62   ar
    74    66    67    1
    75    66    64   ar
    76    42    41    2
    77    62    64   ar
    78   107   106    1
    79   107   108    1
    80   108   109    2
    81    49    41   am
    82    49    55    1
    83    54    55    1
    84    41    40    1
    85    29    30    2
    86    29    28    1
    87    31    28    1
    88    28    27    1
    89    40    43    1
    90    40    39    1
    91    43    44    1
    92   123   122    1
    93     8     7    1
    94   122   121    1
    95   122   124    1
    96   121   118    1
    97    44    46   ar
    98    44    45   ar
    99     7     6    1
   100   125   126    1
   101   125   119   am
   102   117   118    1
   103   126   127    1
   104    46    48   ar
   105     6     5    1
   106   118   119    1
   107    45    47   ar
   108   119   120    2
   109    18    17   ar
   110    18    16   ar
   111    11    12    2
   112    11    10    1
   113    17    15   ar
   114    16    14   ar
   115     5     2    1
   116    48    47   ar
   117   127   128    2
   118   134   133    1
   119     2     1    1
   120     2     3    1
   121    15    14   ar
   122    14    13    1
   123    10    13    1
   124    10     9    1
   125     4     3    2
   126   133   135    1
   127   133   130    1
   128   132   131    2
   129   130   129    1
   130   130   131    1
