@<TRIPOS>MOLECULE
tmp/4ij6A00.pdb
 128 125 0 0 0
SMALL
GASTEIGER

@<TRIPOS>ATOM
      1  N         17.1720   -1.1090   28.2410 N.3     8  ARG8       -0.1231
      2  CA        16.4770   -0.7370   29.4680 C.3     8  ARG8        0.1694
      3  C         16.6570   -1.8390   30.4950 C.2     8  ARG8        0.2591
      4  O         16.6010   -3.0250   30.1610 O.2     8  ARG8       -0.2718
      5  CB        14.9780   -0.4830   29.2480 C.3     8  ARG8        0.0321
      6  CG        14.2970    0.0270   30.5160 C.3     8  ARG8        0.0489
      7  CD        12.7970    0.1330   30.3680 C.3     8  ARG8        0.2205
      8  NE        12.1350    0.3370   31.6590 N.pl3   8  ARG8       -0.0865
      9  CZ        10.8320    0.1550   31.8810 C.cat   8  ARG8        0.5346
     10  NH1       10.0230   -0.2440   30.9020 N.pl3   8  ARG8        0.1354
     11  NH2       10.3240    0.3730   33.0930 N.pl3   8  ARG8        0.1354
     12  N         16.8550   -1.4270   31.7460 N.am    9  ALA9       -0.1980
     13  CA        16.8640   -2.3350   32.8740 C.3     9  ALA9        0.1597
     14  C         15.7390   -3.3500   32.7730 C.2     9  ALA9        0.2287
     15  O         14.6240   -3.0360   32.3300 O.2     9  ALA9       -0.2864
     16  CB        16.7280   -1.5660   34.1780 C.3     9  ALA9        0.0319
     17  N          8.0220   -1.9440   38.8230 N.3    15  ASN15      -0.1240
     18  CA         7.5030   -1.8030   37.4610 C.3    15  ASN15       0.1653
     19  C          6.1030   -2.4080   37.2320 C.2    15  ASN15       0.2266
     20  O          5.2360   -1.7430   36.6620 O.2    15  ASN15      -0.2867
     21  CB         8.4940   -2.3630   36.4300 C.3    15  ASN15       0.1155
     22  CG         9.7340   -1.4910   36.2400 C.2    15  ASN15       0.2627
     23  OD1       10.7980   -2.0020   35.9060 O.2    15  ASN15      -0.2716
     24  ND2        9.6070   -0.1850   36.4490 N.am   15  ASN15      -0.0877
     25  N          4.6440    1.8760   40.2120 N.3    19  ARG19      -0.1231
     26  CA         5.0570    2.8300   41.2280 C.3    19  ARG19       0.1694
     27  C          6.2740    3.5680   40.6860 C.2    19  ARG19       0.2592
     28  O          7.2500    2.9380   40.2760 O.2    19  ARG19      -0.2718
     29  CB         5.3710    2.1350   42.5650 C.3    19  ARG19       0.0321
     30  CG         5.3880    3.0870   43.7550 C.3    19  ARG19       0.0489
     31  CD         5.6020    2.3780   45.0890 C.3    19  ARG19       0.2205
     32  NE         4.4930    1.5030   45.4700 N.pl3  19  ARG19      -0.0865
     33  CZ         3.3260    1.9100   45.9670 C.cat  19  ARG19       0.5346
     34  NH1        3.0650    3.2070   46.1440 N.pl3  19  ARG19       0.1354
     35  NH2        2.4020    1.0060   46.2900 N.pl3  19  ARG19       0.1354
     36  N          6.1920    4.8950   40.6440 N.am   20  TYR20      -0.1962
     37  CA         7.3090    5.7210   40.1870 C.3    20  TYR20       0.1771
     38  C          8.4950    5.5820   41.1190 C.2    20  TYR20       0.2619
     39  O          8.3730    5.7970   42.3220 O.2    20  TYR20      -0.2715
     40  CB         6.9140    7.1980   40.1080 C.3    20  TYR20       0.0574
     41  CG         6.0430    7.5130   38.9300 C.ar   20  TYR20      -0.0198
     42  CD1        6.5820    7.6320   37.6540 C.ar   20  TYR20      -0.0009
     43  CD2        4.6780    7.6740   39.0820 C.ar   20  TYR20      -0.0009
     44  CE1        5.7810    7.9130   36.5590 C.ar   20  TYR20       0.0417
     45  CE2        3.8710    7.9560   38.0010 C.ar   20  TYR20       0.0417
     46  CZ         4.4210    8.0600   36.7410 C.ar   20  TYR20       0.1957
     47  OH         3.5950    8.3370   35.6710 O.3    20  TYR20      -0.2866
     48  N          9.6460    5.2380   40.5510 N.am   21  GLN21      -0.1963
     49  CA        10.8650    5.0380   41.3250 C.3    21  GLN21       0.1733
     50  C         11.7240    6.2990   41.3610 C.2    21  GLN21       0.2616
     51  O         12.0900    6.7810   42.4280 O.2    21  GLN21      -0.2715
     52  CB        11.6860    3.8990   40.7310 C.3    21  GLN21       0.0408
     53  CG        10.9750    2.5500   40.7300 C.3    21  GLN21       0.0908
     54  CD        11.5740    1.5900   39.7260 C.2    21  GLN21       0.2608
     55  OE1       12.1030    0.5340   40.0920 O.2    21  GLN21      -0.2717
     56  NE2       11.5140    1.9590   38.4510 N.am   21  GLN21      -0.0878
     57  N         12.0520    6.8180   40.1860 N.am   22  GLY22      -0.1955
     58  CA        13.0350    7.8910   40.0760 C.3    22  GLY22       0.1869
     59  C         14.3790    7.4090   40.6030 C.2    22  GLY22       0.2309
     60  O         14.8680    6.3470   40.1950 O.2    22  GLY22      -0.2863
     61  N         18.5520   -1.6240   39.5060 N.3    58  ARG58      -0.1245
     62  CA        17.8190   -2.2630   38.4000 C.3    58  ARG58       0.1563
     63  C         18.6340   -2.2620   37.0990 C.2    58  ARG58       0.2260
     64  O         18.7030   -3.2630   36.3970 O.2    58  ARG58      -0.2867
     65  CB        16.4220   -1.6540   38.2000 C.3    58  ARG58       0.0307
     66  CG        16.3450   -0.1470   37.9630 C.3    58  ARG58       0.0489
     67  CD        14.9520    0.3350   38.3490 C.3    58  ARG58       0.2205
     68  NE        14.6740    1.7410   38.0520 N.pl3  58  ARG58      -0.0865
     69  CZ        14.8390    2.7670   38.8840 C.cat  58  ARG58       0.5346
     70  NH1       14.4940    3.9840   38.4810 N.pl3  58  ARG58       0.1354
     71  NH2       15.3430    2.6070   40.1050 N.pl3  58  ARG58       0.1354
     72  N         18.2270    7.5000   36.1900 N.3    82  GLU82      -0.1245
     73  CA        16.8100    7.8370   36.0110 C.3    82  GLU82       0.1567
     74  C         16.5640    9.2910   36.4200 C.2    82  GLU82       0.2260
     75  O         17.3160    9.8540   37.2180 O.2    82  GLU82      -0.2867
     76  CB        15.9260    6.8570   36.8130 C.3    82  GLU82       0.0388
     77  CG        14.4080    7.0340   36.6890 C.3    82  GLU82       0.1160
     78  CD        13.8900    6.9680   35.2590 C.2    82  GLU82       0.3649
     79  OE1       14.2130    7.8770   34.4770 O.co2  82  GLU82      -0.2457
     80  OE2       13.1350    6.0270   34.9030 O.co2  82  GLU82      -0.2457
     81  N         12.1300   11.9620   39.8580 N.3    85  HIS85      -0.1241
     82  CA        10.6870   12.1910   39.8460 C.3    85  HIS85       0.1621
     83  C         10.1780   13.0170   41.0270 C.2    85  HIS85       0.2264
     84  O          8.9740   13.2970   41.1090 O.2    85  HIS85      -0.2867
     85  CB         9.9400   10.8510   39.8060 C.3    85  HIS85       0.0745
     86  CG         9.8730   10.2370   38.4460 C.ar   85  HIS85       0.0817
     87  ND1        9.3130   10.8830   37.3670 N.ar   85  HIS85      -0.2268
     88  CD2       10.2620    9.0230   37.9960 C.ar   85  HIS85       0.1154
     89  CE1        9.3700   10.1000   36.3060 C.ar   85  HIS85       0.1986
     90  NE2        9.9400    8.9640   36.6620 N.ar   85  HIS85      -0.2212
     91  N          2.9500   16.1750   32.0000 N.3   107  TRP107     -0.1241
     92  CA         3.8830   15.0680   31.7540 C.3   107  TRP107      0.1605
     93  C          3.5470   14.3340   30.4510 C.2   107  TRP107      0.2264
     94  O          4.4310   14.0880   29.6270 O.2   107  TRP107     -0.2867
     95  CB         3.8660   14.1390   32.9690 C.3   107  TRP107      0.0550
     96  CG         4.6700   12.8680   32.9150 C.ar  107  TRP107      0.0003
     97  CD1        4.1950   11.6150   33.1470 C.ar  107  TRP107      0.0946
     98  CD2        6.0870   12.7230   32.6910 C.ar  107  TRP107      0.0152
     99  NE1        5.2100   10.6930   33.0570 N.ar  107  TRP107     -0.2442
    100  CE2        6.3810   11.3450   32.7790 C.ar  107  TRP107      0.0810
    101  CE3        7.1280   13.6160   32.4060 C.ar  107  TRP107      0.0012
    102  CZ2        7.6760   10.8380   32.5910 C.ar  107  TRP107      0.0191
    103  CZ3        8.4180   13.1090   32.2300 C.ar  107  TRP107      0.0001
    104  CH2        8.6740   11.7360   32.3200 C.ar  107  TRP107      0.0015
    105  N         17.2920    3.7580   31.7070 N.3   150  HIS150     -0.1226
    106  CA        15.9010    3.7600   32.1620 C.3   150  HIS150      0.1752
    107  C         15.0080    4.4550   31.1200 C.2   150  HIS150      0.2597
    108  O         15.5060    5.1020   30.2080 O.2   150  HIS150     -0.2718
    109  CB        15.7830    4.5280   33.4880 C.3   150  HIS150      0.0759
    110  CG        16.8150    4.1730   34.5230 C.ar  150  HIS150      0.0818
    111  ND1       16.6130    3.1950   35.4730 N.ar  150  HIS150     -0.2268
    112  CD2       18.0380    4.6980   34.7840 C.ar  150  HIS150      0.1154
    113  CE1       17.6630    3.1300   36.2720 C.ar  150  HIS150      0.1986
    114  NE2       18.5450    4.0290   35.8740 N.ar  150  HIS150     -0.2212
    115  N         13.6890    4.3540   31.2710 N.am  151  THR151     -0.1939
    116  CA        12.7750    4.9040   30.2730 C.3   151  THR151      0.2028
    117  C         13.0560    6.3740   29.9450 C.2   151  THR151      0.2642
    118  O         13.1490    6.7440   28.7790 O.2   151  THR151     -0.2714
    119  CB        11.3060    4.8090   30.7240 C.3   151  THR151      0.1808
    120  OG1       11.1420    5.4890   31.9730 O.3   151  THR151     -0.2208
    121  CG2       10.8740    3.3540   30.8710 C.3   151  THR151      0.0379
    122  N         13.1930    7.2050   30.9680 N.am  152  VAL152     -0.1977
    123  CA        13.2420    8.6580   30.7460 C.3   152  VAL152      0.1596
    124  C         14.5340    9.1020   30.0420 C.2   152  VAL152      0.2287
    125  O         14.4730    9.7400   28.9840 O.2   152  VAL152     -0.2864
    126  CB        12.9390    9.4530   32.0460 C.3   152  VAL152      0.0276
    127  CG1       12.9550   10.9520   31.7860 C.3   152  VAL152      0.0022
    128  CG2       11.5800    9.0210   32.6080 C.3   152  VAL152      0.0022
@<TRIPOS>BOND
     1     1     2    1
     2   118   117    2
     3   125   124    2
     4     5     2    1
     5     5     6    1
     6     2     3    1
     7    94    93    2
     8   117   116    1
     9   117   122   am
    10   124   123    1
    11     4     3    2
    12   108   107    2
    13   116   119    1
    14   116   115    1
    15     7     6    1
    16     7     8    1
    17    93    92    1
    18     3    12   am
    19   119   121    1
    20   119   120    1
    21   123   122    1
    22   123   126    1
    23    10     9    1
    24   107   115   am
    25   107   106    1
    26     8     9    2
    27   105   106    1
    28    12    13    1
    29    92    91    1
    30    92    95    1
    31   127   126    1
    32     9    11    1
    33   126   128    1
    34   106   109    1
    35   103   104   ar
    36   103   101   ar
    37   104   102   ar
    38    15    14    2
    39   101    98   ar
    40   102   100   ar
    41    98   100   ar
    42    98    96   ar
    43    14    13    1
    44   100    99   ar
    45    13    16    1
    46    96    95    1
    47    96    97   ar
    48    99    97   ar
    49   109   110    1
    50    79    78   ar
    51   110   112   ar
    52   110   111   ar
    53   112   114   ar
    54    80    78   ar
    55    78    77    1
    56   111   113   ar
    57    47    46    1
    58   114   113   ar
    59    23    22    2
    60    73    72    1
    61    73    74    1
    62    73    76    1
    63    22    21    1
    64    22    24   am
    65    89    90   ar
    66    89    87   ar
    67    64    63    2
    68    74    75    2
    69    21    18    1
    70    44    46   ar
    71    44    42   ar
    72    90    88   ar
    73    20    19    2
    74    77    76    1
    75    46    45   ar
    76    63    62    1
    77    19    18    1
    78    87    86   ar
    79    18    17    1
    80    42    41   ar
    81    66    65    1
    82    66    67    1
    83    88    86   ar
    84    45    43   ar
    85    68    67    1
    86    68    69    2
    87    65    62    1
    88    62    61    1
    89    86    85    1
    90    56    54   am
    91    70    69    1
    92    69    71    1
    93    41    43   ar
    94    41    40    1
    95    54    55    2
    96    54    53    1
    97    85    82    1
    98    82    81    1
    99    82    83    1
   100    58    57    1
   101    58    59    1
   102    40    37    1
   103    57    50   am
   104    37    36    1
   105    37    38    1
   106    60    59    2
   107    25    26    1
   108    28    27    2
   109    48    38   am
   110    48    49    1
   111    36    27   am
   112    27    26    1
   113    53    52    1
   114    52    49    1
   115    83    84    2
   116    38    39    2
   117    26    29    1
   118    49    50    1
   119    50    51    2
   120    29    30    1
   121    30    31    1
   122    31    32    1
   123    32    33    2
   124    33    34    1
   125    33    35    1
