@<TRIPOS>MOLECULE
tmp/4ij9A00.pdb
 188 179 0 0 0
SMALL
GASTEIGER

@<TRIPOS>ATOM
      1  N          8.2480   14.7720    7.9590 N.3    36  LEU36      -0.1231
      2  CA         7.9600   13.3530    8.1530 C.3    36  LEU36       0.1693
      3  C          9.1710   12.5020    7.8120 C.2    36  LEU36       0.2593
      4  O          9.3530   11.4240    8.3580 O.2    36  LEU36      -0.2718
      5  CB         6.7970   12.9120    7.2620 C.3    36  LEU36       0.0284
      6  CG         5.4380   13.5020    7.5520 C.3    36  LEU36       0.0019
      7  CD1        4.4840   13.1000    6.4670 C.3    36  LEU36       0.0001
      8  CD2        4.9510   13.1180    8.9560 C.3    36  LEU36       0.0001
      9  N          9.9600   12.9810    6.8780 N.am   37  GLY37      -0.1942
     10  CA        11.1240   12.2620    6.4140 C.3    37  GLY37       0.2014
     11  C         12.0970   13.1570    5.7040 C.2    37  GLY37       0.2640
     12  O         11.8390   14.3500    5.5180 O.2    37  GLY37      -0.2714
     13  N         13.2140   12.5560    5.2700 N.am   38  THR38      -0.1936
     14  CA        14.3190   13.2710    4.6470 C.3    38  THR38       0.2028
     15  C         14.9320   12.4900    3.4680 C.2    38  THR38       0.2643
     16  O         14.9010   11.2670    3.4490 O.2    38  THR38      -0.2714
     17  CB        15.2400   13.7690    5.8140 C.3    38  THR38       0.1808
     18  OG1       15.0890   15.1740    5.9720 O.3    38  THR38      -0.2208
     19  CG2       16.6890   13.3740    5.6990 C.3    38  THR38       0.0379
     20  N         15.4620   13.2270    2.5060 N.am   39  GLY39      -0.1939
     21  CA        16.1440   12.7350    1.3180 C.3    39  GLY39       0.2014
     22  C         17.2950   13.6630    0.9930 C.2    39  GLY39       0.2640
     23  O         17.3730   14.7670    1.5480 O.2    39  GLY39      -0.2714
     24  N         18.2110   13.2260    0.1060 N.am   40  SER40      -0.1935
     25  CA        19.4130   14.0080   -0.2730 C.3    40  SER40       0.2055
     26  C         19.1140   15.3890   -0.8290 C.2    40  SER40       0.2643
     27  O         19.8290   16.3380   -0.4860 O.2    40  SER40      -0.2714
     28  CB        20.3060   13.2400   -1.2450 C.3    40  SER40       0.2130
     29  OG        21.5230   12.8940   -0.6050 O.3    40  SER40      -0.2179
     30  N         18.0590   15.5170   -1.6600 N.am   41  PHE41      -0.1959
     31  CA        17.7400   16.8190   -2.2190 C.3    41  PHE41       0.1774
     32  C         16.3680   17.3700   -1.8280 C.2    41  PHE41       0.2659
     33  O         15.8550   18.2800   -2.4890 O.2    41  PHE41      -0.2711
     34  CB        18.0220   16.8800   -3.7250 C.3    41  PHE41       0.0574
     35  CG        17.5520   15.6770   -4.4880 C.ar   41  PHE41      -0.0200
     36  CD1       16.2010   15.4860   -4.7540 C.ar   41  PHE41      -0.0042
     37  CD2       18.4540   14.7210   -4.9280 C.ar   41  PHE41      -0.0042
     38  CE1       15.7660   14.3780   -5.4720 C.ar   41  PHE41      -0.0003
     39  CE2       18.0120   13.5900   -5.6110 C.ar   41  PHE41      -0.0003
     40  CZ        16.6750   13.4340   -5.8910 C.ar   41  PHE41      -0.0000
     41  N         15.8180   16.8750   -0.7240 N.am   42  GLY42      -0.1716
     42  CA        14.5370   17.3650   -0.2460 C.2    42  GLY42       0.1480
     43  C         14.0630   16.7630    1.0580 C.2    42  GLY42       0.2820
     44  O         14.8420   16.1690    1.7960 O.2    42  GLY42      -0.2669
     45  N         12.7720   16.9240    1.3520 N.am   43  ARG43      -0.1929
     46  CA        12.1540   16.3850    2.5530 C.3    43  ARG43       0.1732
     47  C         10.6900   16.1120    2.2940 C.2    43  ARG43       0.2616
     48  O         10.1380   16.6330    1.3330 O.2    43  ARG43      -0.2715
     49  CB        12.3170   17.3540    3.7400 C.3    43  ARG43       0.0348
     50  CG        11.6820   18.7270    3.5300 C.3    43  ARG43       0.0492
     51  CD        11.9290   19.6570    4.6910 C.3    43  ARG43       0.2205
     52  NE        13.3390   20.0390    4.8280 N.pl3  43  ARG43      -0.0865
     53  CZ        14.0230   19.9730    5.9690 C.cat  43  ARG43       0.5346
     54  NH1       13.4420   19.5250    7.0750 N.pl3  43  ARG43       0.1354
     55  NH2       15.2950   20.3460    6.0100 N.pl3  43  ARG43       0.1354
     56  N         10.0610   15.3140    3.1560 N.am   44  VAL44      -0.1977
     57  CA         8.6380   15.0640    3.0890 C.3    44  VAL44       0.1596
     58  C          8.0840   15.7260    4.3200 C.2    44  VAL44       0.2287
     59  O          8.5190   15.4180    5.4370 O.2    44  VAL44      -0.2864
     60  CB         8.2090   13.5690    2.9370 C.3    44  VAL44       0.0276
     61  CG1        6.7380   13.3650    3.3070 C.3    44  VAL44       0.0022
     62  CG2        8.4600   13.0930    1.5160 C.3    44  VAL44       0.0022
     63  N          1.2020   14.5070    2.7240 N.3    57  ALA57      -0.1245
     64  CA         2.6490   14.4400    2.8250 C.3    57  ALA57       0.1562
     65  C          3.1500   15.0800    1.5240 C.2    57  ALA57       0.2260
     66  O          2.8690   14.5870    0.4280 O.2    57  ALA57      -0.2867
     67  CB         3.1130   12.9970    2.9300 C.3    57  ALA57       0.0290
     68  N          6.3950   16.2320   -0.6610 N.3    59  LYS59      -0.1245
     69  CA         7.8150   16.0240   -0.9040 C.3    59  LYS59       0.1561
     70  C          8.2790   17.3060   -1.5770 C.2    59  LYS59       0.2260
     71  O          7.6880   17.7290   -2.5690 O.2    59  LYS59      -0.2867
     72  CB         8.0390   14.8060   -1.8110 C.3    59  LYS59       0.0271
     73  CG         9.5020   14.4960   -2.1000 C.3    59  LYS59       0.0035
     74  CD         9.7300   13.1240   -2.7610 C.3    59  LYS59       0.0206
     75  CE         9.6920   12.0040   -1.7480 C.3    59  LYS59       0.1093
     76  NZ        10.2790   10.7480   -2.2710 N.3    59  LYS59      -0.1314
     77  N         11.4870   19.0780   -3.2720 N.3    61  LEU61      -0.1245
     78  CA        12.8560   18.8760   -3.7630 C.3    61  LEU61       0.1561
     79  C         13.4460   20.1950   -4.2000 C.2    61  LEU61       0.2260
     80  O         12.7840   20.9690   -4.8870 O.2    61  LEU61      -0.2867
     81  CB        12.9850   17.8630   -4.9220 C.3    61  LEU61       0.0270
     82  CG        12.6330   16.3840   -4.7120 C.3    61  LEU61       0.0019
     83  CD1       12.8200   15.9120   -3.2560 C.3    61  LEU61       0.0001
     84  CD2       11.2740   16.1130   -5.2030 C.3    61  LEU61       0.0001
     85  N         10.0850    9.7770  -11.5020 N.3    78  GLU78      -0.1245
     86  CA         9.3350    9.7050  -10.2520 C.3    78  GLU78       0.1567
     87  C          7.9690   10.4470  -10.3520 C.2    78  GLU78       0.2260
     88  O          6.9300    9.8260  -10.0940 O.2    78  GLU78      -0.2867
     89  CB        10.1910   10.3020   -9.1390 C.3    78  GLU78       0.0388
     90  CG         9.3810   10.6500   -7.9170 C.3    78  GLU78       0.1160
     91  CD        10.1530   10.8890   -6.6520 C.2    78  GLU78       0.3649
     92  OE1       11.2110   11.5630   -6.6830 O.co2  78  GLU78      -0.2457
     93  OE2        9.6220   10.4820   -5.5980 O.co2  78  GLU78      -0.2457
     94  N          1.5810    4.8090   -2.4610 N.3    91  VAL91      -0.1245
     95  CA         1.1460    6.1350   -1.9820 C.3    91  VAL91       0.1561
     96  C          0.5050    6.9210   -3.1440 C.2    91  VAL91       0.2260
     97  O          1.0500    6.9440   -4.2340 O.2    91  VAL91      -0.2867
     98  CB         2.2690    6.9510   -1.2500 C.3    91  VAL91       0.0252
     99  CG1        1.6760    8.1240   -0.4860 C.3    91  VAL91       0.0019
    100  CG2        3.0420    6.0870   -0.2690 C.3    91  VAL91       0.0019
    101  N          1.4490   14.0970   -1.7200 N.3   107  MET107     -0.1230
    102  CA         0.9980   12.7280   -1.5860 C.3   107  MET107      0.1702
    103  C          0.0500   12.5310   -0.4030 C.2   107  MET107      0.2592
    104  O         -0.0210   13.3470    0.5130 O.2   107  MET107     -0.2718
    105  CB         2.1990   11.7880   -1.3990 C.3   107  MET107      0.0401
    106  CG         3.3700   12.0440   -2.3030 C.3   107  MET107      0.0596
    107  SD         4.7610   11.1600   -1.5640 S.3   107  MET107     -0.1393
    108  CE         4.5570    9.6260   -2.4100 C.3   107  MET107      0.0692
    109  N         -0.6300   11.4020   -0.4100 N.am  108  GLU108     -0.1966
    110  CA        -1.5330   10.9740    0.6420 C.3   108  GLU108      0.1733
    111  C         -0.6980   10.7600    1.9080 C.2   108  GLU108      0.2616
    112  O          0.3950   10.1770    1.8350 O.2   108  GLU108     -0.2715
    113  CB        -2.1650    9.6540    0.2070 C.3   108  GLU108      0.0429
    114  CG        -3.2870    9.1510    1.0780 C.3   108  GLU108      0.1163
    115  CD        -4.0310    8.0820    0.3170 C.2   108  GLU108      0.3649
    116  OE1       -3.7670    6.8860    0.5770 O.co2 108  GLU108     -0.2457
    117  OE2       -4.7720    8.4430   -0.6280 O.co2 108  GLU108     -0.2457
    118  N         -1.1760   11.3030    3.0490 N.am  109  TYR109     -0.1960
    119  CA        -0.4880   11.1300    4.3160 C.3   109  TYR109      0.1771
    120  C         -0.7490    9.7100    4.8360 C.2   109  TYR109      0.2619
    121  O         -1.9000    9.3040    5.0230 O.2   109  TYR109     -0.2715
    122  CB        -0.8880   12.2100    5.3350 C.3   109  TYR109      0.0574
    123  CG        -0.2190   12.0340    6.6860 C.ar  109  TYR109     -0.0198
    124  CD1        1.1540   11.8190    6.7840 C.ar  109  TYR109     -0.0009
    125  CD2       -0.9670   12.0260    7.8640 C.ar  109  TYR109     -0.0009
    126  CE1        1.7640   11.5920    8.0180 C.ar  109  TYR109      0.0417
    127  CE2       -0.3600   11.8240    9.1080 C.ar  109  TYR109      0.0417
    128  CZ         1.0080   11.6240    9.1770 C.ar  109  TYR109      0.1957
    129  OH         1.6350   11.4310   10.3770 O.3   109  TYR109     -0.2866
    130  N          0.3250    8.9280    4.9560 N.am  110  VAL110     -0.1977
    131  CA         0.2710    7.5640    5.4710 C.3   110  VAL110      0.1596
    132  C          0.6960    7.7440    6.9170 C.2   110  VAL110      0.2287
    133  O          1.8130    8.2100    7.1790 O.2   110  VAL110     -0.2864
    134  CB         1.1120    6.5620    4.6660 C.3   110  VAL110      0.0276
    135  CG1        0.6700    5.1500    4.9850 C.3   110  VAL110      0.0022
    136  CG2        0.9850    6.8130    3.1600 C.3   110  VAL110      0.0022
    137  N          6.8100    4.3140    8.9900 N.3   114  GLU114     -0.1245
    138  CA         7.5100    3.4000    8.1090 C.3   114  GLU114      0.1567
    139  C          7.5940    2.0490    8.7510 C.2   114  GLU114      0.2260
    140  O          7.7960    1.9580    9.9590 O.2   114  GLU114     -0.2867
    141  CB         8.9500    3.9080    7.8670 C.3   114  GLU114      0.0388
    142  CG         9.0530    5.3640    7.4510 C.3   114  GLU114      0.1160
    143  CD        10.4600    5.9090    7.3170 C.2   114  GLU114      0.3649
    144  OE1       11.4210    5.2010    7.6980 O.co2 114  GLU114     -0.2457
    145  OE2       10.5940    7.0720    6.8700 O.co2 114  GLU114     -0.2457
    146  N         12.2070    1.2530    5.0680 N.3   157  GLU157     -0.1245
    147  CA        12.1550    2.7140    5.1400 C.3   157  GLU157      0.1567
    148  C         11.1480    3.2670    4.1530 C.2   157  GLU157      0.2260
    149  O         10.4550    4.2330    4.4800 O.2   157  GLU157     -0.2867
    150  CB        13.5480    3.3400    4.8620 C.3   157  GLU157      0.0388
    151  CG        14.6430    2.9740    5.8530 C.3   157  GLU157      0.1160
    152  CD        15.4580    1.7230    5.5860 C.2   157  GLU157      0.3649
    153  OE1       14.8850    0.7120    5.1270 O.co2 157  GLU157     -0.2457
    154  OE2       16.6710    1.7350    5.8860 O.co2 157  GLU157     -0.2457
    155  N          5.3410    2.4060    3.9760 N.3   160  LEU160     -0.1245
    156  CA         4.5700    3.0370    5.0380 C.3   160  LEU160      0.1561
    157  C          3.3300    2.2320    5.4210 C.2   160  LEU160      0.2260
    158  O          2.6020    1.7410    4.5450 O.2   160  LEU160     -0.2867
    159  CB         4.1760    4.4460    4.6200 C.3   160  LEU160      0.0270
    160  CG         5.2910    5.3140    4.1200 C.3   160  LEU160      0.0019
    161  CD1        4.7460    6.3760    3.3310 C.3   160  LEU160      0.0001
    162  CD2        6.0590    5.9190    5.2530 C.3   160  LEU160      0.0001
    163  N          6.3790    4.2070   -0.8300 N.3   170  THR170     -0.1203
    164  CA         6.7700    5.5830   -1.1210 C.3   170  THR170      0.1994
    165  C          8.1250    5.5920   -1.8390 C.2   170  THR170      0.2617
    166  O          8.6580    4.5280   -2.1810 O.2   170  THR170     -0.2717
    167  CB         6.6550    6.4170    0.1670 C.3   170  THR170      0.1784
    168  OG1        6.2890    7.7610   -0.1400 O.3   170  THR170     -0.2211
    169  CG2        7.8820    6.3030    1.1020 C.3   170  THR170      0.0376
    170  N          8.6590    6.8000   -2.0920 N.am  171  ASP171     -0.1973
    171  CA         9.9840    7.0640   -2.6530 C.3   171  ASP171      0.1709
    172  C         10.2260    6.4750   -3.9650 C.2   171  ASP171      0.2293
    173  O         10.8680    5.4290   -4.0960 O.2   171  ASP171     -0.2864
    174  CB        11.1000    6.8100   -1.6170 C.3   171  ASP171      0.1436
    175  CG        10.8660    7.6450   -0.3630 C.2   171  ASP171      0.3671
    176  OD1       10.0880    8.6380   -0.4400 O.co2 171  ASP171     -0.2456
    177  OD2       11.3680    7.2560    0.7050 O.co2 171  ASP171     -0.2456
    178  N          6.1680    8.8120   13.3160 N.3   313  PHE313     -0.1241
    179  CA         7.3460    9.2590   12.5680 C.3   313  PHE313      0.1605
    180  C          8.3870    9.9150   13.4890 C.2   313  PHE313      0.2264
    181  O          8.0160   10.6240   14.4290 O.2   313  PHE313     -0.2867
    182  CB         6.9460   10.2570   11.4740 C.3   313  PHE313      0.0534
    183  CG         6.1400    9.6650   10.3520 C.ar  313  PHE313     -0.0203
    184  CD1        6.7570    9.2160    9.1960 C.ar  313  PHE313     -0.0042
    185  CD2        4.7530    9.5930   10.4320 C.ar  313  PHE313     -0.0042
    186  CE1        6.0110    8.6510    8.1650 C.ar  313  PHE313     -0.0003
    187  CE2        4.0080    9.0300    9.3980 C.ar  313  PHE313     -0.0003
    188  CZ         4.6410    8.5740    8.2660 C.ar  313  PHE313     -0.0000
@<TRIPOS>BOND
     1    85    86    1
     2    87    86    1
     3    87    88    2
     4    86    89    1
     5    89    90    1
     6    90    91    1
     7    92    91   ar
     8    91    93   ar
     9    40    39   ar
    10    40    38   ar
    11    39    37   ar
    12    38    36   ar
    13    84    82    1
    14    37    35   ar
    15    81    82    1
    16    81    78    1
    17    80    79    2
    18    36    35   ar
    19    82    83    1
    20    35    34    1
    21    97    96    2
    22    79    78    1
    23   173   172    2
    24   172   171    1
    25    78    77    1
    26    34    31    1
    27    96    95    1
    28    74    73    1
    29    74    75    1
    30   171   170    1
    31   171   174    1
    32    71    70    2
    33    33    32    2
    34    94    95    1
    35   108   107    1
    36   106   107    1
    37   106   105    1
    38    76    75    1
    39    31    32    1
    40    31    30    1
    41   166   165    2
    42    73    72    1
    43   170   165   am
    44    95    98    1
    45   165   164    1
    46    32    41    1
    47    72    69    1
    48   101   102    1
    49    30    26   am
    50   174   175    1
    51   102   105    1
    52   102   103    1
    53    70    69    1
    54    98    99    1
    55    98   100    1
    56    28    29    1
    57    28    25    1
    58   164   163    1
    59   164   167    1
    60    69    68    1
    61    26    27    2
    62    26    25    1
    63    41    42    2
    64   117   115   ar
    65   176   175   ar
    66   109   103   am
    67   109   110    1
    68   103   104    2
    69   175   177   ar
    70    25    24    1
    71    42    43    1
    72   168   167    1
    73    24    22   am
    74   167   169    1
    75   113   110    1
    76   113   114    1
    77   115   116   ar
    78   115   114    1
    79    66    65    2
    80   110   111    1
    81    22    21    1
    82    22    23    2
    83    43    45   am
    84    43    44    2
    85    21    20    1
    86    48    47    2
    87    45    46    1
    88    62    60    1
    89    65    64    1
    90   112   111    2
    91   111   118   am
    92    47    46    1
    93    47    56   am
    94    20    15   am
    95    46    49    1
    96    63    64    1
    97    64    67    1
    98    60    57    1
    99    60    61    1
   100   118   119    1
   101    57    56    1
   102    57    58    1
   103   136   134    1
   104   161   160    1
   105    16    15    2
   106    15    14    1
   107    50    49    1
   108    50    51    1
   109   155   156    1
   110   160   159    1
   111   160   162    1
   112   148   149    2
   113   148   147    1
   114   119   120    1
   115   119   122    1
   116    58    59    2
   117   158   157    2
   118   159   156    1
   119    14    13    1
   120    14    17    1
   121   134   135    1
   122   134   131    1
   123    51    52    1
   124    52    53    2
   125   120   130   am
   126   120   121    2
   127   150   147    1
   128   150   151    1
   129   130   131    1
   130   156   157    1
   131   146   147    1
   132   153   152   ar
   133    13    11   am
   134   122   123    1
   135   131   132    1
   136    12    11    2
   137   152   151    1
   138   152   154   ar
   139    19    17    1
   140    11    10    1
   141    17    18    1
   142    53    55    1
   143    53    54    1
   144    10     9    1
   145     7     6    1
   146   123   124   ar
   147   123   125   ar
   148   124   126   ar
   149   145   143   ar
   150     9     3   am
   151   132   133    2
   152     5     6    1
   153     5     2    1
   154   143   142    1
   155   143   144   ar
   156   142   141    1
   157     6     8    1
   158     3     2    1
   159     3     4    2
   160   125   127   ar
   161   141   138    1
   162     1     2    1
   163   126   128   ar
   164   138   139    1
   165   138   137    1
   166   186   188   ar
   167   186   184   ar
   168   188   187   ar
   169   139   140    2
   170   127   128   ar
   171   128   129    1
   172   184   183   ar
   173   187   185   ar
   174   183   185   ar
   175   183   182    1
   176   182   179    1
   177   179   178    1
   178   179   180    1
   179   180   181    2
