@<TRIPOS>MOLECULE
tmp/4ijhA00.pdb
 96 88 0 0 0
SMALL
GASTEIGER

@<TRIPOS>ATOM
      1  N         16.5700  -16.3100   14.3950 N.3    34  ARG34      -0.1245
      2  CA        16.9390  -17.3840   15.3130 C.3    34  ARG34       0.1563
      3  C         15.8070  -17.6350   16.2770 C.2    34  ARG34       0.2260
      4  O         15.0610  -16.7330   16.5670 O.2    34  ARG34      -0.2867
      5  CB        18.1780  -17.0200   16.0960 C.3    34  ARG34       0.0307
      6  CG        17.9450  -15.9540   17.1130 C.3    34  ARG34       0.0489
      7  CD        19.2040  -15.7620   17.9640 C.3    34  ARG34       0.2205
      8  NE        19.0000  -14.7960   19.0370 N.pl3  34  ARG34      -0.0865
      9  CZ        18.5830  -15.0890   20.2640 C.cat  34  ARG34       0.5346
     10  NH1       18.2800  -16.3470   20.6270 N.pl3  34  ARG34       0.1354
     11  NH2       18.4430  -14.0890   21.1360 N.pl3  34  ARG34       0.1354
     12  N         14.2100  -18.1510   20.0520 N.3    36  ILE36      -0.1231
     13  CA        14.5530  -17.8560   21.4370 C.3    36  ILE36       0.1692
     14  C         14.1370  -19.0330   22.3280 C.2    36  ILE36       0.2592
     15  O         13.4460  -19.9520   21.9010 O.2    36  ILE36      -0.2718
     16  CB        13.9060  -16.5560   21.9360 C.3    36  ILE36       0.0266
     17  CG1       12.3850  -16.6130   21.8480 C.3    36  ILE36       0.0019
     18  CG2       14.4180  -15.3680   21.1300 C.3    36  ILE36       0.0020
     19  CD1       11.7010  -15.4310   22.5610 C.3    36  ILE36       0.0001
     20  N         14.5640  -18.9940   23.5870 N.am   37  THR37      -0.1953
     21  CA        14.3080  -20.0760   24.5270 C.3    37  THR37       0.1897
     22  C         12.9070  -19.9560   25.1050 C.2    37  THR37       0.2313
     23  O         12.6390  -18.9990   25.8490 O.2    37  THR37      -0.2863
     24  CB        15.3100  -20.0160   25.6760 C.3    37  THR37       0.1794
     25  OG1       16.6520  -20.0030   25.1470 O.3    37  THR37      -0.2208
     26  CG2       15.1460  -21.2380   26.5620 C.3    37  THR37       0.0378
     27  N         13.0970  -14.6260   16.6430 N.3    46  ARG46      -0.1245
     28  CA        13.5940  -13.2690   16.6930 C.3    46  ARG46       0.1563
     29  C         14.3920  -12.9590   15.4310 C.2    46  ARG46       0.2260
     30  O         15.1080  -13.8070   14.9020 O.2    46  ARG46      -0.2867
     31  CB        14.4690  -13.1530   17.9360 C.3    46  ARG46       0.0307
     32  CG        15.1140  -11.8060   18.1610 C.3    46  ARG46       0.0489
     33  CD        15.8280  -11.7510   19.4960 C.3    46  ARG46       0.2205
     34  NE        16.4670  -10.4630   19.6890 N.pl3  46  ARG46      -0.0865
     35  CZ        17.0740  -10.1070   20.7990 C.cat  46  ARG46       0.5346
     36  NH1       17.0840  -10.9510   21.8210 N.pl3  46  ARG46       0.1354
     37  NH2       17.6200   -8.9000   20.8820 N.pl3  46  ARG46       0.1354
     38  N         15.6040   -6.4620   17.5130 N.3    58  SER58      -0.1217
     39  CA        14.4700   -6.6470   18.4080 C.3    58  SER58       0.1889
     40  C         13.1350   -6.8260   17.6920 C.2    58  SER58       0.2288
     41  O         12.1240   -6.3180   18.1160 O.2    58  SER58      -0.2866
     42  CB        14.3890   -5.5060   19.4110 C.3    58  SER58       0.2089
     43  OG        14.0800   -4.2820   18.7870 O.3    58  SER58      -0.2183
     44  N         10.3730   -9.7110   16.4330 N.3    60  MET60      -0.1245
     45  CA         9.8840  -11.0650   16.6470 C.3    60  MET60       0.1570
     46  C          8.7660  -11.3370   15.6480 C.2    60  MET60       0.2261
     47  O          8.0020  -10.4380   15.3090 O.2    60  MET60      -0.2867
     48  CB         9.3240  -11.2230   18.0630 C.3    60  MET60       0.0387
     49  CG        10.3360  -11.0190   19.1860 C.3    60  MET60       0.0595
     50  SD        11.4100  -12.4410   19.4870 S.3    60  MET60      -0.1393
     51  CE        10.2160  -13.7320   19.8480 C.3    60  MET60       0.0692
     52  N          8.7480   -4.7580   27.3000 N.3    90  LEU90      -0.1245
     53  CA         8.9110   -5.7090   28.3830 C.3    90  LEU90       0.1561
     54  C          9.2790   -4.9930   29.6880 C.2    90  LEU90       0.2260
     55  O          9.4840   -3.7820   29.7300 O.2    90  LEU90      -0.2867
     56  CB         9.9620   -6.7510   27.9610 C.3    90  LEU90       0.0270
     57  CG         9.3530   -7.9090   27.1290 C.3    90  LEU90       0.0019
     58  CD1        8.7780   -7.5170   25.8080 C.3    90  LEU90       0.0001
     59  CD2       10.3920   -9.0490   26.9490 C.3    90  LEU90       0.0001
     60  N         11.8010   -4.8440   31.5510 N.3    92  ASP92      -0.1239
     61  CA        13.0810   -4.1780   31.6500 C.3    92  ASP92       0.1674
     62  C         13.1620   -2.9010   30.8060 C.2    92  ASP92       0.2266
     63  O         14.1550   -2.1890   30.8490 O.2    92  ASP92      -0.2867
     64  CB        14.2260   -5.1620   31.3400 C.3    92  ASP92       0.1410
     65  CG        14.3630   -5.5000   29.8550 C.2    92  ASP92       0.3668
     66  OD1       13.3750   -5.3920   29.1050 O.co2  92  ASP92      -0.2456
     67  OD2       15.4700   -5.9070   29.4410 O.co2  92  ASP92      -0.2456
     68  N         12.9700   -2.7410   27.4480 N.3    94  ARG94      -0.1231
     69  CA        13.2690   -2.9730   26.0480 C.3    94  ARG94       0.1694
     70  C         12.0110   -3.1960   25.2320 C.2    94  ARG94       0.2592
     71  O         11.0210   -3.7370   25.7200 O.2    94  ARG94      -0.2718
     72  CB        14.2100   -4.1540   25.8740 C.3    94  ARG94       0.0321
     73  CG        15.5990   -3.8370   26.3320 C.3    94  ARG94       0.0489
     74  CD        16.5360   -4.9260   25.8760 C.3    94  ARG94       0.2205
     75  NE        16.4730   -6.0750   26.7670 N.pl3  94  ARG94      -0.0865
     76  CZ        16.9530   -7.2750   26.4650 C.cat  94  ARG94       0.5346
     77  NH1       16.8670   -8.2560   27.3550 N.pl3  94  ARG94       0.1354
     78  NH2       17.5270   -7.4820   25.2880 N.pl3  94  ARG94       0.1354
     79  N         12.0880   -2.8000   23.9690 N.am   95  ARG95      -0.1966
     80  CA        10.9600   -2.9090   23.0730 C.3    95  ARG95       0.1729
     81  C         11.1770   -3.9630   22.0350 C.2    95  ARG95       0.2616
     82  O         12.3210   -4.2420   21.6540 O.2    95  ARG95      -0.2715
     83  CB        10.6550   -1.5580   22.4730 C.3    95  ARG95       0.0348
     84  CG         9.9420   -0.7710   23.5440 C.3    95  ARG95       0.0492
     85  CD         9.7540    0.5950   23.1800 C.3    95  ARG95       0.2205
     86  NE         8.7730    1.2660   24.0290 N.pl3  95  ARG95      -0.0865
     87  CZ         8.4890    2.5550   23.9050 C.cat  95  ARG95       0.5346
     88  NH1        9.1090    3.2710   22.9700 N.pl3  95  ARG95       0.1354
     89  NH2        7.5960    3.1260   24.6620 N.pl3  95  ARG95       0.1354
     90  N         10.0780   -4.5900   21.6440 N.am   96  VAL96      -0.1977
     91  CA        10.1000   -5.6670   20.6850 C.3    96  VAL96       0.1596
     92  C          9.0550   -5.3330   19.6430 C.2    96  VAL96       0.2287
     93  O          7.9040   -5.0370   19.9580 O.2    96  VAL96      -0.2864
     94  CB         9.7420   -7.0080   21.3160 C.3    96  VAL96       0.0276
     95  CG1        9.7830   -8.1190   20.2620 C.3    96  VAL96       0.0022
     96  CG2       10.6810   -7.3300   22.4320 C.3    96  VAL96       0.0022
@<TRIPOS>BOND
     1     1     2    1
     2    30    29    2
     3    47    46    2
     4     2     5    1
     5     2     3    1
     6    29    28    1
     7    46    45    1
     8     5     6    1
     9     3     4    2
    10    44    45    1
    11    27    28    1
    12    45    48    1
    13    28    31    1
    14     6     7    1
    15    38    39    1
    16    40    41    2
    17    40    39    1
    18    31    32    1
    19     7     8    1
    20    48    49    1
    21    32    33    1
    22    39    42    1
    23    43    42    1
    24     8     9    2
    25    49    50    1
    26    50    51    1
    27    33    34    1
    28    92    93    2
    29    92    91    1
    30    34    35    2
    31    12    13    1
    32    95    94    1
    33     9    10    1
    34     9    11    1
    35    91    94    1
    36    91    90    1
    37    35    37    1
    38    35    36    1
    39    18    16    1
    40    94    96    1
    41    13    16    1
    42    13    14    1
    43    90    81   am
    44    82    81    2
    45    17    16    1
    46    17    19    1
    47    15    14    2
    48    81    80    1
    49    14    20   am
    50    83    80    1
    51    83    84    1
    52    88    87    1
    53    80    79    1
    54    85    84    1
    55    85    86    1
    56    20    21    1
    57    87    86    2
    58    87    89    1
    59    79    70   am
    60    21    22    1
    61    21    24    1
    62    22    23    2
    63    25    24    1
    64    70    71    2
    65    70    69    1
    66    78    76    1
    67    24    26    1
    68    58    57    1
    69    72    69    1
    70    72    73    1
    71    74    73    1
    72    74    75    1
    73    69    68    1
    74    76    75    2
    75    76    77    1
    76    59    57    1
    77    57    56    1
    78    52    53    1
    79    56    53    1
    80    53    54    1
    81    66    65   ar
    82    67    65   ar
    83    54    55    2
    84    65    64    1
    85    62    63    2
    86    62    61    1
    87    64    61    1
    88    60    61    1
