@<TRIPOS>MOLECULE
tmp/4ijhA01.pdb
 95 87 0 0 0
SMALL
GASTEIGER

@<TRIPOS>ATOM
      1  N         14.2100  -18.1510   20.0520 N.3    36  ILE36      -0.1231
      2  CA        14.5530  -17.8560   21.4370 C.3    36  ILE36       0.1692
      3  C         14.1370  -19.0330   22.3280 C.2    36  ILE36       0.2593
      4  O         13.4460  -19.9520   21.9010 O.2    36  ILE36      -0.2718
      5  CB        13.9060  -16.5560   21.9360 C.3    36  ILE36       0.0266
      6  CG1       12.3850  -16.6130   21.8480 C.3    36  ILE36       0.0019
      7  CG2       14.4180  -15.3680   21.1300 C.3    36  ILE36       0.0020
      8  CD1       11.7010  -15.4310   22.5610 C.3    36  ILE36       0.0001
      9  N         14.5640  -18.9940   23.5870 N.am   37  THR37      -0.1939
     10  CA        14.3080  -20.0760   24.5270 C.3    37  THR37       0.2028
     11  C         12.9070  -19.9560   25.1050 C.2    37  THR37       0.2642
     12  O         12.6390  -18.9990   25.8490 O.2    37  THR37      -0.2714
     13  CB        15.3100  -20.0160   25.6760 C.3    37  THR37       0.1808
     14  OG1       16.6520  -20.0030   25.1470 O.3    37  THR37      -0.2208
     15  CG2       15.1460  -21.2380   26.5620 C.3    37  THR37       0.0379
     16  N         12.0160  -20.8970   24.7920 N.am   38  THR38      -0.1950
     17  CA        10.6220  -20.7350   25.2270 C.3    38  THR38       0.1897
     18  C         10.0600  -21.8620   26.0960 C.2    38  THR38       0.2313
     19  O          8.8790  -21.8500   26.4530 O.2    38  THR38      -0.2863
     20  CB         9.6940  -20.6060   24.0190 C.3    38  THR38       0.1794
     21  OG1        9.7400  -21.8210   23.2880 O.3    38  THR38      -0.2208
     22  CG2       10.1100  -19.4810   23.1270 C.3    38  THR38       0.0378
     23  N          6.3070  -23.8870   25.6120 N.3    41  SER41      -0.1217
     24  CA         5.3280  -23.0660   24.9400 C.3    41  SER41       0.1889
     25  C          5.8060  -23.0320   23.4980 C.2    41  SER41       0.2288
     26  O          6.8540  -23.5980   23.1960 O.2    41  SER41      -0.2866
     27  CB         5.2760  -21.6700   25.5640 C.3    41  SER41       0.2089
     28  OG         6.5250  -21.0190   25.4920 O.3    41  SER41      -0.2183
     29  N          9.4290  -19.5330   19.1550 N.3    44  ARG44      -0.1245
     30  CA         9.2750  -18.1470   18.7590 C.3    44  ARG44       0.1563
     31  C         10.5640  -17.7000   18.1120 C.2    44  ARG44       0.2260
     32  O         11.6600  -18.1150   18.5270 O.2    44  ARG44      -0.2867
     33  CB         8.9400  -17.2860   19.9850 C.3    44  ARG44       0.0307
     34  CG         7.5710  -17.5880   20.6320 C.3    44  ARG44       0.0489
     35  CD         6.3840  -17.4420   19.7040 C.3    44  ARG44       0.2205
     36  NE         6.2640  -16.0860   19.1570 N.pl3  44  ARG44      -0.0865
     37  CZ         5.5510  -15.1050   19.6960 C.cat  44  ARG44       0.5346
     38  NH1        4.8790  -15.2980   20.8060 N.pl3  44  ARG44       0.1354
     39  NH2        5.4980  -13.9180   19.1020 N.pl3  44  ARG44       0.1354
     40  N         10.3730   -9.7110   16.4330 N.3    60  MET60      -0.1245
     41  CA         9.8840  -11.0650   16.6470 C.3    60  MET60       0.1570
     42  C          8.7660  -11.3370   15.6480 C.2    60  MET60       0.2261
     43  O          8.0020  -10.4380   15.3090 O.2    60  MET60      -0.2867
     44  CB         9.3240  -11.2230   18.0630 C.3    60  MET60       0.0387
     45  CG        10.3360  -11.0190   19.1860 C.3    60  MET60       0.0595
     46  SD        11.4100  -12.4410   19.4870 S.3    60  MET60      -0.1393
     47  CE        10.2160  -13.7320   19.8480 C.3    60  MET60       0.0692
     48  N          5.6980   -3.9090   21.5360 N.3    88  ASN88      -0.1240
     49  CA         5.4240   -4.2250   22.9320 C.3    88  ASN88       0.1653
     50  C          6.6590   -3.9200   23.7410 C.2    88  ASN88       0.2266
     51  O          7.7630   -4.0160   23.2460 O.2    88  ASN88      -0.2867
     52  CB         5.0440   -5.7030   23.0850 C.3    88  ASN88       0.1155
     53  CG         3.5560   -5.9220   22.9660 C.2    88  ASN88       0.2627
     54  OD1        2.8020   -5.0490   23.3080 O.2    88  ASN88      -0.2716
     55  ND2        3.1400   -7.0910   22.5010 N.am   88  ASN88      -0.0877
     56  N          8.7480   -4.7580   27.3000 N.3    90  LEU90      -0.1231
     57  CA         8.9110   -5.7090   28.3830 C.3    90  LEU90       0.1693
     58  C          9.2790   -4.9930   29.6880 C.2    90  LEU90       0.2592
     59  O          9.4840   -3.7820   29.7300 O.2    90  LEU90      -0.2718
     60  CB         9.9620   -6.7510   27.9610 C.3    90  LEU90       0.0284
     61  CG         9.3530   -7.9090   27.1290 C.3    90  LEU90       0.0019
     62  CD1        8.7780   -7.5170   25.8080 C.3    90  LEU90       0.0001
     63  CD2       10.3920   -9.0490   26.9490 C.3    90  LEU90       0.0001
     64  N          9.2980   -5.7480   30.7830 N.am   91  LYS91      -0.1966
     65  CA         9.4670   -5.1590   32.1040 C.3    91  LYS91       0.1728
     66  C         10.7630   -4.3910   32.2460 C.2    91  LYS91       0.2616
     67  O         10.8070   -3.3950   32.9840 O.2    91  LYS91      -0.2715
     68  CB         9.3550   -6.2250   33.2050 C.3    91  LYS91       0.0311
     69  CG         7.9350   -6.7440   33.3840 C.3    91  LYS91       0.0038
     70  CD         7.7950   -7.5610   34.6550 C.3    91  LYS91       0.0206
     71  CE         8.9630   -8.4990   34.8630 C.3    91  LYS91       0.1093
     72  NZ         8.7500   -9.3560   36.0620 N.3    91  LYS91      -0.1314
     73  N         11.8010   -4.8440   31.5510 N.am   92  ASP92      -0.1971
     74  CA        13.0810   -4.1780   31.6500 C.3    92  ASP92       0.1709
     75  C         13.1620   -2.9010   30.8060 C.2    92  ASP92       0.2293
     76  O         14.1550   -2.1890   30.8490 O.2    92  ASP92      -0.2864
     77  CB        14.2260   -5.1620   31.3400 C.3    92  ASP92       0.1436
     78  CG        14.3630   -5.5000   29.8550 C.2    92  ASP92       0.3671
     79  OD1       13.3750   -5.3920   29.1050 O.co2  92  ASP92      -0.2456
     80  OD2       15.4700   -5.9070   29.4410 O.co2  92  ASP92      -0.2456
     81  N         10.0780   -4.5900   21.6440 N.3    96  VAL96      -0.1245
     82  CA        10.1000   -5.6670   20.6850 C.3    96  VAL96       0.1561
     83  C          9.0550   -5.3330   19.6430 C.2    96  VAL96       0.2260
     84  O          7.9040   -5.0370   19.9580 O.2    96  VAL96      -0.2867
     85  CB         9.7420   -7.0080   21.3160 C.3    96  VAL96       0.0252
     86  CG1        9.7830   -8.1190   20.2620 C.3    96  VAL96       0.0019
     87  CG2       10.6810   -7.3300   22.4320 C.3    96  VAL96       0.0019
     88  N          6.7700   -6.6580   17.0190 N.3    98  ILE98      -0.1245
     89  CA         6.1720   -7.9170   16.6130 C.3    98  ILE98       0.1561
     90  C          5.5330   -7.7910   15.2520 C.2    98  ILE98       0.2260
     91  O          4.6310   -6.9660   15.0150 O.2    98  ILE98      -0.2867
     92  CB         5.1750   -8.4010   17.6520 C.3    98  ILE98       0.0252
     93  CG1        5.8630   -8.4650   19.0390 C.3    98  ILE98       0.0019
     94  CG2        4.5870   -9.7720   17.2410 C.3    98  ILE98       0.0019
     95  CD1        4.9690   -8.8630   20.1490 C.3    98  ILE98       0.0001
@<TRIPOS>BOND
     1    91    90    2
     2    90    89    1
     3    43    42    2
     4    42    41    1
     5    40    41    1
     6    89    88    1
     7    89    92    1
     8    41    44    1
     9    94    92    1
    10    92    93    1
    11    44    45    1
    12    31    32    2
    13    31    30    1
    14    30    29    1
    15    30    33    1
    16    93    95    1
    17    39    37    1
    18    36    37    2
    19    36    35    1
    20    45    46    1
    21    46    47    1
    22    83    84    2
    23    83    82    1
    24    37    38    1
    25    35    34    1
    26    33    34    1
    27     1     2    1
    28    86    85    1
    29    82    85    1
    30    82    81    1
    31     7     5    1
    32    85    87    1
    33     2     5    1
    34     2     3    1
    35    48    49    1
    36     6     5    1
    37     6     8    1
    38     4     3    2
    39     3     9   am
    40    55    53   am
    41    49    52    1
    42    49    50    1
    43    53    52    1
    44    53    54    2
    45    22    20    1
    46    26    25    2
    47    51    50    2
    48    21    20    1
    49    25    24    1
    50     9    10    1
    51    20    17    1
    52    10    11    1
    53    10    13    1
    54    16    11   am
    55    16    17    1
    56    24    27    1
    57    24    23    1
    58    11    12    2
    59    14    13    1
    60    17    18    1
    61    28    27    1
    62    13    15    1
    63    62    61    1
    64    18    19    2
    65    63    61    1
    66    61    60    1
    67    56    57    1
    68    60    57    1
    69    57    58    1
    70    79    78   ar
    71    80    78   ar
    72    58    59    2
    73    58    64   am
    74    78    77    1
    75    64    65    1
    76    75    76    2
    77    75    74    1
    78    77    74    1
    79    73    74    1
    80    73    66   am
    81    65    66    1
    82    65    68    1
    83    66    67    2
    84    68    69    1
    85    69    70    1
    86    70    71    1
    87    71    72    1
