@<TRIPOS>MOLECULE
tmp/4ijiF00.pdb
 110 108 0 0 0
SMALL
GASTEIGER

@<TRIPOS>ATOM
      1  N         19.4840  -17.4670   -0.8930 N.3     7  ASN7       -0.1240
      2  CA        19.3540  -17.3300   -2.3330 C.3     7  ASN7        0.1653
      3  C         20.7250  -16.9380   -2.8550 C.2     7  ASN7        0.2266
      4  O         21.3890  -16.0840   -2.2710 O.2     7  ASN7       -0.2867
      5  CB        18.3230  -16.2660   -2.6870 C.3     7  ASN7        0.1155
      6  CG        18.3590  -15.9040   -4.1520 C.2     7  ASN7        0.2627
      7  OD1       19.1270  -15.0340   -4.5630 O.2     7  ASN7       -0.2716
      8  ND2       17.5500  -16.5850   -4.9530 N.am    7  ASN7       -0.0877
      9  N         21.7270  -15.3690   -5.5600 N.3     9  ALA9       -0.1231
     10  CA        21.8460  -14.1190   -6.3120 C.3     9  ALA9        0.1694
     11  C         21.8450  -12.8880   -5.4020 C.2     9  ALA9        0.2593
     12  O         22.3700  -11.8300   -5.7590 O.2     9  ALA9       -0.2718
     13  CB        20.7190  -14.0090   -7.3310 C.3     9  ALA9        0.0304
     14  N         21.2340  -13.0140   -4.2320 N.am   10  SER10      -0.1939
     15  CA        21.0600  -11.8490   -3.3580 C.3    10  SER10       0.2040
     16  C         22.3830  -11.3260   -2.8080 C.2    10  SER10       0.2485
     17  O         23.1660  -12.0840   -2.2370 O.2    10  SER10      -0.2729
     18  CB        20.1480  -12.2020   -2.1970 C.3    10  SER10       0.2129
     19  OG        20.2060  -11.1810   -1.2250 O.3    10  SER10      -0.2179
     20  N         22.6340  -10.0140   -2.9600 N.am   11  PRO11      -0.2715
     21  CA        23.8690   -9.4560   -2.4080 C.3    11  PRO11       0.1536
     22  C         23.8040   -9.3280   -0.8950 C.2    11  PRO11       0.2598
     23  O         24.8460   -9.2820   -0.2560 O.2    11  PRO11      -0.2715
     24  CB        23.9510   -8.0860   -3.0690 C.3    11  PRO11       0.0310
     25  CG        22.5080   -7.7010   -3.3090 C.3    11  PRO11       0.0237
     26  CD        21.8010   -8.9960   -3.6360 C.3    11  PRO11       0.0939
     27  N         22.5920   -9.3110   -0.3410 N.am   12  TYR12      -0.1974
     28  CA        22.4010   -9.2500    1.1050 C.3    12  TYR12       0.1639
     29  C         22.7200  -10.6090    1.7230 C.2    12  TYR12       0.2290
     30  O         23.4130  -10.6900    2.7390 O.2    12  TYR12      -0.2864
     31  CB        20.9680   -8.8260    1.4390 C.3    12  TYR12       0.0560
     32  CG        20.5420   -7.5310    0.7710 C.ar   12  TYR12      -0.0198
     33  CD1       20.8840   -6.2930    1.3090 C.ar   12  TYR12      -0.0009
     34  CD2       19.7800   -7.5540   -0.3800 C.ar   12  TYR12      -0.0009
     35  CE1       20.4840   -5.1190    0.6960 C.ar   12  TYR12       0.0417
     36  CE2       19.3670   -6.3930   -0.9880 C.ar   12  TYR12       0.0417
     37  CZ        19.7200   -5.1850   -0.4530 C.ar   12  TYR12       0.1957
     38  OH        19.2840   -4.0520   -1.1000 O.3    12  TYR12      -0.2866
     39  N         12.2880  -16.2380   -3.9930 N.3    35  LEU35      -0.1245
     40  CA        12.1310  -14.7960   -4.0870 C.3    35  LEU35       0.1561
     41  C         10.6950  -14.4750   -4.4800 C.2    35  LEU35       0.2260
     42  O         10.0480  -15.2530   -5.1830 O.2    35  LEU35      -0.2867
     43  CB        13.1010  -14.2230   -5.1210 C.3    35  LEU35       0.0270
     44  CG        14.5750  -14.5580   -4.8830 C.3    35  LEU35       0.0019
     45  CD1       15.4520  -14.0740   -6.0350 C.3    35  LEU35       0.0001
     46  CD2       15.0490  -13.9670   -3.5650 C.3    35  LEU35       0.0001
     47  N         19.1240   -2.6860   -6.5120 N.3   101  VAL101     -0.1245
     48  CA        18.0020   -3.6110   -6.5740 C.3   101  VAL101      0.1561
     49  C         16.7620   -2.9220   -7.1490 C.2   101  VAL101      0.2260
     50  O         16.0600   -3.5030   -7.9840 O.2   101  VAL101     -0.2867
     51  CB        17.7100   -4.2240   -5.2060 C.3   101  VAL101      0.0252
     52  CG1       16.3910   -4.9740   -5.2460 C.3   101  VAL101      0.0019
     53  CG2       18.8610   -5.1540   -4.8010 C.3   101  VAL101      0.0019
     54  N         17.2150   -2.6670  -10.8110 N.3   104  ARG104     -0.1231
     55  CA        17.0390   -4.0210  -11.3500 C.3   104  ARG104      0.1694
     56  C         15.5780   -4.4340  -11.4180 C.2   104  ARG104      0.2592
     57  O         15.1060   -4.9040  -12.4610 O.2   104  ARG104     -0.2718
     58  CB        17.8380   -5.0340  -10.5240 C.3   104  ARG104      0.0321
     59  CG        17.5090   -6.4910  -10.8230 C.3   104  ARG104      0.0489
     60  CD        17.8940   -6.8650  -12.2320 C.3   104  ARG104      0.2205
     61  NE        17.4530   -8.2240  -12.5570 N.pl3 104  ARG104     -0.0865
     62  CZ        17.7360   -8.8330  -13.7000 C.cat 104  ARG104      0.5346
     63  NH1       18.4540   -8.2070  -14.6180 N.pl3 104  ARG104      0.1354
     64  NH2       17.2940  -10.0660  -13.9280 N.pl3 104  ARG104      0.1354
     65  N         14.8500   -4.2770  -10.3160 N.am  105  TYR105     -0.1976
     66  CA        13.4620   -4.7450  -10.2870 C.3   105  TYR105      0.1639
     67  C         12.6140   -3.9810  -11.2800 C.2   105  TYR105      0.2290
     68  O         11.7350   -4.5490  -11.9270 O.2   105  TYR105     -0.2864
     69  CB        12.8530   -4.6100   -8.8880 C.3   105  TYR105      0.0560
     70  CG        13.3040   -5.6600   -7.9040 C.ar  105  TYR105     -0.0198
     71  CD1       14.0960   -6.7320   -8.3040 C.ar  105  TYR105     -0.0009
     72  CD2       12.9320   -5.5770   -6.5680 C.ar  105  TYR105     -0.0009
     73  CE1       14.5090   -7.6910   -7.3950 C.ar  105  TYR105      0.0417
     74  CE2       13.3350   -6.5270   -5.6540 C.ar  105  TYR105      0.0417
     75  CZ        14.1220   -7.5770   -6.0710 C.ar  105  TYR105      0.1957
     76  OH        14.5200   -8.5210   -5.1540 O.3   105  TYR105     -0.2866
     77  N         27.4440   -6.9760   -7.1290 N.3   159  TYR159     -0.1241
     78  CA        26.0700   -6.9020   -7.5990 C.3   159  TYR159      0.1605
     79  C         25.9440   -5.9380   -8.7830 C.2   159  TYR159      0.2264
     80  O         25.1520   -6.1690   -9.7020 O.2   159  TYR159     -0.2867
     81  CB        25.1200   -6.5120   -6.4600 C.3   159  TYR159      0.0534
     82  CG        23.6800   -6.6430   -6.8580 C.ar  159  TYR159     -0.0201
     83  CD1       23.0810   -7.8900   -6.9620 C.ar  159  TYR159     -0.0009
     84  CD2       22.9280   -5.5200   -7.1550 C.ar  159  TYR159     -0.0009
     85  CE1       21.7550   -8.0140   -7.3430 C.ar  159  TYR159      0.0417
     86  CE2       21.6100   -5.6280   -7.5360 C.ar  159  TYR159      0.0417
     87  CZ        21.0280   -6.8700   -7.6250 C.ar  159  TYR159      0.1957
     88  OH        19.7110   -6.9520   -8.0130 O.3   159  TYR159     -0.2866
     89  N         27.0990   -7.7380  -11.7950 N.3   162  PHE162     -0.1227
     90  CA        26.1290   -8.7930  -12.0960 C.3   162  PHE162      0.1736
     91  C         24.8770   -8.2650  -12.7960 C.2   162  PHE162      0.2595
     92  O         24.4870   -8.7670  -13.8540 O.2   162  PHE162     -0.2718
     93  CB        25.7610   -9.4610  -10.7650 C.3   162  PHE162      0.0547
     94  CG        24.7020  -10.5310  -10.8610 C.ar  162  PHE162     -0.0202
     95  CD1       24.7400  -11.5040  -11.8540 C.ar  162  PHE162     -0.0042
     96  CD2       23.6900  -10.5780   -9.9120 C.ar  162  PHE162     -0.0042
     97  CE1       23.7610  -12.4950  -11.9070 C.ar  162  PHE162     -0.0003
     98  CE2       22.7170  -11.5580   -9.9530 C.ar  162  PHE162     -0.0003
     99  CZ        22.7480  -12.5160  -10.9470 C.ar  162  PHE162     -0.0000
    100  N         24.2420   -7.2510  -12.2130 N.am  163  ARG163     -0.1980
    101  CA        22.9550   -6.7870  -12.7210 C.3   163  ARG163      0.1597
    102  C         23.0590   -5.5390  -13.5680 C.2   163  ARG163      0.2287
    103  O         22.1910   -5.2880  -14.3970 O.2   163  ARG163     -0.2864
    104  CB        21.9780   -6.5200  -11.5730 C.3   163  ARG163      0.0334
    105  CG        21.4820   -7.7740  -10.8730 C.3   163  ARG163      0.0492
    106  CD        21.0410   -8.8200  -11.8760 C.3   163  ARG163      0.2205
    107  NE        20.2230   -9.8600  -11.2660 N.pl3 163  ARG163     -0.0865
    108  CZ        19.8690  -10.9800  -11.8970 C.cat 163  ARG163      0.5346
    109  NH1       20.2760  -11.1880  -13.1380 N.pl3 163  ARG163      0.1354
    110  NH2       19.1230  -11.8890  -11.2840 N.pl3 163  ARG163      0.1354
@<TRIPOS>BOND
     1    63    62    1
     2   103   102    2
     3    64    62    1
     4    92    91    2
     5    62    61    2
     6   102   101    1
     7   109   108    1
     8    91   100   am
     9    91    90    1
    10   101   100    1
    11   101   104    1
    12    61    60    1
    13    57    56    2
    14    60    59    1
    15    90    89    1
    16    90    93    1
    17    68    67    2
    18    97    95   ar
    19    97    99   ar
    20   108   110    1
    21   108   107    2
    22   106   107    1
    23   106   105    1
    24    95    94   ar
    25   104   105    1
    26    56    55    1
    27    56    65   am
    28    55    54    1
    29    55    58    1
    30    67    66    1
    31    99    98   ar
    32    94    93    1
    33    94    96   ar
    34    59    58    1
    35    65    66    1
    36    66    69    1
    37    98    96   ar
    38    80    79    2
    39    69    70    1
    40    79    78    1
    41    71    70   ar
    42    71    73   ar
    43    88    87    1
    44    50    49    2
    45    70    72   ar
    46    87    86   ar
    47    87    85   ar
    48    78    77    1
    49    78    81    1
    50    86    84   ar
    51    73    75   ar
    52    85    83   ar
    53    13    10    1
    54    84    82   ar
    55    49    48    1
    56    83    82   ar
    57    82    81    1
    58    48    47    1
    59    48    51    1
    60    72    74   ar
    61    10     9    1
    62    10    11    1
    63    75    74   ar
    64    75    76    1
    65    45    44    1
    66    12    11    2
    67    11    14   am
    68    52    51    1
    69    51    53    1
    70    42    41    2
    71    43    44    1
    72    43    40    1
    73     8     6   am
    74    44    46    1
    75     7     6    2
    76    41    40    1
    77    14    15    1
    78     6     5    1
    79    40    39    1
    80    26    25    1
    81    26    20    1
    82    15    16    1
    83    15    18    1
    84    25    24    1
    85    24    21    1
    86    20    16   am
    87    20    21    1
    88     3     2    1
    89     3     4    2
    90    16    17    2
    91     5     2    1
    92    21    22    1
    93     2     1    1
    94    18    19    1
    95    38    37    1
    96    36    37   ar
    97    36    34   ar
    98    22    27   am
    99    22    23    2
   100    37    35   ar
   101    34    32   ar
   102    27    28    1
   103    35    33   ar
   104    32    33   ar
   105    32    31    1
   106    28    31    1
   107    28    29    1
   108    29    30    2
