@<TRIPOS>MOLECULE
tmp/4ijlA01.pdb
 116 107 0 0 0
SMALL
GASTEIGER

@<TRIPOS>ATOM
      1  N          7.0550   -0.6550   -3.5660 N.3    33  ARG33      -0.1245
      2  CA         7.3870   -1.5110   -4.6940 C.3    33  ARG33       0.1563
      3  C          6.2260   -2.4170   -5.0480 C.2    33  ARG33       0.2260
      4  O          5.4590   -2.8440   -4.1830 O.2    33  ARG33      -0.2867
      5  CB         8.6350   -2.3300   -4.3850 C.3    33  ARG33       0.0307
      6  CG         8.4190   -3.4120   -3.3680 C.3    33  ARG33       0.0489
      7  CD         9.2400   -4.6480   -3.7730 C.3    33  ARG33       0.2205
      8  NE        10.0210   -5.1390   -2.6340 N.pl3  33  ARG33      -0.0865
      9  CZ         9.6680   -6.1550   -1.8390 C.cat  33  ARG33       0.5346
     10  NH1        8.5390   -6.8340   -2.0510 N.pl3  33  ARG33       0.1354
     11  NH2       10.4540   -6.5030   -0.8150 N.pl3  33  ARG33       0.1354
     12  N          4.5570   -5.9190   -5.9480 N.3    35  ILE35      -0.1231
     13  CA         4.9240   -7.2920   -5.6540 C.3    35  ILE35       0.1692
     14  C          4.3840   -8.1290   -6.7760 C.2    35  ILE35       0.2592
     15  O          3.4580   -7.7170   -7.4920 O.2    35  ILE35      -0.2718
     16  CB         4.3980   -7.7620   -4.3060 C.3    35  ILE35       0.0266
     17  CG1        2.8930   -7.9430   -4.3460 C.3    35  ILE35       0.0019
     18  CG2        4.6840   -6.7270   -3.2600 C.3    35  ILE35       0.0020
     19  CD1        2.3570   -8.7090   -3.1350 C.3    35  ILE35       0.0001
     20  N          4.9770   -9.2980   -6.9560 N.am   36  THR36      -0.1953
     21  CA         4.5720  -10.1440   -8.0630 C.3    36  THR36       0.1897
     22  C          3.2050  -10.7400   -7.7820 C.2    36  THR36       0.2313
     23  O          2.9760  -11.3540   -6.7390 O.2    36  THR36      -0.2863
     24  CB         5.5840  -11.2580   -8.3150 C.3    36  THR36       0.1794
     25  OG1        6.0180  -11.7670   -7.0500 O.3    36  THR36      -0.2208
     26  CG2        6.7690  -10.6890   -9.0270 C.3    36  THR36       0.0378
     27  N         -0.0920   -5.1650   -7.1120 N.3    43  ARG43      -0.1245
     28  CA        -0.2430   -4.9800   -5.6930 C.3    43  ARG43       0.1563
     29  C          1.0240   -4.2240   -5.2290 C.2    43  ARG43       0.2260
     30  O          2.1080   -4.4850   -5.7320 O.2    43  ARG43      -0.2867
     31  CB        -0.4020   -6.3670   -5.0560 C.3    43  ARG43       0.0307
     32  CG        -0.4290   -6.4050   -3.5590 C.3    43  ARG43       0.0489
     33  CD        -1.7540   -5.9550   -2.9540 C.3    43  ARG43       0.2205
     34  NE        -2.8620   -6.8460   -3.3020 N.pl3  43  ARG43      -0.0865
     35  CZ        -4.0880   -6.7630   -2.7810 C.cat  43  ARG43       0.5346
     36  NH1       -4.3740   -5.8270   -1.8680 N.pl3  43  ARG43       0.1354
     37  NH2       -5.0290   -7.6220   -3.1890 N.pl3  43  ARG43       0.1354
     38  N          3.6000   -3.0120   -2.0630 N.3    45  ARG45      -0.1245
     39  CA         4.1140   -3.1670   -0.7100 C.3    45  ARG45       0.1563
     40  C          4.7900   -1.8570   -0.3250 C.2    45  ARG45       0.2260
     41  O          5.4950   -1.2470   -1.1470 O.2    45  ARG45      -0.2867
     42  CB         5.1150   -4.3310   -0.6820 C.3    45  ARG45       0.0307
     43  CG         5.7440   -4.5670    0.6650 C.3    45  ARG45       0.0489
     44  CD         6.5480   -5.8750    0.6750 C.3    45  ARG45       0.2205
     45  NE         7.0990   -6.1090    2.0110 N.pl3  45  ARG45      -0.0865
     46  CZ         7.8270   -7.1690    2.3460 C.cat  45  ARG45       0.5346
     47  NH1        8.1040   -8.0940    1.4290 N.pl3  45  ARG45       0.1354
     48  NH2        8.2780   -7.3020    3.5990 N.pl3  45  ARG45       0.1354
     49  N          5.7880   -4.3210    6.1680 N.3    57  SER57      -0.1217
     50  CA         4.7300   -5.2940    5.8810 C.3    57  SER57       0.1889
     51  C          3.3910   -4.6120    5.6550 C.2    57  SER57       0.2288
     52  O          2.3520   -5.1740    5.9180 O.2    57  SER57      -0.2866
     53  CB         4.6230   -6.3160    6.9900 C.3    57  SER57       0.2089
     54  OG         4.1810   -5.6520    8.1430 O.3    57  SER57      -0.2183
     55  N          0.6220   -3.3230    2.9090 N.3    59  MET59      -0.1245
     56  CA         0.1570   -3.5170    1.5420 C.3    59  MET59       0.1570
     57  C         -0.9350   -2.5110    1.2610 C.2    59  MET59       0.2261
     58  O         -1.7660   -2.2570    2.0960 O.2    59  MET59      -0.2867
     59  CB        -0.4480   -4.9070    1.3360 C.3    59  MET59       0.0387
     60  CG         0.4870   -6.0600    1.5830 C.3    59  MET59       0.0595
     61  SD         2.0370   -5.9350    0.6850 S.3    59  MET59      -0.1393
     62  CE         1.4630   -5.9180   -0.9820 C.3    59  MET59       0.0692
     63  N         -0.4760  -14.0640    9.1140 N.3    89  LEU89      -0.1231
     64  CA        -0.2520  -15.2310    8.2600 C.3    89  LEU89       0.1693
     65  C         -0.1070  -16.4950    9.0730 C.2    89  LEU89       0.2591
     66  O          0.0700  -16.4430   10.2770 O.2    89  LEU89      -0.2718
     67  CB         1.0460  -15.0540    7.4690 C.3    89  LEU89       0.0284
     68  CG         1.0460  -14.1440    6.2120 C.3    89  LEU89       0.0019
     69  CD1       -0.0780  -13.1670    6.1850 C.3    89  LEU89       0.0001
     70  CD2        2.4030  -13.4730    6.0040 C.3    89  LEU89       0.0001
     71  N         -0.1530  -17.6480    8.4130 N.am   90  LYS90      -0.1980
     72  CA        -0.0250  -18.9090    9.1430 C.3    90  LYS90       0.1596
     73  C          1.2430  -19.0040    9.9390 C.2    90  LYS90       0.2287
     74  O          1.2870  -19.6930   10.9750 O.2    90  LYS90      -0.2864
     75  CB         0.0580  -20.0910    8.2020 C.3    90  LYS90       0.0298
     76  CG        -1.0320  -20.2670    7.2510 C.3    90  LYS90       0.0038
     77  CD        -0.6130  -21.4890    6.3890 C.3    90  LYS90       0.0206
     78  CE        -1.5510  -21.7480    5.2170 C.3    90  LYS90       0.1093
     79  NZ        -1.5900  -20.5570    4.3230 N.3    90  LYS90      -0.1314
     80  N          3.6450  -14.0770   10.9410 N.3    93  ARG93      -0.1231
     81  CA         3.9160  -12.7140   10.5010 C.3    93  ARG93       0.1694
     82  C          2.6370  -11.9080   10.2960 C.2    93  ARG93       0.2592
     83  O          1.5890  -12.4540    9.9480 O.2    93  ARG93      -0.2718
     84  CB         4.6980  -12.7200    9.1800 C.3    93  ARG93       0.0321
     85  CG         6.1950  -13.0470    9.3250 C.3    93  ARG93       0.0489
     86  CD         6.8340  -13.0690    7.9400 C.3    93  ARG93       0.2205
     87  NE         6.1460  -14.0670    7.1320 N.pl3  93  ARG93      -0.0865
     88  CZ         6.3720  -14.3140    5.8440 C.cat  93  ARG93       0.5346
     89  NH1        7.2790  -13.6060    5.1700 N.pl3  93  ARG93       0.1354
     90  NH2        5.6760  -15.2730    5.2290 N.pl3  93  ARG93       0.1354
     91  N          2.7140  -10.6070   10.5050 N.am   94  ARG94      -0.1966
     92  CA         1.5260   -9.7860   10.3120 C.3    94  ARG94       0.1729
     93  C          1.7000   -8.8240    9.1840 C.2    94  ARG94       0.2616
     94  O          2.7950   -8.3060    8.9570 O.2    94  ARG94      -0.2715
     95  CB         1.1650   -9.0430   11.5830 C.3    94  ARG94       0.0348
     96  CG         0.6290  -10.0250   12.6210 C.3    94  ARG94       0.0492
     97  CD         0.2160   -9.3360   13.8850 C.3    94  ARG94       0.2205
     98  NE        -0.6400  -10.2120   14.7020 N.pl3  94  ARG94      -0.0865
     99  CZ        -0.7530  -10.1000   16.0230 C.cat  94  ARG94       0.5346
    100  NH1       -0.0260   -9.1660   16.6530 N.pl3  94  ARG94       0.1354
    101  NH2       -1.5680  -10.9080   16.7050 N.pl3  94  ARG94       0.1354
    102  N          0.5980   -8.6070    8.4880 N.am   95  VAL95      -0.1977
    103  CA         0.5710   -7.7230    7.3440 C.3    95  VAL95       0.1596
    104  C         -0.4930   -6.6520    7.6210 C.2    95  VAL95       0.2287
    105  O         -1.5630   -6.9230    8.1570 O.2    95  VAL95      -0.2864
    106  CB         0.2280   -8.5020    6.0810 C.3    95  VAL95       0.0276
    107  CG1        0.2190   -7.5630    4.9060 C.3    95  VAL95       0.0022
    108  CG2        1.2790   -9.5830    5.8330 C.3    95  VAL95       0.0022
    109  N         -2.9900   -3.9620    5.9120 N.3    97  ILE97      -0.1245
    110  CA        -3.5490   -3.5460    4.6260 C.3    97  ILE97       0.1561
    111  C         -4.1260   -2.1480    4.7890 C.2    97  ILE97       0.2260
    112  O         -5.0200   -1.9350    5.5990 O.2    97  ILE97      -0.2867
    113  CB        -4.7120   -4.4360    4.1720 C.3    97  ILE97       0.0252
    114  CG1       -4.3590   -5.9230    4.2530 C.3    97  ILE97       0.0019
    115  CG2       -5.1560   -3.9970    2.7650 C.3    97  ILE97       0.0019
    116  CD1       -3.1590   -6.3080    3.4650 C.3    97  ILE97       0.0001
@<TRIPOS>BOND
     1    26    24    1
     2    24    21    1
     3    24    25    1
     4    21    22    1
     5    21    20    1
     6    22    23    2
     7    15    14    2
     8    27    28    1
     9    20    14   am
    10    14    13    1
    11    12    13    1
    12    30    29    2
    13    28    29    1
    14    28    31    1
    15    13    16    1
    16    31    32    1
    17     3     2    1
    18     3     4    2
    19     2     5    1
    20     2     1    1
    21     5     6    1
    22    17    16    1
    23    17    19    1
    24    16    18    1
    25     7     6    1
    26     7     8    1
    27    32    33    1
    28    34    33    1
    29    34    35    2
    30    37    35    1
    31    35    36    1
    32     8     9    2
    33    38    39    1
    34    10     9    1
    35     9    11    1
    36    41    40    2
    37    62    61    1
    38    39    42    1
    39    39    40    1
    40    42    43    1
    41    43    44    1
    42    44    45    1
    43    61    60    1
    44    57    56    1
    45    57    58    2
    46    59    56    1
    47    59    60    1
    48    47    46    1
    49    56    55    1
    50    45    46    2
    51    46    48    1
    52   115   113    1
    53   116   114    1
    54   113   114    1
    55   113   110    1
    56    79    78    1
    57   110   111    1
    58   110   109    1
    59   111   112    2
    60   107   106    1
    61    89    88    1
    62    78    77    1
    63    90    88    1
    64    51    50    1
    65    51    52    2
    66   108   106    1
    67    88    87    2
    68    50    49    1
    69    50    53    1
    70    70    68    1
    71   106   103    1
    72    69    68    1
    73    68    67    1
    74    77    76    1
    75    53    54    1
    76    87    86    1
    77    76    75    1
    78   103   104    1
    79   103   102    1
    80    67    64    1
    81   104   105    2
    82    86    85    1
    83    75    72    1
    84    64    65    1
    85    64    63    1
    86    71    65   am
    87    71    72    1
    88   102    93   am
    89    94    93    2
    90    65    66    2
    91    72    73    1
    92    84    85    1
    93    84    81    1
    94    93    92    1
    95    73    74    2
    96    83    82    2
    97    82    81    1
    98    82    91   am
    99    92    91    1
   100    92    95    1
   101    81    80    1
   102    95    96    1
   103    96    97    1
   104    97    98    1
   105    98    99    2
   106    99   100    1
   107    99   101    1
