@<TRIPOS>MOLECULE
tmp/4ijlA00.pdb
 102 93 0 0 0
SMALL
GASTEIGER

@<TRIPOS>ATOM
      1  N          4.5570   -5.9190   -5.9480 N.3    35  ILE35      -0.1245
      2  CA         4.9240   -7.2920   -5.6540 C.3    35  ILE35       0.1561
      3  C          4.3840   -8.1290   -6.7760 C.2    35  ILE35       0.2260
      4  O          3.4580   -7.7170   -7.4920 O.2    35  ILE35      -0.2867
      5  CB         4.3980   -7.7620   -4.3060 C.3    35  ILE35       0.0252
      6  CG1        2.8930   -7.9430   -4.3460 C.3    35  ILE35       0.0019
      7  CG2        4.6840   -6.7270   -3.2600 C.3    35  ILE35       0.0019
      8  CD1        2.3570   -8.7090   -3.1350 C.3    35  ILE35       0.0001
      9  N         -0.0920   -5.1650   -7.1120 N.3    43  ARG43      -0.1245
     10  CA        -0.2430   -4.9800   -5.6930 C.3    43  ARG43       0.1563
     11  C          1.0240   -4.2240   -5.2290 C.2    43  ARG43       0.2260
     12  O          2.1080   -4.4850   -5.7320 O.2    43  ARG43      -0.2867
     13  CB        -0.4020   -6.3670   -5.0560 C.3    43  ARG43       0.0307
     14  CG        -0.4290   -6.4050   -3.5590 C.3    43  ARG43       0.0489
     15  CD        -1.7540   -5.9550   -2.9540 C.3    43  ARG43       0.2205
     16  NE        -2.8620   -6.8460   -3.3020 N.pl3  43  ARG43      -0.0865
     17  CZ        -4.0880   -6.7630   -2.7810 C.cat  43  ARG43       0.5346
     18  NH1       -4.3740   -5.8270   -1.8680 N.pl3  43  ARG43       0.1354
     19  NH2       -5.0290   -7.6220   -3.1890 N.pl3  43  ARG43       0.1354
     20  N          0.6220   -3.3230    2.9090 N.3    59  MET59      -0.1245
     21  CA         0.1570   -3.5170    1.5420 C.3    59  MET59       0.1570
     22  C         -0.9350   -2.5110    1.2610 C.2    59  MET59       0.2261
     23  O         -1.7660   -2.2570    2.0960 O.2    59  MET59      -0.2867
     24  CB        -0.4480   -4.9070    1.3360 C.3    59  MET59       0.0387
     25  CG         0.4870   -6.0600    1.5830 C.3    59  MET59       0.0595
     26  SD         2.0370   -5.9350    0.6850 S.3    59  MET59      -0.1393
     27  CE         1.4630   -5.9180   -0.9820 C.3    59  MET59       0.0692
     28  N         -4.4270   -1.5540   -0.3950 N.3    61  ALA61      -0.1231
     29  CA        -5.6390   -2.0840   -1.0220 C.3    61  ALA61       0.1694
     30  C         -5.6260   -1.6830   -2.4940 C.2    61  ALA61       0.2593
     31  O         -5.1980   -0.5830   -2.8330 O.2    61  ALA61      -0.2718
     32  CB        -6.8810   -1.4810   -0.3500 C.3    61  ALA61       0.0304
     33  N         -6.0760   -2.5830   -3.3700 N.am   62  THR62      -0.1939
     34  CA        -5.9810   -2.3510   -4.7970 C.3    62  THR62       0.2028
     35  C         -6.7790   -1.1180   -5.2580 C.2    62  THR62       0.2642
     36  O         -6.4440   -0.4640   -6.2520 O.2    62  THR62      -0.2714
     37  CB        -6.3460   -3.6430   -5.5540 C.3    62  THR62       0.1808
     38  OG1       -7.6080   -4.1170   -5.0900 O.3    62  THR62      -0.2208
     39  CG2       -5.2980   -4.7150   -5.2430 C.3    62  THR62       0.0379
     40  N         -7.8060   -0.7550   -4.4960 N.am   63  GLN63      -0.1976
     41  CA        -8.5980    0.4260   -4.8270 C.3    63  GLN63       0.1601
     42  C         -7.7440    1.7010   -4.7260 C.2    63  GLN63       0.2287
     43  O         -8.0810    2.7350   -5.3160 O.2    63  GLN63      -0.2864
     44  CB        -9.8310    0.5300   -3.9130 C.3    63  GLN63       0.0394
     45  CG        -9.4780    0.9030   -2.4550 C.3    63  GLN63       0.0908
     46  CD       -10.5770    0.5520   -1.4580 C.2    63  GLN63       0.2608
     47  OE1      -11.7080    0.2390   -1.8400 O.2    63  GLN63      -0.2717
     48  NE2      -10.2430    0.6050   -0.1700 N.am   63  GLN63      -0.0878
     49  N         -6.5100   -2.6660    8.1080 N.3    85  ILE85      -0.1245
     50  CA        -6.7750   -3.8750    8.8690 C.3    85  ILE85       0.1561
     51  C         -5.4860   -4.6630    8.9920 C.2    85  ILE85       0.2260
     52  O         -4.6200   -4.5990    8.1430 O.2    85  ILE85      -0.2867
     53  CB        -7.8490   -4.7580    8.2200 C.3    85  ILE85       0.0252
     54  CG1       -7.4070   -5.1260    6.8280 C.3    85  ILE85       0.0019
     55  CG2       -9.2330   -4.0710    8.2070 C.3    85  ILE85       0.0019
     56  CD1       -8.0570   -6.4540    6.3590 C.3    85  ILE85       0.0001
     57  N         -3.7720   -8.3940    9.2560 N.3    87  ASN87      -0.1225
     58  CA        -3.9690   -9.8360    9.0760 C.3    87  ASN87       0.1785
     59  C         -2.7230  -10.6020    9.4290 C.2    87  ASN87       0.2598
     60  O         -1.6320  -10.1350    9.2400 O.2    87  ASN87      -0.2718
     61  CB        -4.3370  -10.1270    7.6390 C.3    87  ASN87       0.1169
     62  CG        -5.8000   -9.8960    7.3760 C.2    87  ASN87       0.2627
     63  OD1       -6.6610  -10.5120    8.0280 O.2    87  ASN87      -0.2716
     64  ND2       -6.1060   -8.9760    6.4590 N.am   87  ASN87      -0.0877
     65  N         -2.8900  -11.7640   10.0140 N.am   88  THR88      -0.1939
     66  CA        -1.7540  -12.5370   10.4660 C.3    88  THR88       0.2028
     67  C         -1.6720  -13.7760    9.6110 C.2    88  THR88       0.2642
     68  O         -2.6640  -14.5010    9.4350 O.2    88  THR88      -0.2714
     69  CB        -2.0060  -12.9460   11.9500 C.3    88  THR88       0.1808
     70  OG1       -2.1490  -11.7300   12.7130 O.3    88  THR88      -0.2208
     71  CG2       -0.8390  -13.7360   12.4800 C.3    88  THR88       0.0379
     72  N         -0.4760  -14.0640    9.1140 N.am   89  LEU89      -0.1977
     73  CA        -0.2520  -15.2310    8.2600 C.3    89  LEU89       0.1596
     74  C         -0.1070  -16.4950    9.0730 C.2    89  LEU89       0.2287
     75  O          0.0700  -16.4430   10.2770 O.2    89  LEU89      -0.2864
     76  CB         1.0460  -15.0540    7.4690 C.3    89  LEU89       0.0297
     77  CG         1.0460  -14.1440    6.2120 C.3    89  LEU89       0.0022
     78  CD1       -0.0780  -13.1670    6.1850 C.3    89  LEU89       0.0001
     79  CD2        2.4030  -13.4730    6.0040 C.3    89  LEU89       0.0001
     80  N          0.5980   -8.6070    8.4880 N.3    95  VAL95      -0.1245
     81  CA         0.5710   -7.7230    7.3440 C.3    95  VAL95       0.1561
     82  C         -0.4930   -6.6520    7.6210 C.2    95  VAL95       0.2260
     83  O         -1.5630   -6.9230    8.1570 O.2    95  VAL95      -0.2867
     84  CB         0.2280   -8.5020    6.0810 C.3    95  VAL95       0.0252
     85  CG1        0.2190   -7.5630    4.9060 C.3    95  VAL95       0.0019
     86  CG2        1.2790   -9.5830    5.8330 C.3    95  VAL95       0.0019
     87  N         -2.9900   -3.9620    5.9120 N.3    97  ILE97      -0.1245
     88  CA        -3.5490   -3.5460    4.6260 C.3    97  ILE97       0.1561
     89  C         -4.1260   -2.1480    4.7890 C.2    97  ILE97       0.2260
     90  O         -5.0200   -1.9350    5.5990 O.2    97  ILE97      -0.2867
     91  CB        -4.7120   -4.4360    4.1720 C.3    97  ILE97       0.0252
     92  CG1       -4.3590   -5.9230    4.2530 C.3    97  ILE97       0.0019
     93  CG2       -5.1560   -3.9970    2.7650 C.3    97  ILE97       0.0019
     94  CD1       -3.1590   -6.3080    3.4650 C.3    97  ILE97       0.0001
     95  N         -6.4080    0.6910    3.6660 N.3    99  MET99      -0.1245
     96  CA        -7.6520    0.7440    2.9230 C.3    99  MET99       0.1570
     97  C         -8.0330    2.1720    2.5380 C.2    99  MET99       0.2261
     98  O         -8.5640    2.4320    1.4330 O.2    99  MET99      -0.2867
     99  CB        -8.7620    0.1630    3.7880 C.3    99  MET99       0.0387
    100  CG        -8.5020   -1.2570    4.1930 C.3    99  MET99       0.0595
    101  SD        -8.4750   -2.3730    2.7770 S.3    99  MET99      -0.1393
    102  CE       -10.0740   -2.1130    2.0120 C.3    99  MET99       0.0692
@<TRIPOS>BOND
     1     4     3    2
     2     9    10    1
     3     3     2    1
     4    36    35    2
     5     1     2    1
     6    12    11    2
     7    10    11    1
     8    10    13    1
     9     2     5    1
    10    37    39    1
    11    37    38    1
    12    37    34    1
    13    43    42    2
    14    35    34    1
    15    35    40   am
    16    13    14    1
    17    41    42    1
    18    41    40    1
    19    41    44    1
    20    34    33    1
    21     6     5    1
    22     6     8    1
    23     5     7    1
    24    44    45    1
    25    14    15    1
    26    33    30   am
    27    16    15    1
    28    16    17    2
    29    19    17    1
    30    31    30    2
    31    17    18    1
    32    30    29    1
    33    45    46    1
    34    47    46    2
    35    46    48   am
    36    29    28    1
    37    29    32    1
    38    27    26    1
    39    26    25    1
    40    22    21    1
    41    22    23    2
    42    24    21    1
    43    24    25    1
    44    98    97    2
    45    21    20    1
    46   102   101    1
    47    97    96    1
    48    93    91    1
    49   101   100    1
    50    96    95    1
    51    96    99    1
    52    94    92    1
    53    99   100    1
    54    91    92    1
    55    91    88    1
    56    88    89    1
    57    88    87    1
    58    89    90    2
    59    85    84    1
    60    86    84    1
    61    79    77    1
    62    84    81    1
    63    78    77    1
    64    77    76    1
    65    56    54    1
    66    64    62   am
    67    54    53    1
    68    81    82    1
    69    81    80    1
    70    62    61    1
    71    62    63    2
    72    76    73    1
    73    82    83    2
    74    61    58    1
    75    49    50    1
    76    52    51    2
    77    55    53    1
    78    53    50    1
    79    73    74    1
    80    73    72    1
    81    50    51    1
    82    74    75    2
    83    58    57    1
    84    58    59    1
    85    72    67   am
    86    60    59    2
    87    59    65   am
    88    68    67    2
    89    67    66    1
    90    65    66    1
    91    66    69    1
    92    69    71    1
    93    69    70    1
