@<TRIPOS>MOLECULE
tmp/4ijnA00.pdb
 120 113 0 0 0
SMALL
GASTEIGER

@<TRIPOS>ATOM
      1  N         59.6690   -1.3110   12.9230 N.3    15  LYS15      -0.1245
      2  CA        60.9530   -0.6400   13.0000 C.3    15  LYS15       0.1561
      3  C         60.8200    0.3700   14.1150 C.2    15  LYS15       0.2260
      4  O         59.7870    1.0210   14.2150 O.2    15  LYS15      -0.2867
      5  CB        61.2900    0.0730   11.6960 C.3    15  LYS15       0.0271
      6  CG        61.5750   -0.8600   10.5260 C.3    15  LYS15       0.0035
      7  CD        61.5100   -0.0950    9.2180 C.3    15  LYS15       0.0206
      8  CE        61.4250   -1.0720    8.0580 C.3    15  LYS15       0.1093
      9  NZ        61.2520   -0.3530    6.7810 N.3    15  LYS15      -0.1314
     10  N         61.6650    7.2420   -4.8340 N.3   189  HIS189     -0.1241
     11  CA        61.6480    6.4090   -3.6220 C.3   189  HIS189      0.1621
     12  C         61.5070    4.9510   -4.0430 C.2   189  HIS189      0.2264
     13  O         60.4110    4.4830   -4.3230 O.2   189  HIS189     -0.2867
     14  CB        60.5230    6.8100   -2.6660 C.3   189  HIS189      0.0745
     15  CG        60.5060    6.0200   -1.4010 C.ar  189  HIS189      0.0817
     16  ND1       60.7960    6.5730   -0.1770 N.ar  189  HIS189     -0.2268
     17  CD2       60.1980    4.7250   -1.1620 C.ar  189  HIS189      0.1154
     18  CE1       60.6560    5.6590    0.7640 C.ar  189  HIS189      0.1986
     19  NE2       60.3370    4.5150    0.1920 N.ar  189  HIS189     -0.2212
     20  N         61.9190    1.4700   -2.8450 N.3   191  GLY191     -0.1210
     21  CA        62.0000    0.5540   -1.7160 C.3   191  GLY191      0.1956
     22  C         61.0700   -0.6080   -1.9160 C.2   191  GLY191      0.2612
     23  O         60.7140   -0.9270   -3.0510 O.2   191  GLY191     -0.2717
     24  N         60.6480   -1.2300   -0.8170 N.am  192  ASN192     -0.1960
     25  CA        59.6320   -2.2900   -0.8830 C.3   192  ASN192      0.1819
     26  C         58.3660   -1.7570   -1.5370 C.2   192  ASN192      0.2621
     27  O         57.8340   -2.3410   -2.4750 O.2   192  ASN192     -0.2715
     28  CB        59.3290   -2.7990    0.5200 C.3   192  ASN192      0.1195
     29  CG        60.4400   -3.6710    1.0480 C.2   192  ASN192      0.2630
     30  OD1       61.0670   -4.4350    0.2910 O.2   192  ASN192     -0.2716
     31  ND2       60.6960   -3.5860    2.3500 N.am  192  ASN192     -0.0877
     32  N         57.9100   -0.6110   -1.0860 N.am  193  GLY193     -0.1954
     33  CA        57.0030    0.1930   -1.9150 C.3   193  GLY193      0.1869
     34  C         57.8370    1.1650   -2.7360 C.2   193  GLY193      0.2309
     35  O         58.9450    1.5560   -2.3310 O.2   193  GLY193     -0.2863
     36  N         57.9600   -4.1990   -4.7120 N.3   220  GLY220     -0.1225
     37  CA        58.4230   -5.5160   -4.2220 C.3   220  GLY220      0.1811
     38  C         57.4290   -6.6040   -4.4950 C.2   220  GLY220      0.2280
     39  O         57.7660   -7.6780   -5.0560 O.2   220  GLY220     -0.2866
     40  N         62.8660  -10.2340   -2.5740 N.3   263  ASP263     -0.1225
     41  CA        63.3430   -8.8630   -2.4780 C.3   263  ASP263      0.1805
     42  C         64.3720   -8.5570   -3.5450 C.2   263  ASP263      0.2598
     43  O         64.8110   -9.4320   -4.2760 O.2   263  ASP263     -0.2718
     44  CB        63.8910   -8.5450   -1.0730 C.3   263  ASP263      0.1424
     45  CG        65.1090   -9.3500   -0.7000 C.2   263  ASP263      0.3668
     46  OD1       65.9860   -9.6290   -1.5420 O.co2 263  ASP263     -0.2456
     47  OD2       65.2330   -9.6530    0.5050 O.co2 263  ASP263     -0.2456
     48  N         64.7530   -7.2870   -3.6520 N.am  264  PHE264     -0.1962
     49  CA        65.6160   -6.8910   -4.7530 C.3   264  PHE264      0.1771
     50  C         67.0160   -7.4870   -4.7710 C.2   264  PHE264      0.2619
     51  O         67.5640   -7.6960   -5.8430 O.2   264  PHE264     -0.2715
     52  CB        65.7070   -5.3670   -4.8450 C.3   264  PHE264      0.0574
     53  CG        65.6210   -4.8700   -6.2410 C.ar  264  PHE264     -0.0200
     54  CD1       64.3850   -4.5610   -6.8170 C.ar  264  PHE264     -0.0042
     55  CD2       66.7570   -4.7470   -7.0000 C.ar  264  PHE264     -0.0042
     56  CE1       64.3050   -4.1260   -8.1260 C.ar  264  PHE264     -0.0003
     57  CE2       66.6760   -4.3370   -8.3040 C.ar  264  PHE264     -0.0003
     58  CZ        65.4670   -4.0030   -8.8650 C.ar  264  PHE264     -0.0000
     59  N         67.6190   -7.7370   -3.6050 N.am  265  ARG265     -0.1977
     60  CA        68.9090   -8.4450   -3.5560 C.3   265  ARG265      0.1597
     61  C         68.8090   -9.8350   -4.1800 C.2   265  ARG265      0.2287
     62  O         69.6900  -10.2610   -4.9300 O.2   265  ARG265     -0.2864
     63  CB        69.4070   -8.6100   -2.1050 C.3   265  ARG265      0.0334
     64  CG        70.5320   -7.6730   -1.6970 C.3   265  ARG265      0.0492
     65  CD        70.9250   -7.8600   -0.2340 C.3   265  ARG265      0.2205
     66  NE        70.0110   -7.1530    0.6620 N.pl3 265  ARG265     -0.0865
     67  CZ        70.3470   -6.2110    1.5520 C.cat 265  ARG265      0.5346
     68  NH1       69.3950   -5.6490    2.2980 N.pl3 265  ARG265      0.1354
     69  NH2       71.6100   -5.8190    1.7070 N.pl3 265  ARG265      0.1354
     70  N         68.4680   -9.7160   -7.9880 N.3   268  ARG268     -0.1245
     71  CA        69.7290   -9.5310   -8.7070 C.3   268  ARG268      0.1563
     72  C         70.5480  -10.8300   -8.7100 C.2   268  ARG268      0.2260
     73  O         71.1490  -11.1970   -9.7240 O.2   268  ARG268     -0.2867
     74  CB        70.5080   -8.3370   -8.1280 C.3   268  ARG268      0.0307
     75  CG        69.7460   -7.0100   -8.2400 C.3   268  ARG268      0.0489
     76  CD        69.5880   -6.5350   -9.6740 C.3   268  ARG268      0.2205
     77  NE        70.8680   -6.4330  -10.3640 N.pl3 268  ARG268     -0.0865
     78  CZ        71.0400   -6.3500  -11.6830 C.cat 268  ARG268      0.5346
     79  NH1       70.0110   -6.3690  -12.5160 N.pl3 268  ARG268      0.1354
     80  NH2       72.2680   -6.2660  -12.1830 N.pl3 268  ARG268      0.1354
     81  N         65.7450    5.4540   -0.7570 N.3   310  ALA310     -0.1231
     82  CA        65.1950    4.2190   -0.2070 C.3   310  ALA310      0.1694
     83  C         66.0900    3.0180   -0.5510 C.2   310  ALA310      0.2593
     84  O         67.1670    3.1710   -1.1110 O.2   310  ALA310     -0.2718
     85  CB        63.7440    3.9960   -0.5800 C.3   310  ALA310      0.0304
     86  N         65.6950    1.8250   -0.1100 N.am  311  GLY311     -0.1942
     87  CA        66.6070    0.6920   -0.1290 C.3   311  GLY311      0.2014
     88  C         67.2700    0.3710   -1.4550 C.2   311  GLY311      0.2638
     89  O         68.4980    0.1780   -1.5350 O.2   311  GLY311     -0.2714
     90  N         66.4750    0.3020   -2.5190 N.am  312  VAL312     -0.1977
     91  CA        66.9900    0.0140   -3.8380 C.3   312  VAL312      0.1596
     92  C         67.7040    1.2490   -4.4240 C.2   312  VAL312      0.2287
     93  O         68.7950    1.1500   -5.0200 O.2   312  VAL312     -0.2864
     94  CB        65.8530   -0.4560   -4.7680 C.3   312  VAL312      0.0276
     95  CG1       66.3430   -0.6670   -6.1760 C.3   312  VAL312      0.0022
     96  CG2       65.2840   -1.7560   -4.2200 C.3   312  VAL312      0.0022
     97  N         71.1720    1.7600   -2.8770 N.3   315  ASN315     -0.1225
     98  CA        72.0990    0.6190   -2.7870 C.3   315  ASN315      0.1785
     99  C         72.3080   -0.2090   -4.0400 C.2   315  ASN315      0.2597
    100  O         73.1700   -1.1250   -4.0650 O.2   315  ASN315     -0.2718
    101  CB        71.6790   -0.2860   -1.6290 C.3   315  ASN315      0.1169
    102  CG        71.7580    0.4260   -0.3030 C.2   315  ASN315      0.2627
    103  OD1       72.8350    0.9210    0.0830 O.2   315  ASN315     -0.2716
    104  ND2       70.6380    0.5580    0.3670 N.am  315  ASN315     -0.0877
    105  N         71.5650    0.0940   -5.1070 N.am  316  VAL316     -0.1980
    106  CA        71.6620   -0.6930   -6.3140 C.3   316  VAL316      0.1595
    107  C         72.0600    0.1220   -7.5440 C.2   316  VAL316      0.2287
    108  O         71.2040    0.6070   -8.2970 O.2   316  VAL316     -0.2864
    109  CB        70.3690   -1.4980   -6.5650 C.3   316  VAL316      0.0276
    110  CG1       70.5290   -2.4320   -7.7700 C.3   316  VAL316      0.0022
    111  CG2       69.9860   -2.2860   -5.3210 C.3   316  VAL316      0.0022
    112  N         63.9610    7.1540    7.3190 N.3   365  GLU365     -0.1245
    113  CA        62.5370    7.3660    7.5260 C.3   365  GLU365      0.1567
    114  C         62.2420    7.6320    9.0050 C.2   365  GLU365      0.2260
    115  O         61.5140    8.5660    9.3550 O.2   365  GLU365     -0.2867
    116  CB        61.7660    6.1420    7.0190 C.3   365  GLU365      0.0388
    117  CG        62.0530    5.7800    5.5550 C.3   365  GLU365      0.1160
    118  CD        61.3790    6.7030    4.5350 C.2   365  GLU365      0.3649
    119  OE1       60.2740    7.1980    4.7960 O.co2 365  GLU365     -0.2457
    120  OE2       61.9660    6.9350    3.4670 O.co2 365  GLU365     -0.2457
@<TRIPOS>BOND
     1    79    78    1
     2    80    78    1
     3    78    77    2
     4    77    76    1
     5    73    72    2
     6    76    75    1
     7    58    57   ar
     8    58    56   ar
     9    72    71    1
    10    71    74    1
    11    71    70    1
    12    57    55   ar
    13   108   107    2
    14    75    74    1
    15    56    54   ar
    16   110   109    1
    17   107   106    1
    18    55    53   ar
    19    54    53   ar
    20   109   106    1
    21   109   111    1
    22   106   105    1
    23    53    52    1
    24    95    94    1
    25    51    50    2
    26   105    99   am
    27    39    38    2
    28    93    92    2
    29    62    61    2
    30    52    49    1
    31    10    11    1
    32    50    49    1
    33    50    59   am
    34    94    96    1
    35    94    91    1
    36    49    48    1
    37    36    37    1
    38    38    37    1
    39    92    91    1
    40    13    12    2
    41    43    42    2
    42    61    60    1
    43   100    99    2
    44    12    11    1
    45    99    98    1
    46    91    90    1
    47    48    42   am
    48    11    14    1
    49    59    60    1
    50    60    63    1
    51    42    41    1
    52    23    22    2
    53    97    98    1
    54    20    21    1
    55    98   101    1
    56    34    35    2
    57    34    33    1
    58    14    15    1
    59    40    41    1
    60    90    88   am
    61    41    44    1
    62    27    26    2
    63    63    64    1
    64    22    21    1
    65    22    24   am
    66    33    32    1
    67    64    65    1
    68   101   102    1
    69    46    45   ar
    70    26    32   am
    71    26    25    1
    72    89    88    2
    73    88    87    1
    74    15    17   ar
    75    15    16   ar
    76    17    19   ar
    77    84    83    2
    78    44    45    1
    79    25    24    1
    80    25    28    1
    81    81    82    1
    82    45    47   ar
    83    85    82    1
    84    83    82    1
    85    83    86   am
    86   102   103    2
    87   102   104   am
    88    65    66    1
    89    16    18   ar
    90    87    86    1
    91    19    18   ar
    92    30    29    2
    93    28    29    1
    94    66    67    2
    95    29    31   am
    96    67    69    1
    97    67    68    1
    98   120   118   ar
    99   118   119   ar
   100   118   117    1
   101   117   116    1
   102     9     8    1
   103   116   113    1
   104   112   113    1
   105   113   114    1
   106     8     7    1
   107   114   115    2
   108     7     6    1
   109     6     5    1
   110     5     2    1
   111     1     2    1
   112     2     3    1
   113     3     4    2
