@<TRIPOS>MOLECULE
tmp/4ijpB00.pdb
 172 158 0 0 0
SMALL
GASTEIGER

@<TRIPOS>ATOM
      1  N         -0.9890   -3.0670   21.6090 N.3    26  THR26      -0.1203
      2  CA        -0.6650   -3.6470   20.3050 C.3    26  THR26       0.1994
      3  C          0.0720   -2.6940   19.3430 C.2    26  THR26       0.2618
      4  O          0.8120   -3.1600   18.4740 O.2    26  THR26      -0.2717
      5  CB        -1.8560   -4.4470   19.7410 C.3    26  THR26       0.1784
      6  OG1       -1.3730   -5.6010   19.0630 O.3    26  THR26      -0.2211
      7  CG2       -2.7600   -3.6320   18.8320 C.3    26  THR26       0.0376
      8  N         -0.1320   -1.3870   19.5220 N.am   27  GLY27      -0.1956
      9  CA         0.4860   -0.3450   18.7080 C.3    27  GLY27       0.1869
     10  C         -0.0390    1.0420   19.0180 C.2    27  GLY27       0.2309
     11  O         -1.0770    1.4460   18.4830 O.2    27  GLY27      -0.2863
     12  N         -3.2190    6.8980   16.2960 N.3    32  SER32      -0.1217
     13  CA        -4.2840    6.0570   16.8440 C.3    32  SER32       0.1889
     14  C         -3.7430    5.0180   17.8250 C.2    32  SER32       0.2288
     15  O         -2.7530    4.3430   17.5280 O.2    32  SER32      -0.2866
     16  CB        -5.0660    5.3780   15.7240 C.3    32  SER32       0.2089
     17  OG        -4.2220    4.5750   14.9140 O.3    32  SER32      -0.2183
     18  N         -4.1260    1.6870   19.0980 N.3    34  VAL34      -0.1245
     19  CA        -4.7080    0.3680   18.8170 C.3    34  VAL34       0.1561
     20  C         -4.3940   -0.5760   19.9830 C.2    34  VAL34       0.2260
     21  O         -3.2270   -0.7220   20.3560 O.2    34  VAL34      -0.2867
     22  CB        -4.2970   -0.2210   17.4370 C.3    34  VAL34       0.0252
     23  CG1       -5.2050   -1.3860   17.0480 C.3    34  VAL34       0.0019
     24  CG2       -4.3160    0.8470   16.3440 C.3    34  VAL34       0.0019
     25  N         -5.5960   -4.4540   22.2850 N.3    36  ARG36      -0.1245
     26  CA        -6.2010   -5.7840   22.3100 C.3    36  ARG36       0.1563
     27  C         -7.1930   -5.8650   23.4680 C.2    36  ARG36       0.2260
     28  O         -6.8360   -5.5580   24.6100 O.2    36  ARG36      -0.2867
     29  CB        -5.1260   -6.8710   22.4490 C.3    36  ARG36       0.0307
     30  CG        -4.4900   -7.2810   21.1340 C.3    36  ARG36       0.0489
     31  CD        -3.6570   -8.5330   21.3100 C.3    36  ARG36       0.2205
     32  NE        -3.2800   -9.1200   20.0250 N.pl3  36  ARG36      -0.0865
     33  CZ        -2.0990   -8.9520   19.4390 C.cat  36  ARG36       0.5346
     34  NH1       -1.8460   -9.5230   18.2690 N.pl3  36  ARG36       0.1354
     35  NH2       -1.1600   -8.2140   20.0190 N.pl3  36  ARG36       0.1354
     36  N        -10.0400   -5.9360   18.3740 N.3    48  ALA48      -0.1245
     37  CA        -9.0220   -4.8950   18.2500 C.3    48  ALA48       0.1562
     38  C         -9.7180   -3.5310   18.3010 C.2    48  ALA48       0.2260
     39  O        -10.6100   -3.2640   17.4890 O.2    48  ALA48      -0.2867
     40  CB        -8.2510   -5.0590   16.9480 C.3    48  ALA48       0.0290
     41  N         -9.3010    0.4650   17.9920 N.3    50  LYS50      -0.1245
     42  CA        -8.5150    1.5800   17.4730 C.3    50  LYS50       0.1561
     43  C         -9.0620    2.8710   18.0900 C.2    50  LYS50       0.2260
     44  O        -10.1800    3.2840   17.7720 O.2    50  LYS50      -0.2867
     45  CB        -8.5830    1.6090   15.9320 C.3    50  LYS50       0.0271
     46  CG        -7.6390    2.6010   15.2620 C.3    50  LYS50       0.0035
     47  CD        -7.6520    2.4270   13.7490 C.3    50  LYS50       0.0206
     48  CE        -6.8110    3.4550   13.0360 C.3    50  LYS50       0.1093
     49  NZ        -6.5290    3.0620   11.6310 N.3    50  LYS50      -0.1314
     50  N        -10.0970   -4.9080    5.9150 N.3    84  LEU84      -0.1245
     51  CA       -10.3420   -4.9880    7.3620 C.3    84  LEU84       0.1561
     52  C        -11.8280   -4.8310    7.6970 C.2    84  LEU84       0.2260
     53  O        -12.4890   -3.9320    7.1730 O.2    84  LEU84      -0.2867
     54  CB        -9.4810   -3.9520    8.1180 C.3    84  LEU84       0.0270
     55  CG        -9.6020   -3.8690    9.6500 C.3    84  LEU84       0.0019
     56  CD1       -9.0590   -5.1100   10.3270 C.3    84  LEU84       0.0001
     57  CD2       -8.8610   -2.6660   10.1810 C.3    84  LEU84       0.0001
     58  N        -12.5950   -3.5930   15.5590 N.3   100  PHE100     -0.1227
     59  CA       -12.2220   -4.3980   14.3990 C.3   100  PHE100      0.1736
     60  C        -12.0680   -5.8790   14.7310 C.2   100  PHE100      0.2598
     61  O        -12.0500   -6.2590   15.9050 O.2   100  PHE100     -0.2717
     62  CB       -10.9200   -3.8680   13.7690 C.3   100  PHE100      0.0547
     63  CG       -10.9810   -2.4740   13.1940 C.ar  100  PHE100     -0.0202
     64  CD1      -11.8220   -2.1800   12.1260 C.ar  100  PHE100     -0.0042
     65  CD2      -10.1550   -1.4690   13.6790 C.ar  100  PHE100     -0.0042
     66  CE1      -11.8520   -0.8990   11.5720 C.ar  100  PHE100     -0.0003
     67  CE2      -10.1900   -0.1860   13.1280 C.ar  100  PHE100     -0.0003
     68  CZ       -11.0370    0.0890   12.0770 C.ar  100  PHE100     -0.0000
     69  N        -11.9390   -6.7080   13.6780 N.am  101  GLU101     -0.1934
     70  CA       -11.7230   -8.1500   13.7690 C.3   101  GLU101      0.1818
     71  C        -10.3470   -8.4520   14.3980 C.2   101  GLU101      0.2332
     72  O         -9.4100   -7.6790   14.1750 O.2   101  GLU101     -0.2860
     73  CB       -11.8620   -8.8150   12.3810 C.2   101  GLU101      0.0097
     74  CG       -10.8750   -8.3400   11.3220 C.2   101  GLU101      0.0837
     75  CD       -10.9590   -9.0420    9.9810 C.2   101  GLU101      0.3877
     76  OE1      -11.0930   -8.3360    8.9550 O.co2 101  GLU101     -0.2406
     77  OE2      -10.8590  -10.2900    9.9490 O.co2 101  GLU101     -0.2406
     78  N         -6.7510   -9.5540   14.6170 N.3   103  LEU103     -0.1231
     79  CA        -5.6700   -9.8990   13.6940 C.3   103  LEU103      0.1693
     80  C         -4.3170   -9.8690   14.3930 C.2   103  LEU103      0.2593
     81  O         -4.0410   -8.9480   15.1660 O.2   103  LEU103     -0.2718
     82  CB        -5.6910   -9.0340   12.4240 C.3   103  LEU103      0.0284
     83  CG        -6.8020   -9.3600   11.4120 C.3   103  LEU103      0.0019
     84  CD1       -7.0310   -8.2120   10.4700 C.3   103  LEU103      0.0001
     85  CD2       -6.4910  -10.6190   10.6170 C.3   103  LEU103      0.0001
     86  N         -3.4980  -10.9090   14.1410 N.am  104  SER104     -0.1938
     87  CA        -2.1870  -11.1510   14.7460 C.3   104  SER104      0.2055
     88  C         -1.1580  -10.0120   14.6430 C.2   104  SER104      0.2643
     89  O         -0.8480   -9.3930   15.6610 O.2   104  SER104     -0.2714
     90  CB        -1.6060  -12.4750   14.2530 C.3   104  SER104      0.2130
     91  OG        -0.4410  -12.8460   14.9720 O.3   104  SER104     -0.2179
     92  N         -0.6190   -9.7520   13.4330 N.am  105  MET105     -0.1962
     93  CA         0.4250   -8.7450   13.1930 C.3   105  MET105      0.1736
     94  C          0.4150   -8.2220   11.7490 C.2   105  MET105      0.2616
     95  O         -0.2230   -8.8260   10.8840 O.2   105  MET105     -0.2715
     96  CB         1.8130   -9.3410   13.5300 C.3   105  MET105      0.0427
     97  CG         2.1660  -10.5670   12.6970 C.3   105  MET105      0.0599
     98  SD         3.2340  -11.7400   13.5500 S.3   105  MET105     -0.1393
     99  CE         4.8090  -11.1640   13.0330 C.3   105  MET105      0.0692
    100  N          1.1270   -7.1080   11.4900 N.am  106  ASN106     -0.1972
    101  CA         1.2310   -6.5430   10.1440 C.3   106  ASN106      0.1688
    102  C          2.4100   -7.1460    9.3660 C.2   106  ASN106      0.2292
    103  O          3.2780   -7.7760    9.9770 O.2   106  ASN106     -0.2864
    104  CB         1.2570   -5.0020   10.1580 C.3   106  ASN106      0.1181
    105  CG         2.3690   -4.3520   10.9500 C.2   106  ASN106      0.2629
    106  OD1        3.5520   -4.6780   10.8180 O.2   106  ASN106     -0.2716
    107  ND2        2.0190   -3.3350   11.7200 N.am  106  ASN106     -0.0877
    108  N          6.0900   -6.5030   10.5070 N.3   109  GLU109     -0.1245
    109  CA         6.4390   -7.3630   11.6370 C.3   109  GLU109      0.1567
    110  C          6.7620   -8.7870   11.1750 C.2   109  GLU109      0.2260
    111  O          7.6690   -9.4080   11.7310 O.2   109  GLU109     -0.2867
    112  CB         5.3260   -7.3450   12.6980 C.3   109  GLU109      0.0388
    113  CG         5.2440   -6.0180   13.4410 C.3   109  GLU109      0.1160
    114  CD         3.9420   -5.6840   14.1470 C.2   109  GLU109      0.3649
    115  OE1        2.8640   -6.1040   13.6660 O.co2 109  GLU109     -0.2457
    116  OE2        3.9990   -4.9460   15.1560 O.co2 109  GLU109     -0.2457
    117  N         10.4320  -10.7710   11.3560 N.3   113  LYS113     -0.1245
    118  CA        10.5170  -12.1230   11.9150 C.3   113  LYS113      0.1561
    119  C         11.1620  -13.1070   10.9350 C.2   113  LYS113      0.2260
    120  O         11.7290  -14.1110   11.3670 O.2   113  LYS113     -0.2867
    121  CB         9.1290  -12.6290   12.3540 C.3   113  LYS113      0.0271
    122  CG         8.6220  -12.0270   13.6650 C.3   113  LYS113      0.0035
    123  CD         9.0480  -12.8400   14.8890 C.3   113  LYS113      0.0206
    124  CE         8.5450  -12.2510   16.1870 C.3   113  LYS113      0.1093
    125  NZ         9.2950  -11.0260   16.5760 N.3   113  LYS113     -0.1314
    126  N          3.1340   -2.1750    6.5860 N.3   152  ASP152     -0.1225
    127  CA         2.6470   -1.7110    7.8930 C.3   152  ASP152      0.1805
    128  C          1.1210   -1.6730    7.9610 C.2   152  ASP152      0.2597
    129  O          0.5540   -1.8790    9.0350 O.2   152  ASP152     -0.2718
    130  CB         3.1920   -0.3050    8.2090 C.3   152  ASP152      0.1424
    131  CG         4.6970   -0.1710    8.1220 C.2   152  ASP152      0.3668
    132  OD1        5.2270   -0.1610    6.9890 O.co2 152  ASP152     -0.2456
    133  OD2        5.3390   -0.0200    9.1830 O.co2 152  ASP152     -0.2456
    134  N          0.4640   -1.3870    6.8210 N.am  153  ASN153     -0.1974
    135  CA        -0.9910   -1.2830    6.7150 C.3   153  ASN153      0.1688
    136  C         -1.6850   -2.5440    6.1760 C.2   153  ASN153      0.2292
    137  O         -2.8780   -2.5040    5.8610 O.2   153  ASN153     -0.2864
    138  CB        -1.3890   -0.0110    5.9490 C.3   153  ASN153      0.1181
    139  CG        -0.9300    1.2650    6.6190 C.2   153  ASN153      0.2629
    140  OD1       -0.8980    1.3840    7.8500 O.2   153  ASN153     -0.2716
    141  ND2       -0.5580    2.2500    5.8220 N.am  153  ASN153     -0.0877
    142  N         -2.4900   -6.3570    7.3710 N.3   155  LEU155     -0.1245
    143  CA        -2.5680   -7.2550    8.5230 C.3   155  LEU155      0.1561
    144  C         -2.7960   -8.7030    8.1120 C.2   155  LEU155      0.2260
    145  O         -3.4160   -8.9480    7.0830 O.2   155  LEU155     -0.2867
    146  CB        -3.7110   -6.7880    9.4490 C.3   155  LEU155      0.0270
    147  CG        -3.3890   -5.8300   10.6180 C.3   155  LEU155      0.0019
    148  CD1       -2.5820   -6.5150   11.6910 C.3   155  LEU155      0.0001
    149  CD2       -2.7230   -4.5430   10.1640 C.3   155  LEU155      0.0001
    150  N         -3.5790  -15.3160   12.5560 N.3   158  GLU158     -0.1245
    151  CA        -2.6530  -16.1460   13.3430 C.3   158  GLU158      0.1567
    152  C         -1.8630  -17.1500   12.4870 C.2   158  GLU158      0.2260
    153  O         -0.6470  -17.2590   12.6470 O.2   158  GLU158     -0.2867
    154  CB        -3.3980  -16.8530   14.4950 C.3   158  GLU158      0.0388
    155  CG        -2.5040  -17.5390   15.5220 C.3   158  GLU158      0.1160
    156  CD        -1.5810  -16.6370   16.3200 C.2   158  GLU158      0.3649
    157  OE1       -2.0850  -15.7180   17.0060 O.co2 158  GLU158     -0.2457
    158  OE2       -0.3500  -16.8660   16.2770 O.co2 158  GLU158     -0.2457
    159  N         -5.6500   -2.4470    5.9620 N.3   166  CYS166     -0.1221
    160  CA        -6.0890   -1.5780    7.0530 C.3   166  CYS166      0.1808
    161  C         -5.6380   -0.1230    6.8760 C.2   166  CYS166      0.2601
    162  O         -4.9750    0.1980    5.8880 O.2   166  CYS166     -0.2717
    163  CB        -5.6470   -2.1490    8.3990 C.3   166  CYS166      0.0970
    164  SG        -3.9870   -1.6410    8.9180 S.3   166  CYS166     -0.0800
    165  N         -5.9820    0.7400    7.8660 N.am  167  ASP167     -0.1973
    166  CA        -5.6640    2.1690    7.9470 C.3   167  ASP167      0.1709
    167  C         -6.2220    2.9670    6.7640 C.2   167  ASP167      0.2293
    168  O         -5.5520    3.1310    5.7410 O.2   167  ASP167     -0.2864
    169  CB        -4.1550    2.4110    8.1860 C.3   167  ASP167      0.1436
    170  CG        -3.7950    3.8450    8.5190 C.2   167  ASP167      0.3671
    171  OD1       -4.1900    4.3180    9.6070 O.co2 167  ASP167     -0.2456
    172  OD2       -3.0900    4.4820    7.7090 O.co2 167  ASP167     -0.2456
@<TRIPOS>BOND
     1   168   167    2
     2   141   139   am
     3   137   136    2
     4   162   161    2
     5    50    51    1
     6   138   139    1
     7   138   135    1
     8   159   160    1
     9   136   135    1
    10   126   127    1
    11   139   140    2
    12   135   134    1
    13   167   166    1
    14   134   128   am
    15   161   160    1
    16   161   165   am
    17   132   131   ar
    18   160   163    1
    19   145   144    2
    20    53    52    2
    21    51    52    1
    22    51    54    1
    23   142   143    1
    24   172   170   ar
    25   165   166    1
    26   127   128    1
    27   127   130    1
    28   166   169    1
    29   128   129    2
    30   144   143    1
    31    54    55    1
    32   131   130    1
    33   131   133   ar
    34   169   170    1
    35   163   164    1
    36   170   171   ar
    37   143   146    1
    38    76    75   ar
    39   102   103    2
    40   102   101    1
    41   146   147    1
    42    55    57    1
    43    55    56    1
    44    77    75   ar
    45    75    74    1
    46   101   104    1
    47   101   100    1
    48   104   105    1
    49   149   147    1
    50    84    83    1
    51   108   109    1
    52    85    83    1
    53   147   148    1
    54   106   105    2
    55    95    94    2
    56   119   120    2
    57   119   118    1
    58   105   107   am
    59   110   109    1
    60   110   111    2
    61    74    73    2
    62   117   118    1
    63    83    82    1
    64   100    94   am
    65    66    68   ar
    66    66    64   ar
    67    49    48    1
    68   109   112    1
    69    94    93    1
    70   118   121    1
    71    68    67   ar
    72    64    63   ar
    73   121   122    1
    74    73    70    1
    75    82    79    1
    76   152   153    2
    77   152   151    1
    78   150   151    1
    79    97    96    1
    80    97    98    1
    81   112   113    1
    82    99    98    1
    83    48    47    1
    84    67    65   ar
    85    93    92    1
    86    93    96    1
    87    63    65   ar
    88    63    62    1
    89   151   154    1
    90    92    88   am
    91   113   114    1
    92   122   123    1
    93   115   114   ar
    94    69    70    1
    95    69    60   am
    96    79    80    1
    97    79    78    1
    98    47    46    1
    99    70    71    1
   100    62    59    1
   101    86    80   am
   102    86    87    1
   103   114   116   ar
   104    72    71    2
   105    90    87    1
   106    90    91    1
   107    80    81    2
   108    59    60    1
   109    59    58    1
   110   154   155    1
   111    88    87    1
   112    88    89    2
   113    60    61    2
   114   123   124    1
   115    17    16    1
   116    46    45    1
   117   155   156    1
   118    16    13    1
   119    45    42    1
   120   124   125    1
   121   158   156   ar
   122    12    13    1
   123   156   157   ar
   124    24    22    1
   125    13    14    1
   126    40    37    1
   127    23    22    1
   128    22    19    1
   129    42    41    1
   130    42    43    1
   131    39    38    2
   132    15    14    2
   133    44    43    2
   134    37    38    1
   135    37    36    1
   136    34    33    1
   137     4     3    2
   138    11    10    2
   139     9    10    1
   140     9     8    1
   141    19    18    1
   142    19    20    1
   143     7     5    1
   144     6     5    1
   145     3     8   am
   146     3     2    1
   147    33    35    1
   148    33    32    2
   149     5     2    1
   150    20    21    2
   151    32    31    1
   152     2     1    1
   153    30    31    1
   154    30    29    1
   155    25    26    1
   156    26    29    1
   157    26    27    1
   158    27    28    2
