@<TRIPOS>MOLECULE
tmp/4ijqD00.pdb
 130 126 0 0 0
SMALL
GASTEIGER

@<TRIPOS>ATOM
      1  N         -2.6890  -68.3540  -25.1190 N.3   120  GLU120     -0.1231
      2  CA        -3.4940  -69.3040  -24.3660 C.3   120  GLU120      0.1699
      3  C         -3.7740  -68.7280  -22.9760 C.2   120  GLU120      0.2592
      4  O         -3.0250  -67.8700  -22.5080 O.2   120  GLU120     -0.2718
      5  CB        -2.7120  -70.6230  -24.2860 C.3   120  GLU120      0.0402
      6  CG        -3.4310  -71.8170  -23.6850 C.3   120  GLU120      0.1161
      7  CD        -4.7030  -72.2310  -24.4290 C.2   120  GLU120      0.3649
      8  OE1       -5.7330  -71.5650  -24.2120 O.co2 120  GLU120     -0.2457
      9  OE2       -4.6850  -73.2360  -25.1880 O.co2 120  GLU120     -0.2457
     10  N         -4.8560  -69.1740  -22.3290 N.am  121  ASP121     -0.1960
     11  CA        -5.1520  -68.7450  -20.9650 C.3   121  ASP121      0.1840
     12  C         -4.3150  -69.5120  -19.9500 C.2   121  ASP121      0.2622
     13  O         -3.7420  -68.9130  -19.0310 O.2   121  ASP121     -0.2715
     14  CB        -6.6590  -68.8280  -20.6260 C.3   121  ASP121      0.1450
     15  CG        -7.2990  -70.1770  -20.9920 C.2   121  ASP121      0.3671
     16  OD1       -6.6750  -70.9930  -21.7020 O.co2 121  ASP121     -0.2456
     17  OD2       -8.4470  -70.4320  -20.5520 O.co2 121  ASP121     -0.2456
     18  N         -4.2400  -70.8280  -20.1220 N.am  122  ILE122     -0.1963
     19  CA        -3.5500  -71.6520  -19.1490 C.3   122  ILE122      0.1727
     20  C         -3.0020  -72.9440  -19.7460 C.2   122  ILE122      0.2616
     21  O         -3.6050  -73.5720  -20.6330 O.2   122  ILE122     -0.2715
     22  CB        -4.4350  -71.8940  -17.8830 C.3   122  ILE122      0.0290
     23  CG1       -3.7270  -72.7460  -16.8290 C.3   122  ILE122      0.0022
     24  CG2       -5.7790  -72.5180  -18.2340 C.3   122  ILE122      0.0023
     25  CD1       -4.5220  -72.7410  -15.5260 C.3   122  ILE122      0.0001
     26  N         -1.8270  -73.3250  -19.2670 N.am  123  ILE123     -0.1963
     27  CA        -1.2560  -74.6240  -19.5770 C.3   123  ILE123      0.1727
     28  C         -1.2730  -75.4150  -18.2850 C.2   123  ILE123      0.2616
     29  O         -0.8530  -74.9190  -17.2340 O.2   123  ILE123     -0.2715
     30  CB         0.2060  -74.4900  -20.0550 C.3   123  ILE123      0.0290
     31  CG1        0.3350  -73.4730  -21.1900 C.3   123  ILE123      0.0022
     32  CG2        0.8010  -75.8470  -20.4140 C.3   123  ILE123      0.0023
     33  CD1       -0.0690  -73.9790  -22.5310 C.3   123  ILE123      0.0001
     34  N         -1.7600  -76.6520  -18.3580 N.am  124  ASP124     -0.1957
     35  CA        -1.8410  -77.5010  -17.1900 C.3   124  ASP124      0.1840
     36  C         -0.9750  -78.7240  -17.4680 C.2   124  ASP124      0.2623
     37  O          0.2200  -78.7170  -17.1720 O.2   124  ASP124     -0.2715
     38  CB        -3.2910  -77.9030  -16.9230 C.3   124  ASP124      0.1450
     39  CG        -3.4300  -78.8410  -15.7240 C.2   124  ASP124      0.3671
     40  OD1       -2.4500  -79.0210  -14.9770 O.co2 124  ASP124     -0.2456
     41  OD2       -4.5270  -79.3960  -15.5230 O.co2 124  ASP124     -0.2456
     42  N         -1.5600  -79.7570  -18.0650 N.am  125  THR125     -0.1937
     43  CA        -0.7760  -80.9390  -18.4490 C.3   125  THR125      0.2028
     44  C          0.1450  -80.5770  -19.6070 C.2   125  THR125      0.2643
     45  O          1.2680  -81.1050  -19.7430 O.2   125  THR125     -0.2714
     46  CB        -1.6770  -82.0920  -18.8930 C.3   125  THR125      0.1808
     47  OG1       -2.4400  -81.6760  -20.0350 O.3   125  THR125     -0.2208
     48  CG2       -2.6230  -82.4730  -17.7650 C.3   125  THR125      0.0379
     49  N         -0.3390  -79.6660  -20.4460 N.am  126  GLY126     -0.1939
     50  CA         0.4300  -79.1940  -21.5750 C.3   126  GLY126      0.2014
     51  C          0.1640  -80.0160  -22.8150 C.2   126  GLY126      0.2639
     52  O          0.7950  -79.8020  -23.8500 O.2   126  GLY126     -0.2714
     53  N         -0.7620  -80.9620  -22.7140 N.am  127  LYS127     -0.1963
     54  CA        -0.9680  -81.9280  -23.7940 C.3   127  LYS127      0.1728
     55  C         -1.5440  -81.2410  -25.0030 C.2   127  LYS127      0.2617
     56  O         -1.1770  -81.5460  -26.1440 O.2   127  LYS127     -0.2715
     57  CB        -1.9160  -83.0440  -23.3690 C.3   127  LYS127      0.0311
     58  CG        -1.3090  -84.1010  -22.4830 C.3   127  LYS127      0.0038
     59  CD        -2.4200  -84.8440  -21.7330 C.3   127  LYS127      0.0206
     60  CE        -1.9380  -86.1730  -21.1810 C.3   127  LYS127      0.1093
     61  NZ        -3.0800  -87.0560  -20.7920 N.3   127  LYS127     -0.1314
     62  N         -2.4540  -80.3120  -24.7470 N.am  128  THR128     -0.1937
     63  CA        -3.1080  -79.5830  -25.8210 C.3   128  THR128      0.2028
     64  C         -2.1230  -78.7520  -26.6370 C.2   128  THR128      0.2642
     65  O         -2.1640  -78.7690  -27.8640 O.2   128  THR128     -0.2714
     66  CB        -4.2030  -78.6470  -25.2830 C.3   128  THR128      0.1808
     67  OG1       -4.9600  -79.3290  -24.2800 O.3   128  THR128     -0.2208
     68  CG2       -5.1310  -78.2010  -26.4160 C.3   128  THR128      0.0379
     69  N         -1.2420  -78.0110  -25.9710 N.am  129  MET129     -0.1976
     70  CA        -0.3060  -77.1710  -26.7130 C.3   129  MET129      0.1605
     71  C          0.6720  -78.0040  -27.5540 C.2   129  MET129      0.2287
     72  O          0.8940  -77.7240  -28.7360 O.2   129  MET129     -0.2864
     73  CB         0.4550  -76.2310  -25.7730 C.3   129  MET129      0.0413
     74  CG         1.0700  -75.0510  -26.5000 C.3   129  MET129      0.0598
     75  SD        -0.1340  -74.2700  -27.6140 S.3   129  MET129     -0.1393
     76  CE        -1.3210  -73.7500  -26.4280 C.3   129  MET129      0.0692
     77  N          0.5150  -74.1370  -14.7810 N.3   152  LYS152     -0.1245
     78  CA         0.3730  -74.8210  -13.4900 C.3   152  LYS152      0.1561
     79  C          1.5920  -75.6800  -13.1540 C.2   152  LYS152      0.2260
     80  O          2.1810  -76.3130  -14.0340 O.2   152  LYS152     -0.2867
     81  CB        -0.8790  -75.6930  -13.4740 C.3   152  LYS152      0.0271
     82  CG        -2.1800  -74.9470  -13.3190 C.3   152  LYS152      0.0035
     83  CD        -3.2610  -75.9280  -12.8930 C.3   152  LYS152      0.0206
     84  CE        -4.5110  -75.2160  -12.4070 C.3   152  LYS152      0.1093
     85  NZ        -5.7080  -76.1130  -12.4800 N.3   152  LYS152     -0.1314
     86  N         -7.7990  -74.9860   -8.9230 N.3   173  PHE173     -0.1227
     87  CA        -8.7020  -74.6300  -10.0250 C.3   173  PHE173      0.1736
     88  C         -9.1010  -73.1610   -9.9590 C.2   173  PHE173      0.2595
     89  O         -9.6970  -72.7210   -8.9780 O.2   173  PHE173     -0.2718
     90  CB        -9.9620  -75.5180  -10.0610 C.3   173  PHE173      0.0547
     91  CG       -10.7500  -75.3710  -11.3420 C.ar  173  PHE173     -0.0202
     92  CD1      -11.7030  -74.3750  -11.4780 C.ar  173  PHE173     -0.0042
     93  CD2      -10.5010  -76.2030  -12.4300 C.ar  173  PHE173     -0.0042
     94  CE1      -12.4120  -74.2200  -12.6700 C.ar  173  PHE173     -0.0003
     95  CE2      -11.2090  -76.0510  -13.6240 C.ar  173  PHE173     -0.0003
     96  CZ       -12.1620  -75.0520  -13.7440 C.ar  173  PHE173     -0.0000
     97  N         -8.7830  -72.3950  -11.0000 N.am  174  VAL174     -0.1980
     98  CA        -9.0140  -70.9540  -10.9620 C.3   174  VAL174      0.1595
     99  C         -9.9520  -70.5220  -12.0830 C.2   174  VAL174      0.2287
    100  O        -10.0730  -71.2160  -13.1110 O.2   174  VAL174     -0.2864
    101  CB        -7.6960  -70.1480  -11.0970 C.3   174  VAL174      0.0276
    102  CG1       -6.7880  -70.3830   -9.8970 C.3   174  VAL174      0.0022
    103  CG2       -6.9830  -70.4630  -12.4300 C.3   174  VAL174      0.0022
    104  N        -11.3020  -67.1760  -17.9020 N.3   179  LEU179     -0.1231
    105  CA       -11.2810  -68.5970  -17.5540 C.3   179  LEU179      0.1693
    106  C        -12.6150  -68.9220  -16.8780 C.2   179  LEU179      0.2592
    107  O        -13.1220  -68.1250  -16.0630 O.2   179  LEU179     -0.2718
    108  CB       -10.0960  -68.9190  -16.6370 C.3   179  LEU179      0.0284
    109  CG        -8.7150  -68.9180  -17.3180 C.3   179  LEU179      0.0019
    110  CD1       -8.1790  -67.4990  -17.5000 C.3   179  LEU179      0.0001
    111  CD2       -7.7210  -69.7720  -16.5660 C.3   179  LEU179      0.0001
    112  N        -13.2000  -70.0590  -17.2310 N.am  180  ASP180     -0.1974
    113  CA       -14.5510  -70.3680  -16.7900 C.3   180  ASP180      0.1709
    114  C        -14.6580  -71.6130  -15.9260 C.2   180  ASP180      0.2293
    115  O        -13.7550  -72.4560  -15.8750 O.2   180  ASP180     -0.2864
    116  CB       -15.4410  -70.6090  -17.9910 C.3   180  ASP180      0.1436
    117  CG       -15.1040  -71.9240  -18.6860 C.2   180  ASP180      0.3671
    118  OD1      -13.9000  -72.1220  -18.9480 O.co2 180  ASP180     -0.2456
    119  OD2      -16.0120  -72.7650  -18.9180 O.co2 180  ASP180     -0.2456
    120  N        -16.5050  -66.0210  -16.6510 N.3   186  ARG186     -0.1245
    121  CA       -15.6870  -65.3480  -17.6660 C.3   186  ARG186      0.1563
    122  C        -15.7620  -63.8170  -17.4990 C.2   186  ARG186      0.2260
    123  O        -14.7720  -63.0940  -17.7580 O.2   186  ARG186     -0.2867
    124  CB       -16.0700  -65.7550  -19.0820 C.3   186  ARG186      0.0307
    125  CG       -15.8270  -67.2250  -19.3820 C.3   186  ARG186      0.0489
    126  CD       -15.7370  -67.4630  -20.8900 C.3   186  ARG186      0.2205
    127  NE       -16.0530  -68.8400  -21.2630 N.pl3 186  ARG186     -0.0865
    128  CZ       -15.1550  -69.8090  -21.3670 C.cat 186  ARG186      0.5346
    129  NH1      -13.8780  -69.5570  -21.1060 N.pl3 186  ARG186      0.1354
    130  NH2      -15.5350  -71.0390  -21.7240 N.pl3 186  ARG186      0.1354
@<TRIPOS>BOND
     1    72    71    2
     2    65    64    2
     3    75    74    1
     4    75    76    1
     5    71    70    1
     6    70    69    1
     7    70    73    1
     8    64    69   am
     9    64    63    1
    10    74    73    1
    11    68    66    1
    12    56    55    2
    13    63    66    1
    14    63    62    1
    15    66    67    1
    16     9     7   ar
    17     1     2    1
    18    55    62   am
    19    55    54    1
    20     7     8   ar
    21     7     6    1
    22     2     5    1
    23     2     3    1
    24     5     6    1
    25    52    51    2
    26    54    57    1
    27    54    53    1
    28    57    58    1
    29     3     4    2
    30     3    10   am
    31    51    53   am
    32    51    50    1
    33    33    31    1
    34    58    59    1
    35    10    11    1
    36    59    60    1
    37   130   128    1
    38    16    15   ar
    39    50    49    1
    40   128   127    2
    41   128   129    1
    42   127   126    1
    43    31    30    1
    44    60    61    1
    45    15    14    1
    46    15    17   ar
    47    11    14    1
    48    11    12    1
    49   126   125    1
    50    21    20    2
    51    49    44   am
    52    32    30    1
    53    18    12   am
    54    18    19    1
    55    30    27    1
    56    47    46    1
    57    12    13    2
    58    20    26   am
    59    20    19    1
    60    45    44    2
    61    44    43    1
    62    27    26    1
    63    27    28    1
    64   125   124    1
    65    19    22    1
    66   124   121    1
    67   118   117   ar
    68   119   117   ar
    69    46    43    1
    70    46    48    1
    71   117   116    1
    72    43    42    1
    73    34    28   am
    74    34    35    1
    75    28    29    2
    76    24    22    1
    77    42    36   am
    78   116   113    1
    79   104   105    1
    80    22    23    1
    81   123   122    2
    82   121   122    1
    83   121   120    1
    84   105   106    1
    85   105   108    1
    86   110   109    1
    87    36    35    1
    88    36    37    2
    89   109   108    1
    90   109   111    1
    91   112   106   am
    92   112   113    1
    93    35    38    1
    94    38    39    1
    95   106   107    2
    96    23    25    1
    97   113   114    1
    98   114   115    2
    99    39    41   ar
   100    39    40   ar
   101    77    78    1
   102    80    79    2
   103    96    95   ar
   104    96    94   ar
   105    95    93   ar
   106    78    81    1
   107    78    79    1
   108    81    82    1
   109    82    83    1
   110   100    99    2
   111    83    84    1
   112    94    92   ar
   113    85    84    1
   114   103   101    1
   115    93    91   ar
   116    99    98    1
   117    92    91   ar
   118    91    90    1
   119   101    98    1
   120   101   102    1
   121    97    98    1
   122    97    88   am
   123    90    87    1
   124    87    88    1
   125    87    86    1
   126    88    89    2
