@<TRIPOS>MOLECULE
tmp/4ijrB00.pdb
 233 227 0 0 0
SMALL
GASTEIGER

@<TRIPOS>ATOM
      1  N         14.9080  -31.3680   29.4620 N.3    25  GLY25      -0.1210
      2  CA        14.5970  -32.7980   29.5630 C.3    25  GLY25       0.1956
      3  C         14.0000  -33.1120   30.9280 C.2    25  GLY25       0.2613
      4  O         14.3780  -32.4980   31.9140 O.2    25  GLY25      -0.2717
      5  N         13.0550  -34.0540   30.9850 N.am   26  THR26      -0.1938
      6  CA        12.3260  -34.3100   32.2280 C.3    26  THR26       0.2028
      7  C         12.2300  -35.7960   32.6320 C.2    26  THR26       0.2642
      8  O         11.3030  -36.1870   33.3710 O.2    26  THR26      -0.2714
      9  CB        10.9130  -33.6520   32.2170 C.3    26  THR26       0.1808
     10  OG1       10.1110  -34.2180   31.1710 O.3    26  THR26      -0.2208
     11  CG2       11.0130  -32.1310   32.0400 C.3    26  THR26       0.0379
     12  N         13.1710  -36.6200   32.1510 N.am   27  ALA27      -0.1977
     13  CA        13.2360  -38.0410   32.5620 C.3    27  ALA27       0.1597
     14  C         13.9350  -38.1470   33.9190 C.2    27  ALA27       0.2287
     15  O         15.0640  -38.6270   34.0200 O.2    27  ALA27      -0.2864
     16  CB        13.9370  -38.9220   31.4950 C.3    27  ALA27       0.0319
     17  N         10.6400  -31.0960   27.0930 N.3    52  ASP52      -0.1239
     18  CA        10.5200  -32.4600   26.5730 C.3    52  ASP52       0.1674
     19  C         10.0840  -33.4180   27.6590 C.2    52  ASP52       0.2266
     20  O         10.7100  -33.5070   28.7050 O.2    52  ASP52      -0.2867
     21  CB        11.8500  -32.9300   25.9400 C.3    52  ASP52       0.1410
     22  CG        11.7690  -34.3510   25.3850 C.2    52  ASP52       0.3668
     23  OD1       11.4640  -34.5120   24.1920 O.co2  52  ASP52      -0.2456
     24  OD2       11.9860  -35.3050   26.1510 O.co2  52  ASP52      -0.2456
     25  N          7.7000  -41.2590   31.5930 N.3    57  TYR57      -0.1241
     26  CA         8.5720  -40.6130   32.6010 C.3    57  TYR57       0.1605
     27  C          7.9330  -40.4540   33.9550 C.2    57  TYR57       0.2264
     28  O          8.6290  -40.3690   34.9800 O.2    57  TYR57      -0.2867
     29  CB         9.0480  -39.2240   32.1450 C.3    57  TYR57       0.0534
     30  CG         9.9250  -39.2320   30.9130 C.ar   57  TYR57      -0.0201
     31  CD1       10.4370  -40.4280   30.3920 C.ar   57  TYR57      -0.0009
     32  CD2       10.2590  -38.0370   30.2820 C.ar   57  TYR57      -0.0009
     33  CE1       11.2310  -40.4230   29.2350 C.ar   57  TYR57       0.0417
     34  CE2       11.0530  -38.0260   29.1450 C.ar   57  TYR57       0.0417
     35  CZ        11.5300  -39.2100   28.6290 C.ar   57  TYR57       0.1957
     36  OH        12.3140  -39.1840   27.4970 O.3    57  TYR57      -0.2866
     37  N          5.6620  -38.3650   24.3080 N.3    86  LYS86      -0.1245
     38  CA         5.8860  -39.5820   23.5550 C.3    86  LYS86       0.1561
     39  C          4.9320  -40.7160   23.9100 C.2    86  LYS86       0.2260
     40  O          4.4120  -40.7790   25.0170 O.2    86  LYS86      -0.2867
     41  CB         7.3180  -40.0560   23.7790 C.3    86  LYS86       0.0271
     42  CG         8.2950  -38.9210   23.7940 C.3    86  LYS86       0.0035
     43  CD         9.7230  -39.4000   24.0300 C.3    86  LYS86       0.0206
     44  CE        10.6260  -38.2000   24.1370 C.3    86  LYS86       0.1093
     45  NZ        10.7640  -37.7210   25.5300 N.3    86  LYS86      -0.1314
     46  N          8.1710  -43.2720   20.9110 N.3   117  HIS117     -0.1226
     47  CA         9.3300  -43.3320   21.8210 C.3   117  HIS117      0.1752
     48  C         10.3940  -44.3620   21.3950 C.2   117  HIS117      0.2596
     49  O         11.5970  -44.0920   21.4820 O.2   117  HIS117     -0.2718
     50  CB         8.8800  -43.6070   23.2680 C.3   117  HIS117      0.0759
     51  CG         9.8070  -43.0610   24.3160 C.ar  117  HIS117      0.0818
     52  ND1        9.3660  -42.6190   25.5430 N.ar  117  HIS117     -0.2268
     53  CD2       11.1490  -42.8540   24.3050 C.ar  117  HIS117      0.1154
     54  CE1       10.3950  -42.1950   26.2570 C.ar  117  HIS117      0.1986
     55  NE2       11.4900  -42.3280   25.5280 N.ar  117  HIS117     -0.2212
     56  N          9.9490  -45.5480   20.9740 N.am  118  TRP118     -0.1976
     57  CA        10.8520  -46.6100   20.5080 C.3   118  TRP118      0.1640
     58  C         10.2200  -47.3470   19.3510 C.2   118  TRP118      0.2290
     59  O          8.9900  -47.4630   19.3040 O.2   118  TRP118     -0.2864
     60  CB        11.1560  -47.6170   21.6250 C.3   118  TRP118      0.0576
     61  CG        12.0740  -47.0940   22.6810 C.ar  118  TRP118      0.0006
     62  CD1       11.7110  -46.4470   23.8140 C.ar  118  TRP118      0.0946
     63  CD2       13.5100  -47.1920   22.7150 C.ar  118  TRP118      0.0152
     64  NE1       12.8170  -46.1250   24.5520 N.ar  118  TRP118     -0.2442
     65  CE2       13.9380  -46.5590   23.8990 C.ar  118  TRP118      0.0810
     66  CE3       14.4720  -47.7410   21.8560 C.ar  118  TRP118      0.0012
     67  CZ2       15.2910  -46.4640   24.2570 C.ar  118  TRP118      0.0191
     68  CZ3       15.8210  -47.6410   22.2050 C.ar  118  TRP118      0.0001
     69  CH2       16.2140  -47.0150   23.3960 C.ar  118  TRP118      0.0015
     70  N         11.6460  -41.5880   17.7760 N.3   178  SER178     -0.1202
     71  CA        12.8150  -41.5600   18.6200 C.3   178  SER178      0.2020
     72  C         13.4650  -42.9420   18.5450 C.2   178  SER178      0.2618
     73  O         12.7650  -43.9500   18.4270 O.2   178  SER178     -0.2717
     74  CB        12.4080  -41.2240   20.0600 C.3   178  SER178      0.2103
     75  OG        13.5500  -41.1680   20.9180 O.3   178  SER178     -0.2182
     76  N         14.7960  -42.9680   18.6120 N.am  179  ASN179     -0.1974
     77  CA        15.5700  -44.2080   18.5810 C.3   179  ASN179      0.1688
     78  C         15.3890  -45.0290   17.2980 C.2   179  ASN179      0.2292
     79  O         15.4760  -46.2530   17.3200 O.2   179  ASN179     -0.2864
     80  CB        15.2670  -45.0510   19.8260 C.3   179  ASN179      0.1181
     81  CG        15.5660  -44.3100   21.1170 C.2   179  ASN179      0.2629
     82  OD1       16.7260  -44.0020   21.4090 O.2   179  ASN179     -0.2716
     83  ND2       14.5160  -44.0200   21.9020 N.am  179  ASN179     -0.0877
     84  N         14.5520  -38.4000   17.5760 N.3   200  GLN200     -0.1245
     85  CA        15.2600  -38.1020   18.8290 C.3   200  GLN200      0.1566
     86  C         16.1600  -39.2830   19.2580 C.2   200  GLN200      0.2260
     87  O         15.6760  -40.3880   19.4620 O.2   200  GLN200     -0.2867
     88  CB        14.2560  -37.6970   19.9330 C.3   200  GLN200      0.0367
     89  CG        14.8990  -37.4310   21.2950 C.3   200  GLN200      0.0905
     90  CD        13.9120  -37.0330   22.4000 C.2   200  GLN200      0.2608
     91  OE1       13.9500  -37.5830   23.4870 O.2   200  GLN200     -0.2717
     92  NE2       13.0500  -36.0540   22.1250 N.am  200  GLN200     -0.0878
     93  N         19.2560  -36.4830   22.7360 N.3   226  TYR226     -0.1227
     94  CA        19.0060  -36.7730   24.1350 C.3   226  TYR226      0.1736
     95  C         20.2500  -37.2490   24.8730 C.2   226  TYR226      0.2596
     96  O         21.2700  -37.5650   24.2540 O.2   226  TYR226     -0.2718
     97  CB        17.7950  -37.6930   24.3290 C.3   226  TYR226      0.0548
     98  CG        17.9190  -39.1850   24.0670 C.ar  226  TYR226     -0.0200
     99  CD1       18.7040  -40.0060   24.8790 C.ar  226  TYR226     -0.0009
    100  CD2       17.1330  -39.7910   23.0830 C.ar  226  TYR226     -0.0009
    101  CE1       18.7560  -41.3840   24.6700 C.ar  226  TYR226      0.0417
    102  CE2       17.1780  -41.1560   22.8600 C.ar  226  TYR226      0.0417
    103  CZ        17.9820  -41.9540   23.6650 C.ar  226  TYR226      0.1957
    104  OH        18.0160  -43.3110   23.4520 O.3   226  TYR226     -0.2866
    105  N         20.1680  -37.2390   26.1990 N.am  227  SER227     -0.1938
    106  CA        21.3150  -37.5060   27.0710 C.3   227  SER227      0.2040
    107  C         22.6080  -36.7880   26.6420 C.2   227  SER227      0.2485
    108  O         23.6770  -37.4040   26.6490 O.2   227  SER227     -0.2729
    109  CB        21.5710  -39.0240   27.1950 C.3   227  SER227      0.2129
    110  OG        20.4430  -39.7170   27.7010 O.3   227  SER227     -0.2179
    111  N         22.5380  -35.4780   26.3160 N.am  228  PRO228     -0.2715
    112  CA        23.7300  -34.8350   25.7300 C.3   228  PRO228      0.1536
    113  C         24.9240  -34.6880   26.6750 C.2   228  PRO228      0.2598
    114  O         26.0580  -34.4660   26.2140 O.2   228  PRO228     -0.2715
    115  CB        23.2080  -33.4580   25.3280 C.3   228  PRO228      0.0310
    116  CG        22.1550  -33.1720   26.3210 C.3   228  PRO228      0.0237
    117  CD        21.4850  -34.4850   26.6060 C.3   228  PRO228      0.0939
    118  N         24.6800  -34.8100   27.9800 N.am  229  LEU229     -0.1978
    119  CA        25.7590  -34.7780   28.9760 C.3   229  LEU229      0.1596
    120  C         26.2010  -36.1920   29.3810 C.2   229  LEU229      0.2287
    121  O         27.0710  -36.3610   30.2300 O.2   229  LEU229     -0.2864
    122  CB        25.3430  -33.9690   30.2130 C.3   229  LEU229      0.0297
    123  CG        24.4520  -32.7300   30.0090 C.3   229  LEU229      0.0022
    124  CD1       23.9950  -32.1630   31.3540 C.3   229  LEU229      0.0001
    125  CD2       25.1530  -31.6550   29.1820 C.3   229  LEU229      0.0001
    126  N         24.0240  -38.5690   30.4890 N.3   231  SER231     -0.1202
    127  CA        23.0660  -39.0970   31.4550 C.3   231  SER231      0.2020
    128  C         23.6440  -39.0750   32.8790 C.2   231  SER231      0.2619
    129  O         24.4380  -38.1960   33.1990 O.2   231  SER231     -0.2717
    130  CB        22.5990  -40.5000   31.0350 C.3   231  SER231      0.2103
    131  OG        21.4900  -40.9220   31.8010 O.3   231  SER231     -0.2182
    132  N         23.2430  -40.0340   33.7140 N.am  232  HIS232     -0.1961
    133  CA        23.5640  -40.0460   35.1550 C.3   232  HIS232      0.1787
    134  C         24.9970  -39.6280   35.4890 C.2   232  HIS232      0.2621
    135  O         25.9580  -40.3030   35.1190 O.2   232  HIS232     -0.2715
    136  CB        23.2630  -41.4200   35.7810 C.3   232  HIS232      0.0785
    137  CG        21.8010  -41.7410   35.8700 C.ar  232  HIS232      0.0821
    138  ND1       21.2390  -42.8350   35.2430 N.ar  232  HIS232     -0.2267
    139  CD2       20.7840  -41.1070   36.5050 C.ar  232  HIS232      0.1154
    140  CE1       19.9400  -42.8600   35.4870 C.ar  232  HIS232      0.1986
    141  NE2       19.6370  -41.8220   36.2490 N.ar  232  HIS232     -0.2212
    142  N         25.1220  -38.4990   36.1840 N.am  233  GLY233     -0.1940
    143  CA        26.4220  -38.0080   36.6440 C.3   233  GLY233      0.2014
    144  C         27.1440  -37.1360   35.6360 C.2   233  GLY233      0.2638
    145  O         28.2570  -36.6890   35.8990 O.2   233  GLY233     -0.2714
    146  N         26.5050  -36.9020   34.4830 N.am  234  ALA234     -0.1977
    147  CA        27.0300  -36.0400   33.4140 C.3   234  ALA234      0.1597
    148  C         28.5190  -36.2690   33.1120 C.2   234  ALA234      0.2287
    149  O         29.3320  -35.3420   33.2220 O.2   234  ALA234     -0.2864
    150  CB        26.7490  -34.5690   33.7210 C.3   234  ALA234      0.0319
    151  N         31.0040  -33.9100   30.7560 N.3   237  LEU237     -0.1245
    152  CA        31.6980  -32.7090   31.2250 C.3   237  LEU237      0.1561
    153  C         33.1710  -32.9990   31.5500 C.2   237  LEU237      0.2260
    154  O         34.0090  -32.0950   31.5310 O.2   237  LEU237     -0.2867
    155  CB        31.0010  -32.1220   32.4600 C.3   237  LEU237      0.0270
    156  CG        29.5370  -31.6550   32.3730 C.3   237  LEU237      0.0019
    157  CD1       28.9690  -31.4360   33.7660 C.3   237  LEU237      0.0001
    158  CD2       29.4100  -30.3850   31.5520 C.3   237  LEU237      0.0001
    159  N         28.3080  -27.3360   30.4070 N.3   254  ASN254     -0.1240
    160  CA        26.9530  -27.5640   29.9330 C.3   254  ASN254      0.1653
    161  C         26.7130  -26.8080   28.6460 C.2   254  ASN254      0.2266
    162  O         26.2950  -27.4050   27.6460 O.2   254  ASN254     -0.2867
    163  CB        25.9280  -27.1890   31.0020 C.3   254  ASN254      0.1155
    164  CG        25.9810  -28.1180   32.1920 C.2   254  ASN254      0.2627
    165  OD1       26.9960  -28.2020   32.8850 O.2   254  ASN254     -0.2716
    166  ND2       24.8830  -28.8230   32.4350 N.am  254  ASN254     -0.0877
    167  N         18.1800  -31.3550   24.3940 N.3   269  ILE269     -0.1231
    168  CA        17.3560  -31.3580   25.5760 C.3   269  ILE269      0.1678
    169  C         18.0900  -31.8270   26.8610 C.2   269  ILE269      0.2434
    170  O         17.7880  -32.8930   27.3860 O.2   269  ILE269     -0.2733
    171  CB        16.0750  -32.1950   25.2950 C.3   269  ILE269      0.0265
    172  CG1       16.4670  -33.6060   24.8220 C.3   269  ILE269      0.0019
    173  CG2       15.2460  -31.5150   24.1960 C.3   269  ILE269      0.0020
    174  CD1       15.3300  -34.4880   24.3860 C.3   269  ILE269      0.0001
    175  N         19.0450  -31.0240   27.3770 N.am  270  PRO270     -0.2718
    176  CA        19.7300  -31.4730   28.5970 C.3   270  PRO270      0.1535
    177  C         18.7520  -31.5240   29.7750 C.2   270  PRO270      0.2598
    178  O         17.7610  -30.7630   29.8200 O.2   270  PRO270     -0.2715
    179  CB        20.8010  -30.4040   28.8300 C.3   270  PRO270      0.0310
    180  CG        20.3490  -29.2160   28.0730 C.3   270  PRO270      0.0237
    181  CD        19.4980  -29.6890   26.9420 C.3   270  PRO270      0.0939
    182  N         18.9820  -32.4670   30.6770 N.am  271  ARG271     -0.1964
    183  CA        18.1390  -32.5960   31.8410 C.3   271  ARG271      0.1729
    184  C         18.8670  -32.0820   33.0680 C.2   271  ARG271      0.2617
    185  O         20.0580  -32.3310   33.2440 O.2   271  ARG271     -0.2715
    186  CB        17.7050  -34.0480   32.0530 C.3   271  ARG271      0.0348
    187  CG        16.9640  -34.2640   33.3820 C.3   271  ARG271      0.0492
    188  CD        16.5010  -35.6910   33.5390 C.3   271  ARG271      0.2205
    189  NE        17.6070  -36.6030   33.8190 N.pl3 271  ARG271     -0.0865
    190  CZ        18.0950  -36.8240   35.0370 C.cat 271  ARG271      0.5346
    191  NH1       19.0970  -37.6690   35.1960 N.pl3 271  ARG271      0.1354
    192  NH2       17.5830  -36.1960   36.0940 N.pl3 271  ARG271      0.1354
    193  N         18.1370  -31.3320   33.8890 N.am  272  SER272     -0.1936
    194  CA        18.5790  -30.9690   35.2300 C.3   272  SER272      0.2055
    195  C         17.3770  -30.7060   36.1260 C.2   272  SER272      0.2643
    196  O         16.2770  -30.4150   35.6410 O.2   272  SER272     -0.2714
    197  CB        19.5130  -29.7550   35.2160 C.3   272  SER272      0.2130
    198  OG        20.0740  -29.5650   36.5140 O.3   272  SER272     -0.2179
    199  N         17.5970  -30.8440   37.4310 N.am  273  LEU273     -0.1963
    200  CA        16.6200  -30.4960   38.4510 C.3   273  LEU273      0.1728
    201  C         17.1410  -29.3160   39.2630 C.2   273  LEU273      0.2616
    202  O         16.5230  -28.8810   40.2370 O.2   273  LEU273     -0.2715
    203  CB        16.3620  -31.6970   39.3720 C.3   273  LEU273      0.0311
    204  CG        15.4090  -32.7740   38.8640 C.3   273  LEU273      0.0022
    205  CD1       15.4270  -33.9980   39.7760 C.3   273  LEU273      0.0001
    206  CD2       13.9930  -32.2280   38.7120 C.3   273  LEU273      0.0001
    207  N         18.2890  -28.8040   38.8390 N.am  274  ASN274     -0.1972
    208  CA        19.0020  -27.7590   39.5520 C.3   274  ASN274      0.1688
    209  C         18.6790  -26.3780   38.9590 C.2   274  ASN274      0.2292
    210  O         19.1210  -26.0610   37.8630 O.2   274  ASN274     -0.2864
    211  CB        20.5060  -28.0590   39.4860 C.3   274  ASN274      0.1181
    212  CG        21.3360  -27.0980   40.2920 C.2   274  ASN274      0.2629
    213  OD1       21.0890  -25.9000   40.2990 O.2   274  ASN274     -0.2716
    214  ND2       22.3470  -27.6230   40.9710 N.am  274  ASN274     -0.0877
    215  N         21.7120  -24.1020   37.8550 N.3   277  ARG277     -0.1245
    216  CA        22.4030  -24.7490   36.7380 C.3   277  ARG277      0.1563
    217  C         21.6550  -24.5070   35.4220 C.2   277  ARG277      0.2260
    218  O         22.2590  -24.1300   34.4170 O.2   277  ARG277     -0.2867
    219  CB        22.4720  -26.2460   37.0140 C.3   277  ARG277      0.0307
    220  CG        23.7170  -26.9740   36.5420 C.3   277  ARG277      0.0489
    221  CD        23.7750  -28.3610   37.1820 C.3   277  ARG277      0.2205
    222  NE        24.4620  -28.3620   38.4720 N.pl3 277  ARG277     -0.0865
    223  CZ        24.6630  -29.4400   39.2340 C.cat 277  ARG277      0.5346
    224  NH1       24.2200  -30.6360   38.8600 N.pl3 277  ARG277      0.1354
    225  NH2       25.3060  -29.3220   40.3910 N.pl3 277  ARG277      0.1354
    226  N         22.7720  -44.9500   26.8280 N.3   307  ILE307     -0.1245
    227  CA        21.3990  -45.4340   26.8560 C.3   307  ILE307      0.1561
    228  C         21.2810  -46.6690   25.9620 C.2   307  ILE307      0.2260
    229  O         21.1940  -46.5730   24.7310 O.2   307  ILE307     -0.2867
    230  CB        20.3780  -44.3390   26.4620 C.3   307  ILE307      0.0252
    231  CG1       20.6180  -43.0420   27.2640 C.3   307  ILE307      0.0019
    232  CG2       18.9350  -44.8660   26.5980 C.3   307  ILE307      0.0019
    233  CD1       20.5100  -43.1760   28.7900 C.3   307  ILE307      0.0001
@<TRIPOS>BOND
     1    78    79    2
     2    78    77    1
     3    84    85    1
     4    70    71    1
     5    73    72    2
     6    72    76   am
     7    72    71    1
     8    77    76    1
     9    77    80    1
    10    71    74    1
    11    85    86    1
    12    85    88    1
    13    86    87    2
    14    59    58    2
    15    58    57    1
    16    80    81    1
    17    88    89    1
    18    74    75    1
    19    57    56    1
    20    57    60    1
    21    46    47    1
    22    56    48   am
    23    81    82    2
    24    81    83   am
    25    89    90    1
    26    48    49    2
    27    48    47    1
    28    60    61    1
    29    47    50    1
    30    66    68   ar
    31    66    63   ar
    32    92    90   am
    33    68    69   ar
    34    90    91    2
    35    61    63   ar
    36    61    62   ar
    37    63    65   ar
    38    93    94    1
    39   102   100   ar
    40   102   103   ar
    41   100    98   ar
    42    50    51    1
    43    69    67   ar
    44   104   103    1
    45    38    41    1
    46    38    39    1
    47    38    37    1
    48   103   101   ar
    49    41    42    1
    50    42    43    1
    51    62    64   ar
    52    65    67   ar
    53    65    64   ar
    54    39    40    2
    55    43    44    1
    56    98    97    1
    57    98    99   ar
    58    94    97    1
    59    94    95    1
    60    44    45    1
    61    23    22   ar
    62   173   171    1
    63    96    95    2
    64    53    51   ar
    65    53    55   ar
    66    51    52   ar
    67   174   172    1
    68   167   168    1
    69   101    99   ar
    70   229   228    2
    71   172   171    1
    72    95   105   am
    73   171   168    1
    74   115   112    1
    75   115   116    1
    76    22    21    1
    77    22    24   ar
    78    55    54   ar
    79    52    54   ar
    80   168   169    1
    81   112   111    1
    82   112   113    1
    83    21    18    1
    84   228   227    1
    85   105   106    1
    86   114   113    2
    87   111   117    1
    88   111   107   am
    89   116   117    1
    90   230   232    1
    91   230   227    1
    92   230   231    1
    93    18    17    1
    94    18    19    1
    95   107   108    2
    96   107   106    1
    97   113   118   am
    98   226   227    1
    99   169   175   am
   100   169   170    2
   101   181   175    1
   102   181   180    1
   103   106   109    1
   104   109   110    1
   105   231   233    1
   106   175   176    1
   107    36    35    1
   108   162   161    2
   109    19    20    2
   110   118   119    1
   111   180   179    1
   112   176   179    1
   113   176   177    1
   114    35    34   ar
   115    35    33   ar
   116   161   160    1
   117   119   120    1
   118   119   122    1
   119    34    32   ar
   120   125   123    1
   121    33    31   ar
   122   120   121    2
   123     1     2    1
   124     2     3    1
   125   177   178    2
   126   177   182   am
   127   160   159    1
   128   160   163    1
   129   123   122    1
   130   123   124    1
   131    32    30   ar
   132    31    30   ar
   133   126   127    1
   134   182   183    1
   135   151   152    1
   136    30    29    1
   137     3     5   am
   138     3     4    2
   139     5     6    1
   140   163   164    1
   141   130   127    1
   142   130   131    1
   143    10     9    1
   144   152   153    1
   145   152   155    1
   146   127   128    1
   147    16    13    1
   148   154   153    2
   149   158   156    1
   150    25    26    1
   151   183   186    1
   152   183   184    1
   153    11     9    1
   154   186   187    1
   155    29    26    1
   156    12    13    1
   157    12     7   am
   158   164   166   am
   159   164   165    2
   160     9     6    1
   161     6     7    1
   162   156   155    1
   163   156   157    1
   164    13    14    1
   165    26    27    1
   166     7     8    2
   167   128   129    2
   168   128   132   am
   169   184   185    2
   170   184   193   am
   171   148   149    2
   172   148   147    1
   173   187   188    1
   174   147   150    1
   175   147   146    1
   176   188   189    1
   177   132   133    1
   178   189   190    2
   179   193   194    1
   180    14    15    2
   181    27    28    2
   182   218   217    2
   183   146   144   am
   184   190   191    1
   185   190   192    1
   186   135   134    2
   187   133   134    1
   188   133   136    1
   189   197   194    1
   190   197   198    1
   191   194   195    1
   192   138   140   ar
   193   138   137   ar
   194   217   216    1
   195   140   141   ar
   196   134   142   am
   197   144   145    2
   198   144   143    1
   199   196   195    2
   200   136   137    1
   201   137   139   ar
   202   195   199   am
   203   142   143    1
   204   141   139   ar
   205   220   219    1
   206   220   221    1
   207   216   219    1
   208   216   215    1
   209   221   222    1
   210   199   200    1
   211   210   209    2
   212   200   201    1
   213   200   203    1
   214   222   223    2
   215   206   204    1
   216   207   201   am
   217   207   208    1
   218   224   223    1
   219   204   203    1
   220   204   205    1
   221   209   208    1
   222   223   225    1
   223   201   202    2
   224   211   208    1
   225   211   212    1
   226   212   213    2
   227   212   214   am
