@<TRIPOS>MOLECULE
tmp/4ijuB01.pdb
 147 135 0 0 0
SMALL
GASTEIGER

@<TRIPOS>ATOM
      1  N         31.9690   34.2940   81.0200 N.3   112  ILE112     -0.1245
      2  CA        33.3760   34.4130   81.4200 C.3   112  ILE112      0.1561
      3  C         34.0880   33.1910   80.8610 C.2   112  ILE112      0.2260
      4  O         33.4300   32.2060   80.5380 O.2   112  ILE112     -0.2867
      5  CB        33.5810   34.4980   82.9790 C.3   112  ILE112      0.0252
      6  CG1       32.8610   33.3390   83.7320 C.3   112  ILE112      0.0019
      7  CG2       33.1890   35.8840   83.5240 C.3   112  ILE112      0.0019
      8  CD1       33.3260   33.1690   85.1700 C.3   112  ILE112      0.0001
      9  N         37.6530   29.4070   84.6950 N.3   115  THR115     -0.1218
     10  CA        38.7270   29.8150   85.5970 C.3   115  THR115      0.1862
     11  C         38.7600   29.0500   86.9020 C.2   115  THR115      0.2287
     12  O         37.7190   28.8250   87.5180 O.2   115  THR115     -0.2866
     13  CB        38.9300   31.3730   85.6920 C.3   115  THR115      0.1770
     14  OG1       39.1990   31.8030   87.0300 O.3   115  THR115     -0.2211
     15  CG2       37.8030   32.1670   85.1420 C.3   115  THR115      0.0375
     16  N         40.9350   28.4840   90.8220 N.3   117  LEU117     -0.1245
     17  CA        41.7010   29.2990   91.7540 C.3   117  LEU117      0.1561
     18  C         43.1150   28.7710   91.7950 C.2   117  LEU117      0.2260
     19  O         43.3250   27.5620   91.9790 O.2   117  LEU117     -0.2867
     20  CB        41.1130   29.3520   93.1850 C.3   117  LEU117      0.0270
     21  CG        39.6300   29.6740   93.4580 C.3   117  LEU117      0.0019
     22  CD1       39.4710   30.3990   94.7590 C.3   117  LEU117      0.0001
     23  CD2       38.9440   30.4240   92.3430 C.3   117  LEU117      0.0001
     24  N         31.9750   41.1620   89.8210 N.3   161  SER161     -0.1202
     25  CA        32.1930   40.4470   91.0690 C.3   161  SER161      0.2020
     26  C         32.7210   41.4100   92.1110 C.2   161  SER161      0.2619
     27  O         33.2000   42.4850   91.7500 O.2   161  SER161     -0.2717
     28  CB        33.2340   39.3450   90.8290 C.3   161  SER161      0.2103
     29  OG        33.7820   38.8010   92.0230 O.3   161  SER161     -0.2182
     30  N         32.7190   40.9880   93.3990 N.am  162  LEU162     -0.1965
     31  CA        33.3670   41.7430   94.4790 C.3   162  LEU162      0.1728
     32  C         34.8760   41.8290   94.1560 C.2   162  LEU162      0.2616
     33  O         35.5130   42.8350   94.4610 O.2   162  LEU162     -0.2715
     34  CB        33.1490   41.0690   95.8500 C.3   162  LEU162      0.0311
     35  CG        31.7780   41.2930   96.5160 C.3   162  LEU162      0.0022
     36  CD1       31.6100   40.4310   97.7610 C.3   162  LEU162      0.0001
     37  CD2       31.6110   42.7470   96.9180 C.3   162  LEU162      0.0001
     38  N         35.4180   40.8010   93.4520 N.am  163  ALA163     -0.1977
     39  CA        36.8100   40.7510   92.9790 C.3   163  ALA163      0.1597
     40  C         37.0500   41.7770   91.8410 C.2   163  ALA163      0.2287
     41  O         38.1750   41.9330   91.3750 O.2   163  ALA163     -0.2864
     42  CB        37.1750   39.3310   92.5350 C.3   163  ALA163      0.0319
     43  N         37.3670   44.9650   94.9040 N.3   166  VAL166     -0.1245
     44  CA        38.4330   44.7690   95.8970 C.3   166  VAL166      0.1561
     45  C         39.3780   43.6740   95.3580 C.2   166  VAL166      0.2260
     46  O         38.9860   42.8840   94.4990 O.2   166  VAL166     -0.2867
     47  CB        37.8970   44.4000   97.3340 C.3   166  VAL166      0.0252
     48  CG1       36.8650   45.4190   97.8450 C.3   166  VAL166      0.0019
     49  CG2       37.3410   42.9630   97.3980 C.3   166  VAL166      0.0019
     50  N         41.4860   40.2010   95.5350 N.3   168  TYR168     -0.1241
     51  CA        41.2460   38.8760   96.0710 C.3   168  TYR168      0.1605
     52  C         42.3430   37.9670   95.5630 C.2   168  TYR168      0.2264
     53  O         42.5840   37.9840   94.3620 O.2   168  TYR168     -0.2867
     54  CB        39.8770   38.3660   95.6020 C.3   168  TYR168      0.0534
     55  CG        39.3200   37.2740   96.4800 C.ar  168  TYR168     -0.0201
     56  CD1       38.6540   37.5780   97.6650 C.ar  168  TYR168     -0.0009
     57  CD2       39.5010   35.9330   96.1560 C.ar  168  TYR168     -0.0009
     58  CE1       38.1180   36.5730   98.4730 C.ar  168  TYR168      0.0417
     59  CE2       39.0080   34.9160   96.9790 C.ar  168  TYR168      0.0417
     60  CZ        38.2850   35.2440   98.1170 C.ar  168  TYR168      0.1957
     61  OH        37.7750   34.2620   98.9270 O.3   168  TYR168     -0.2866
     62  N         42.7560   34.7260   91.9990 N.3   171  VAL171     -0.1245
     63  CA        41.8860   35.1260   90.8620 C.3   171  VAL171      0.1561
     64  C         42.3980   36.4100   90.2260 C.2   171  VAL171      0.2260
     65  O         41.6030   37.2130   89.7730 O.2   171  VAL171     -0.2867
     66  CB        40.3730   35.2300   91.2790 C.3   171  VAL171      0.0252
     67  CG1       39.8140   33.8640   91.6480 C.3   171  VAL171      0.0019
     68  CG2       40.1410   36.2260   92.4280 C.3   171  VAL171      0.0019
     69  N         41.3150   37.1200   86.4870 N.3   174  TYR174     -0.1241
     70  CA        39.8600   37.2920   86.5680 C.3   174  TYR174      0.1605
     71  C         39.5020   38.6730   87.1990 C.2   174  TYR174      0.2264
     72  O         38.6770   39.4100   86.6650 O.2   174  TYR174     -0.2867
     73  CB        39.2940   36.1180   87.3770 C.3   174  TYR174      0.0534
     74  CG        37.8400   36.2520   87.7640 C.ar  174  TYR174     -0.0201
     75  CD1       36.8290   35.8160   86.9120 C.ar  174  TYR174     -0.0009
     76  CD2       37.4730   36.7660   89.0090 C.ar  174  TYR174     -0.0009
     77  CE1       35.4950   35.8950   87.2810 C.ar  174  TYR174      0.0417
     78  CE2       36.1320   36.8960   89.3660 C.ar  174  TYR174      0.0417
     79  CZ        35.1500   36.4360   88.5080 C.ar  174  TYR174      0.1957
     80  OH        33.8310   36.5050   88.8720 O.3   174  TYR174     -0.2866
     81  N         28.8350   40.9600   92.4400 N.3   206  LEU206     -0.1231
     82  CA        28.4020   39.7460   93.1190 C.3   206  LEU206      0.1693
     83  C         29.4660   39.1130   93.9790 C.2   206  LEU206      0.2593
     84  O         30.6340   39.0200   93.5820 O.2   206  LEU206     -0.2718
     85  CB        27.9220   38.6800   92.1050 C.3   206  LEU206      0.0284
     86  CG        27.0450   39.0840   90.9200 C.3   206  LEU206      0.0019
     87  CD1       26.7910   37.8830   90.0200 C.3   206  LEU206      0.0001
     88  CD2       25.7410   39.7360   91.3620 C.3   206  LEU206      0.0001
     89  N         29.0280   38.6130   95.1380 N.am  207  GLY207     -0.1942
     90  CA        29.8710   37.8300   96.0250 C.3   207  GLY207      0.2014
     91  C         29.8190   36.3930   95.5550 C.2   207  GLY207      0.2638
     92  O         29.4210   36.1320   94.4180 O.2   207  GLY207     -0.2714
     93  N         30.1810   35.4460   96.4140 N.am  208  LEU208     -0.1977
     94  CA        30.1220   34.0380   96.0530 C.3   208  LEU208      0.1596
     95  C         28.6700   33.5600   95.8630 C.2   208  LEU208      0.2287
     96  O         27.7960   33.8160   96.7060 O.2   208  LEU208     -0.2864
     97  CB        30.8690   33.2020   97.0980 C.3   208  LEU208      0.0297
     98  CG        31.0190   31.7080   96.8490 C.3   208  LEU208      0.0022
     99  CD1       31.9870   31.4370   95.6680 C.3   208  LEU208      0.0001
    100  CD2       31.5130   31.0200   98.1250 C.3   208  LEU208      0.0001
    101  N         29.7670   25.3960   88.9010 N.3   213  THR213     -0.1203
    102  CA        31.1740   25.7000   88.6050 C.3   213  THR213      0.1994
    103  C         31.9190   26.4350   89.7430 C.2   213  THR213      0.2617
    104  O         33.0630   26.0790   90.0150 O.2   213  THR213     -0.2717
    105  CB        31.3660   26.3780   87.2480 C.3   213  THR213      0.1784
    106  OG1       30.7110   27.6340   87.2630 O.3   213  THR213     -0.2211
    107  CG2       30.8890   25.5290   86.0780 C.3   213  THR213      0.0376
    108  N         31.2720   27.4370   90.4030 N.am  214  ALA214     -0.1979
    109  CA        31.9020   28.1690   91.5100 C.3   214  ALA214      0.1597
    110  C         32.1160   27.2780   92.7200 C.2   214  ALA214      0.2287
    111  O         33.2030   27.3040   93.2800 O.2   214  ALA214     -0.2864
    112  CB        31.0790   29.3900   91.9060 C.3   214  ALA214      0.0319
    113  N         35.0320   25.0340   91.9580 N.3   217  ALA217     -0.1231
    114  CA        36.2820   25.7910   91.8820 C.3   217  ALA217      0.1694
    115  C         36.8440   26.2270   93.2250 C.2   217  ALA217      0.2591
    116  O         38.0610   26.1940   93.4160 O.2   217  ALA217     -0.2718
    117  CB        36.1360   26.9790   90.9400 C.3   217  ALA217      0.0304
    118  N         35.9700   26.6210   94.1580 N.am  218  VAL218     -0.1980
    119  CA        36.3800   27.1220   95.4780 C.3   218  VAL218      0.1595
    120  C         36.4230   26.0510   96.5910 C.2   218  VAL218      0.2287
    121  O         36.9020   26.3480   97.6750 O.2   218  VAL218     -0.2864
    122  CB        35.5550   28.3810   95.8950 C.3   218  VAL218      0.0276
    123  CG1       35.5530   29.4570   94.7960 C.3   218  VAL218      0.0022
    124  CG2       34.1350   28.0220   96.3290 C.3   218  VAL218      0.0022
    125  N         37.8890   28.3830   99.6610 N.3   222  VAL222     -0.1245
    126  CA        37.0600   29.5100  100.0510 C.3   222  VAL222      0.1561
    127  C         35.9130   28.9310  100.8790 C.2   222  VAL222      0.2260
    128  O         35.1540   28.0870  100.3880 O.2   222  VAL222     -0.2867
    129  CB        36.6100   30.3460   98.8230 C.3   222  VAL222      0.0252
    130  CG1       35.7180   31.5150   99.2370 C.3   222  VAL222      0.0019
    131  CG2       37.8240   30.8520   98.0540 C.3   222  VAL222      0.0019
    132  N         33.5850   30.8050  102.7820 N.3   224  MET224     -0.1245
    133  CA        32.4730   31.7230  103.0280 C.3   224  MET224      0.1570
    134  C         31.1340   31.1830  102.5580 C.2   224  MET224      0.2261
    135  O         31.0620   30.3280  101.6740 O.2   224  MET224     -0.2867
    136  CB        32.7320   33.1100  102.4140 C.3   224  MET224      0.0387
    137  CG        33.1030   33.0750  100.9710 C.3   224  MET224      0.0595
    138  SD        33.4870   34.7200  100.3600 S.3   224  MET224     -0.1393
    139  CE        35.2280   34.8920  100.8070 C.3   224  MET224      0.0692
    140  N         25.4090   39.8630   97.8380 N.3   250  ASP250     -0.1239
    141  CA        26.3330   39.0340   98.6280 C.3   250  ASP250      0.1674
    142  C         25.6290   38.4910   99.8900 C.2   250  ASP250      0.2266
    143  O         24.6830   39.1010  100.3830 O.2   250  ASP250     -0.2867
    144  CB        27.5560   39.8940   99.0400 C.3   250  ASP250      0.1410
    145  CG        28.6400   39.1550   99.7790 C.2   250  ASP250      0.3668
    146  OD1       29.2750   38.2700   99.1790 O.co2 250  ASP250     -0.2456
    147  OD2       28.7940   39.3960  100.9640 O.co2 250  ASP250     -0.2456
@<TRIPOS>BOND
     1     4     3    2
     2     3     2    1
     3     1     2    1
     4     2     5    1
     5     5     7    1
     6     5     6    1
     7     6     8    1
     8     9    10    1
     9    15    13    1
    10    10    13    1
    11    10    11    1
    12    13    14    1
    13   107   105    1
    14    69    70    1
    15    70    71    1
    16    70    73    1
    17    72    71    2
    18    11    12    2
    19    75    77   ar
    20    75    74   ar
    21   105   106    1
    22   105   102    1
    23    77    79   ar
    24    73    74    1
    25    74    76   ar
    26    79    80    1
    27    79    78   ar
    28   102   101    1
    29   102   103    1
    30    76    78   ar
    31   103   104    2
    32   103   108   am
    33    65    64    2
    34    24    25    1
    35    87    86    1
    36    64    63    1
    37   108   109    1
    38    16    17    1
    39    28    25    1
    40    28    29    1
    41    63    66    1
    42    63    62    1
    43    86    88    1
    44    86    85    1
    45   117   114    1
    46    25    26    1
    47    66    67    1
    48    66    68    1
    49    41    40    2
    50   109   112    1
    51   109   110    1
    52    27    26    2
    53    17    18    1
    54    17    20    1
    55    18    19    2
    56    40    39    1
    57   114   113    1
    58   114   115    1
    59    85    82    1
    60    26    30   am
    61    23    21    1
    62    81    82    1
    63    42    39    1
    64   110   111    2
    65    39    38    1
    66    82    83    1
    67    20    21    1
    68   115   116    2
    69   115   118   am
    70    30    31    1
    71    38    32   am
    72    21    22    1
    73    84    83    2
    74    83    89   am
    75    32    33    2
    76    32    31    1
    77   118   119    1
    78    53    52    2
    79    92    91    2
    80    31    34    1
    81    46    45    2
    82   123   122    1
    83    43    44    1
    84    89    90    1
    85    45    44    1
    86   119   122    1
    87   119   120    1
    88    50    51    1
    89    91    90    1
    90    91    93   am
    91    52    51    1
    92    54    51    1
    93    54    55    1
    94    99    98    1
    95    34    35    1
    96    95    94    1
    97    95    96    2
    98   122   124    1
    99    44    47    1
   100    94    93    1
   101    94    97    1
   102    57    55   ar
   103    57    59   ar
   104    55    56   ar
   105    35    37    1
   106    35    36    1
   107   120   121    2
   108    98    97    1
   109    98   100    1
   110    59    60   ar
   111    47    49    1
   112    47    48    1
   113    56    58   ar
   114   140   141    1
   115   131   129    1
   116    60    58   ar
   117    60    61    1
   118   141   144    1
   119   141   142    1
   120   129   130    1
   121   129   126    1
   122   144   145    1
   123   146   145   ar
   124   125   126    1
   125   145   147   ar
   126   142   143    2
   127   126   127    1
   128   138   139    1
   129   138   137    1
   130   128   127    2
   131   137   136    1
   132   135   134    2
   133   136   133    1
   134   134   133    1
   135   132   133    1
