@<TRIPOS>MOLECULE
tmp/4ijvD01.pdb
 191 183 0 0 0
SMALL
GASTEIGER

@<TRIPOS>ATOM
      1  N         10.4730   73.7740  113.5420 N.3    21  ILE21      -0.1245
      2  CA        10.2280   72.3850  113.1580 C.3    21  ILE21       0.1561
      3  C          9.0920   71.7820  113.9910 C.2    21  ILE21       0.2260
      4  O          8.2030   71.1470  113.4210 O.2    21  ILE21      -0.2867
      5  CB        11.5430   71.5420  113.1660 C.3    21  ILE21       0.0252
      6  CG1       12.6050   72.1780  112.2380 C.3    21  ILE21       0.0019
      7  CG2       11.2600   70.0890  112.7560 C.3    21  ILE21       0.0019
      8  CD1       14.0810   71.8790  112.5590 C.3    21  ILE21       0.0001
      9  N         14.9840   72.8730  122.5220 N.3    96  ILE96      -0.1231
     10  CA        16.3770   73.1720  122.8580 C.3    96  ILE96       0.1692
     11  C         16.4220   74.4800  123.6210 C.2    96  ILE96       0.2593
     12  O         15.5040   75.3010  123.5010 O.2    96  ILE96      -0.2718
     13  CB        17.3420   73.2260  121.6170 C.3    96  ILE96       0.0266
     14  CG1       16.8270   74.1450  120.4750 C.3    96  ILE96       0.0019
     15  CG2       17.7820   71.8190  121.1480 C.3    96  ILE96       0.0020
     16  CD1       17.9350   74.6250  119.5220 C.3    96  ILE96       0.0001
     17  N         17.5020   74.7100  124.3730 N.am   97  THR97      -0.1939
     18  CA        17.6700   75.9980  125.0500 C.3    97  THR97       0.2028
     19  C         18.1740   76.9830  123.9810 C.2    97  THR97       0.2642
     20  O         18.7280   76.5380  122.9740 O.2    97  THR97      -0.2714
     21  CB        18.5820   75.8600  126.2840 C.3    97  THR97       0.1808
     22  OG1       18.3650   76.9740  127.1440 O.3    97  THR97      -0.2208
     23  CG2       20.0730   75.7390  125.9330 C.3    97  THR97       0.0379
     24  N         17.9580   78.2910  124.1760 N.am   98  ASN98      -0.1957
     25  CA        18.4310   79.3260  123.2430 C.3    98  ASN98       0.1819
     26  C         19.9560   79.2800  123.1230 C.2    98  ASN98       0.2622
     27  O         20.6610   79.2190  124.1250 O.2    98  ASN98      -0.2715
     28  CB        17.9500   80.7260  123.6680 C.3    98  ASN98       0.1195
     29  CG        16.4410   80.9710  123.5200 C.2    98  ASN98       0.2630
     30  OD1       15.6790   80.1700  122.9490 O.2    98  ASN98      -0.2716
     31  ND2       15.9760   82.1090  124.0270 N.am   98  ASN98      -0.0877
     32  N         20.4530   79.2110  121.9010 N.am   99  THR99      -0.1937
     33  CA        21.8850   79.1310  121.6310 C.3    99  THR99       0.2028
     34  C         22.2650   79.9290  120.3970 C.2    99  THR99       0.2643
     35  O         21.4820   80.0530  119.4560 O.2    99  THR99      -0.2714
     36  CB        22.3740   77.6580  121.5910 C.3    99  THR99       0.1808
     37  OG1       23.7520   77.6110  121.1910 O.3    99  THR99      -0.2208
     38  CG2       21.5360   76.7720  120.6800 C.3    99  THR99       0.0379
     39  N         23.4700   80.4780  120.4060 N.am  100  SER100     -0.1935
     40  CA        23.9570   81.2310  119.2620 C.3   100  SER100      0.2055
     41  C         25.2860   80.6390  118.8170 C.2   100  SER100      0.2642
     42  O         25.8650   79.8530  119.5560 O.2   100  SER100     -0.2714
     43  CB        24.0750   82.7110  119.6160 C.3   100  SER100      0.2130
     44  OG        25.0830   82.9290  120.5800 O.3   100  SER100     -0.2179
     45  N         25.7440   80.9510  117.6090 N.am  101  LEU101     -0.1977
     46  CA        27.0360   80.4520  117.1550 C.3   101  LEU101      0.1596
     47  C         28.1000   81.4010  117.7130 C.2   101  LEU101      0.2287
     48  O         28.0900   82.5840  117.3860 O.2   101  LEU101     -0.2864
     49  CB        27.1650   80.3790  115.6180 C.3   101  LEU101      0.0297
     50  CG        26.1430   79.6360  114.7260 C.3   101  LEU101      0.0022
     51  CD1       26.8340   79.0740  113.4810 C.3   101  LEU101      0.0001
     52  CD2       25.3880   78.5520  115.4420 C.3   101  LEU101      0.0001
     53  N         21.0600   66.6540  115.4070 N.3   145  SER145     -0.1202
     54  CA        21.6660   67.4570  114.3640 C.3   145  SER145      0.2020
     55  C         22.8590   66.7300  113.7900 C.2   145  SER145      0.2619
     56  O         23.3380   65.7850  114.4040 O.2   145  SER145     -0.2717
     57  CB        22.1330   68.7800  114.9980 C.3   145  SER145      0.2103
     58  OG        22.9870   69.5560  114.1730 O.3   145  SER145     -0.2182
     59  N         23.4130   67.2450  112.6660 N.am  146  LEU146     -0.1965
     60  CA        24.6780   66.7760  112.0920 C.3   146  LEU146      0.1728
     61  C         25.7670   67.0240  113.1450 C.2   146  LEU146      0.2616
     62  O         26.6820   66.2080  113.2960 O.2   146  LEU146     -0.2715
     63  CB        25.0250   67.5720  110.8150 C.3   146  LEU146      0.0311
     64  CG        24.1740   67.3310  109.5490 C.3   146  LEU146      0.0022
     65  CD1       24.6350   68.2700  108.4170 C.3   146  LEU146      0.0001
     66  CD2       24.2700   65.8780  109.0810 C.3   146  LEU146      0.0001
     67  N         25.6320   68.1430  113.9060 N.am  147  ALA147     -0.1977
     68  CA        26.5020   68.5380  115.0220 C.3   147  ALA147      0.1597
     69  C         26.3680   67.5730  116.2330 C.2   147  ALA147      0.2287
     70  O         27.0770   67.7290  117.2180 O.2   147  ALA147     -0.2864
     71  CB        26.1980   69.9690  115.4430 C.3   147  ALA147      0.0319
     72  N         31.6950   70.4790  114.8050 N.3   152  TYR152     -0.1228
     73  CA        31.5760   71.7960  114.2120 C.3   152  TYR152      0.1721
     74  C         32.1120   72.7820  115.2190 C.2   152  TYR152      0.2437
     75  O         31.7970   72.6420  116.3980 O.2   152  TYR152     -0.2733
     76  CB        30.1000   72.1550  113.9940 C.3   152  TYR152      0.0547
     77  CG        29.4200   71.4780  112.8360 C.ar  152  TYR152     -0.0200
     78  CD1       28.8610   70.2100  112.9750 C.ar  152  TYR152     -0.0009
     79  CD2       29.2180   72.1510  111.6370 C.ar  152  TYR152     -0.0009
     80  CE1       28.1650   69.6080  111.9300 C.ar  152  TYR152      0.0417
     81  CE2       28.5360   71.5560  110.5820 C.ar  152  TYR152      0.0417
     82  CZ        27.9910   70.2930  110.7390 C.ar  152  TYR152      0.1957
     83  OH        27.3170   69.7210  109.6960 O.3   152  TYR152     -0.2866
     84  N         32.7980   73.8560  114.7840 N.am  153  PRO153     -0.2718
     85  CA        33.1740   74.9000  115.7460 C.3   153  PRO153      0.1535
     86  C         31.9390   75.7740  116.0280 C.2   153  PRO153      0.2598
     87  O         30.9620   75.6980  115.2750 O.2   153  PRO153     -0.2715
     88  CB        34.2390   75.6910  114.9790 C.3   153  PRO153      0.0310
     89  CG        33.8250   75.5790  113.5310 C.3   153  PRO153      0.0237
     90  CD        33.1860   74.2150  113.3980 C.3   153  PRO153      0.0939
     91  N         31.9820   76.6120  117.0770 N.am  154  MET154     -0.1964
     92  CA        30.9210   77.5800  117.4100 C.3   154  MET154      0.1736
     93  C         29.6700   77.0530  118.0900 C.2   154  MET154      0.2616
     94  O         28.7920   77.8460  118.4440 O.2   154  MET154     -0.2715
     95  CB        30.5630   78.4990  116.2110 C.3   154  MET154      0.0427
     96  CG        31.7490   79.3230  115.6850 C.3   154  MET154      0.0599
     97  SD        31.3040   80.2350  114.1850 S.3   154  MET154     -0.1393
     98  CE        31.2610   78.8650  112.9530 C.3   154  MET154      0.0692
     99  N         29.5790   75.7280  118.2840 N.am  155  VAL155     -0.1977
    100  CA        28.4280   75.0510  118.9100 C.3   155  VAL155      0.1596
    101  C         28.8830   73.9840  119.9180 C.2   155  VAL155      0.2287
    102  O         28.2240   72.9530  120.0400 O.2   155  VAL155     -0.2864
    103  CB        27.4550   74.4700  117.8230 C.3   155  VAL155      0.0276
    104  CG1       26.7330   75.5780  117.0730 C.3   155  VAL155      0.0022
    105  CG2       28.1820   73.5380  116.8390 C.3   155  VAL155      0.0022
    106  N         26.1360   73.0090  122.7010 N.3   158  TYR158     -0.1241
    107  CA        25.0240   72.4590  121.9380 C.3   158  TYR158      0.1605
    108  C         25.3620   71.0550  121.4100 C.2   158  TYR158      0.2264
    109  O         24.5810   70.1170  121.5770 O.2   158  TYR158     -0.2867
    110  CB        24.7050   73.4170  120.7700 C.3   158  TYR158      0.0534
    111  CG        23.7070   72.8850  119.7590 C.ar  158  TYR158     -0.0201
    112  CD1       22.3380   73.0310  119.9600 C.ar  158  TYR158     -0.0009
    113  CD2       24.1350   72.2940  118.5730 C.ar  158  TYR158     -0.0009
    114  CE1       21.4110   72.5670  119.0260 C.ar  158  TYR158      0.0417
    115  CE2       23.2140   71.8360  117.6200 C.ar  158  TYR158      0.0417
    116  CZ        21.8530   71.9870  117.8490 C.ar  158  TYR158      0.1957
    117  OH        20.9430   71.5490  116.9270 O.3   158  TYR158     -0.2866
    118  N         19.6270   66.1530  111.6750 N.3   190  LEU190     -0.1231
    119  CA        19.2560   67.2470  110.7870 C.3   190  LEU190      0.1693
    120  C         20.3740   68.2080  110.4550 C.2   190  LEU190      0.2593
    121  O         21.1400   68.6040  111.3320 O.2   190  LEU190     -0.2718
    122  CB        18.0700   68.0650  111.3460 C.3   190  LEU190      0.0284
    123  CG        16.8950   67.3610  112.0210 C.3   190  LEU190      0.0019
    124  CD1       15.9330   68.3790  112.5590 C.3   190  LEU190      0.0001
    125  CD2       16.1720   66.4190  111.0680 C.3   190  LEU190      0.0001
    126  N         20.3920   68.6390  109.1980 N.am  191  GLY191     -0.1942
    127  CA        21.2820   69.6880  108.7380 C.3   191  GLY191      0.2014
    128  C         20.5850   71.0150  108.9420 C.2   191  GLY191      0.2639
    129  O         19.5760   71.0740  109.6590 O.2   191  GLY191     -0.2714
    130  N         21.0970   72.0800  108.2960 N.am  192  LEU192     -0.1963
    131  CA        20.5280   73.4260  108.3530 C.3   192  LEU192      0.1728
    132  C         19.1200   73.4300  107.7950 C.2   192  LEU192      0.2616
    133  O         18.9030   72.9770  106.6740 O.2   192  LEU192     -0.2715
    134  CB        21.3970   74.4550  107.5710 C.3   192  LEU192      0.0311
    135  CG        20.9740   75.9320  107.7390 C.3   192  LEU192      0.0022
    136  CD1       21.1550   76.3920  109.1860 C.3   192  LEU192      0.0001
    137  CD2       21.7360   76.8300  106.7740 C.3   192  LEU192      0.0001
    138  N         18.1790   73.9360  108.5860 N.am  193  ILE193     -0.1977
    139  CA        16.7530   74.0350  108.2970 C.3   193  ILE193      0.1596
    140  C         16.3710   75.5130  108.3570 C.2   193  ILE193      0.2287
    141  O         16.8220   76.2240  109.2560 O.2   193  ILE193     -0.2864
    142  CB        15.8970   73.1460  109.2790 C.3   193  ILE193      0.0276
    143  CG1       16.4380   71.6840  109.4370 C.3   193  ILE193      0.0022
    144  CG2       14.4190   73.1490  108.9080 C.3   193  ILE193      0.0022
    145  CD1       16.6080   70.8060  108.1290 C.3   193  ILE193      0.0001
    146  N         14.4000   77.5620  109.6430 N.3   195  THR195     -0.1218
    147  CA        13.5800   78.1510  110.6990 C.3   195  THR195      0.1862
    148  C         14.0870   79.5670  110.9630 C.2   195  THR195      0.2287
    149  O         15.2740   79.8270  110.7900 O.2   195  THR195     -0.2866
    150  CB        13.5430   77.2810  111.9680 C.3   195  THR195      0.1770
    151  OG1       14.8060   77.3010  112.6230 O.3   195  THR195     -0.2211
    152  CG2       13.1030   75.8520  111.6970 C.3   195  THR195      0.0375
    153  N         14.6290   81.2830  113.7170 N.3   197  THR197     -0.1203
    154  CA        15.6630   81.2530  114.7580 C.3   197  THR197      0.1994
    155  C         17.0330   80.7680  114.2430 C.2   197  THR197      0.2617
    156  O         18.0460   81.4010  114.5320 O.2   197  THR197     -0.2717
    157  CB        15.1570   80.4820  115.9850 C.3   197  THR197      0.1784
    158  OG1       13.9230   81.0660  116.4130 O.3   197  THR197     -0.2211
    159  CG2       16.1300   80.5510  117.1490 C.3   197  THR197      0.0376
    160  N         17.0570   79.6650  113.4960 N.am  198  ALA198     -0.1979
    161  CA        18.2940   79.1140  112.9600 C.3   198  ALA198      0.1597
    162  C         18.8950   80.0450  111.9010 C.2   198  ALA198      0.2287
    163  O         20.0980   80.2740  111.9300 O.2   198  ALA198     -0.2864
    164  CB        18.0520   77.7210  112.3960 C.3   198  ALA198      0.0319
    165  N         20.5290   82.9580  113.6260 N.3   201  ALA201     -0.1231
    166  CA        21.7430   82.4860  114.3050 C.3   201  ALA201      0.1694
    167  C         22.9370   82.2480  113.3520 C.2   201  ALA201      0.2591
    168  O         24.0630   82.4540  113.7730 O.2   201  ALA201     -0.2718
    169  CB        21.4410   81.2290  115.1300 C.3   201  ALA201      0.0304
    170  N         22.6860   81.8760  112.0740 N.am  202  VAL202     -0.1980
    171  CA        23.7270   81.5910  111.0710 C.3   202  VAL202      0.1595
    172  C         24.0430   82.7600  110.1360 C.2   202  VAL202      0.2287
    173  O         25.0010   82.6740  109.3470 O.2   202  VAL202     -0.2864
    174  CB        23.4600   80.2960  110.2610 C.3   202  VAL202      0.0276
    175  CG1       23.3660   79.0720  111.1560 C.3   202  VAL202      0.0022
    176  CG2       22.2420   80.4280  109.3340 C.3   202  VAL202      0.0022
    177  N         27.2040   81.2500  108.3400 N.3   206  VAL206     -0.1245
    178  CA        26.9820   80.0400  107.5610 C.3   206  VAL206      0.1561
    179  C         26.2980   80.3610  106.2200 C.2   206  VAL206      0.2260
    180  O         25.1780   80.8860  106.1970 O.2   206  VAL206     -0.2867
    181  CB        26.1640   79.0390  108.4320 C.3   206  VAL206      0.0252
    182  CG1       25.6040   77.8900  107.6230 C.3   206  VAL206      0.0019
    183  CG2       26.9700   78.5280  109.6170 C.3   206  VAL206      0.0019
    184  N         25.6600   77.9280  103.9150 N.3   208  MET208     -0.1245
    185  CA        25.0500   76.6410  103.5460 C.3   208  MET208      0.1570
    186  C         23.6140   76.8180  103.0530 C.2   208  MET208      0.2261
    187  O         22.9060   77.7330  103.4900 O.2   208  MET208     -0.2867
    188  CB        24.9620   75.7110  104.7790 C.3   208  MET208      0.0387
    189  CG        26.2800   75.3370  105.4210 C.3   208  MET208      0.0595
    190  SD        26.0810   74.4140  106.9850 S.3   208  MET208     -0.1393
    191  CE        27.7800   74.1130  107.3890 C.3   208  MET208      0.0692
@<TRIPOS>BOND
     1   186   187    2
     2   186   185    1
     3   185   184    1
     4   185   188    1
     5   188   189    1
     6   189   190    1
     7   180   179    2
     8   179   178    1
     9   133   132    2
    10   137   135    1
    11   190   191    1
    12   178   177    1
    13   178   181    1
    14   134   135    1
    15   134   131    1
    16   182   181    1
    17   135   136    1
    18   132   131    1
    19   132   138   am
    20   145   143    1
    21   130   131    1
    22   130   128   am
    23   139   140    1
    24   139   138    1
    25   139   142    1
    26   140   141    2
    27    65    64    1
    28   181   183    1
    29   127   128    1
    30   127   126    1
    31   144   142    1
    32   128   129    2
    33    66    64    1
    34   126   120   am
    35   142   143    1
    36   176   174    1
    37   173   172    2
    38    64    63    1
    39   146   147    1
    40    83    82    1
    41   172   171    1
    42   174   171    1
    43   174   175    1
    44   120   119    1
    45   120   121    2
    46    81    82   ar
    47    81    79   ar
    48   147   148    1
    49   147   150    1
    50    82    80   ar
    51   119   122    1
    52   119   118    1
    53   149   148    2
    54    63    60    1
    55   125   123    1
    56   171   170    1
    57   122   123    1
    58    79    77   ar
    59   152   150    1
    60   162   163    2
    61   162   161    1
    62    80    78   ar
    63   150   151    1
    64   123   124    1
    65   170   167   am
    66    60    59    1
    67    60    61    1
    68     6     8    1
    69     6     5    1
    70   164   161    1
    71    59    55   am
    72     7     5    1
    73    77    78   ar
    74    77    76    1
    75    98    97    1
    76   161   160    1
    77    61    62    2
    78    61    67   am
    79     2     5    1
    80     2     1    1
    81     2     3    1
    82   167   168    2
    83   167   166    1
    84    90    89    1
    85    90    84    1
    86     4     3    2
    87    51    50    1
    88   160   155   am
    89    89    88    1
    90   165   166    1
    91   153   154    1
    92    55    54    1
    93    55    56    2
    94    67    68    1
    95    76    73    1
    96    58    57    1
    97    97    96    1
    98    73    72    1
    99    73    74    1
   100   155   156    2
   101   155   154    1
   102   166   169    1
   103    54    57    1
   104    54    53    1
   105    50    52    1
   106    50    49    1
   107   154   157    1
   108    84    74   am
   109    84    85    1
   110    88    85    1
   111    68    71    1
   112    68    69    1
   113    74    75    2
   114    87    86    2
   115    49    46    1
   116    96    95    1
   117    85    86    1
   118   157   158    1
   119   157   159    1
   120    86    91   am
   121    95    92    1
   122    69    70    2
   123   105   103    1
   124   117   116    1
   125   104   103    1
   126    91    92    1
   127    46    45    1
   128    46    47    1
   129    48    47    2
   130    92    93    1
   131    45    41   am
   132   115   116   ar
   133   115   113   ar
   134   103   100    1
   135   116   114   ar
   136    93    99   am
   137    93    94    2
   138    99   100    1
   139   113   111   ar
   140    41    40    1
   141    41    42    2
   142   100   101    1
   143   114   112   ar
   144    40    43    1
   145    40    39    1
   146    35    34    2
   147    16    14    1
   148    43    44    1
   149   111   112   ar
   150   111   110    1
   151   101   102    2
   152    34    39   am
   153    34    33    1
   154    14    13    1
   155    38    36    1
   156   110   107    1
   157    15    13    1
   158    37    36    1
   159   108   109    2
   160   108   107    1
   161    36    33    1
   162    13    10    1
   163    33    32    1
   164    32    26   am
   165   107   106    1
   166     9    10    1
   167    10    11    1
   168    30    29    2
   169    20    19    2
   170    26    25    1
   171    26    27    2
   172    25    28    1
   173    25    24    1
   174    12    11    2
   175    29    28    1
   176    29    31   am
   177    11    17   am
   178    19    24   am
   179    19    18    1
   180    17    18    1
   181    18    21    1
   182    23    21    1
   183    21    22    1
