@<TRIPOS>MOLECULE
tmp/4ijwA01.pdb
 154 145 0 0 0
SMALL
GASTEIGER

@<TRIPOS>ATOM
      1  N         52.5140   53.4910   78.2300 N.3    96  ILE96      -0.1245
      2  CA        51.1280   53.3590   77.8030 C.3    96  ILE96       0.1561
      3  C         51.1160   53.5410   76.2920 C.2    96  ILE96       0.2260
      4  O         52.0160   54.1680   75.7410 O.2    96  ILE96      -0.2867
      5  CB        50.1280   54.3570   78.4900 C.3    96  ILE96       0.0252
      6  CG1       50.5820   55.8400   78.3470 C.3    96  ILE96       0.0019
      7  CG2       49.8210   53.9820   79.9400 C.3    96  ILE96       0.0019
      8  CD1       49.4490   56.8800   78.4580 C.3    96  ILE96       0.0001
      9  N         47.0050   57.6120   73.2180 N.3    99  THR99      -0.1218
     10  CA        45.5620   57.7900   73.3350 C.3    99  THR99       0.1862
     11  C         45.2080   59.2740   73.2440 C.2    99  THR99       0.2287
     12  O         46.0980   60.1390   73.2420 O.2    99  THR99      -0.2866
     13  CB        45.0210   57.0840   74.6170 C.3    99  THR99       0.1770
     14  OG1       43.5940   57.1820   74.6450 O.3    99  THR99      -0.2211
     15  CG2       45.6050   57.6470   75.9160 C.3    99  THR99       0.0375
     16  N         41.5930   62.1920   74.2350 N.3   101  LEU101     -0.1245
     17  CA        40.2890   62.3430   74.8700 C.3   101  LEU101      0.1561
     18  C         39.2810   62.3560   73.7350 C.2   101  LEU101      0.2260
     19  O         39.2940   63.2800   72.9190 O.2   101  LEU101     -0.2867
     20  CB        40.1630   63.6400   75.6940 C.3   101  LEU101      0.0270
     21  CG        41.1630   63.9500   76.8190 C.3   101  LEU101      0.0019
     22  CD1       40.5670   64.9100   77.7850 C.3   101  LEU101      0.0001
     23  CD2       41.5350   62.7290   77.6080 C.3   101  LEU101      0.0001
     24  N         46.4020   55.9940   87.1780 N.3   145  SER145     -0.1202
     25  CA        45.7760   57.3010   87.1030 C.3   145  SER145      0.2020
     26  C         44.5790   57.3830   88.0620 C.2   145  SER145      0.2619
     27  O         44.1190   56.3520   88.5570 O.2   145  SER145     -0.2717
     28  CB        45.3050   57.5010   85.6630 C.3   145  SER145      0.2103
     29  OG        44.4730   58.6380   85.5110 O.3   145  SER145     -0.2182
     30  N         44.0410   58.5930   88.2840 N.am  146  LEU146     -0.1965
     31  CA        42.7810   58.7830   89.0250 C.3   146  LEU146      0.1728
     32  C         41.6990   58.0440   88.2130 C.2   146  LEU146      0.2616
     33  O         40.7630   57.4790   88.7900 O.2   146  LEU146     -0.2715
     34  CB        42.3990   60.2800   89.0850 C.3   146  LEU146      0.0311
     35  CG        43.1980   61.2330   89.9920 C.3   146  LEU146      0.0022
     36  CD1       42.6970   62.6660   89.8210 C.3   146  LEU146      0.0001
     37  CD2       43.0770   60.8430   91.4660 C.3   146  LEU146      0.0001
     38  N         41.8760   58.0250   86.8510 N.am  147  ALA147     -0.1977
     39  CA        41.0270   57.3490   85.8680 C.3   147  ALA147      0.1597
     40  C         41.1050   55.8200   85.9730 C.2   147  ALA147      0.2287
     41  O         40.3600   55.1270   85.3000 O.2   147  ALA147     -0.2864
     42  CB        41.3750   57.8250   84.4580 C.3   147  ALA147      0.0319
     43  N         35.6900   58.5670   84.3740 N.3   152  TYR152     -0.1228
     44  CA        35.8480   59.7750   83.5860 C.3   152  TYR152      0.1721
     45  C         35.3250   59.5120   82.2090 C.2   152  TYR152      0.2437
     46  O         35.6390   58.4550   81.6730 O.2   152  TYR152     -0.2733
     47  CB        37.3340   60.1180   83.4310 C.3   152  TYR152      0.0547
     48  CG        37.9970   60.7340   84.6330 C.ar  152  TYR152     -0.0200
     49  CD1       38.5460   59.9380   85.6340 C.ar  152  TYR152     -0.0009
     50  CD2       38.1740   62.1100   84.7240 C.ar  152  TYR152     -0.0009
     51  CE1       39.2300   60.4990   86.7140 C.ar  152  TYR152      0.0417
     52  CE2       38.8460   62.6870   85.8050 C.ar  152  TYR152      0.0417
     53  CZ        39.3750   61.8750   86.7970 C.ar  152  TYR152      0.1957
     54  OH        40.0370   62.4200   87.8620 O.3   152  TYR152     -0.2866
     55  N         34.6170   60.4740   81.5660 N.am  153  PRO153     -0.2718
     56  CA        34.2420   60.2700   80.1520 C.3   153  PRO153      0.1535
     57  C         35.4770   60.5080   79.2750 C.2   153  PRO153      0.2598
     58  O         36.4750   61.0340   79.7800 O.2   153  PRO153     -0.2715
     59  CB        33.1960   61.3620   79.9050 C.3   153  PRO153      0.0310
     60  CG        33.5750   62.4660   80.8550 C.3   153  PRO153      0.0237
     61  CD        34.2100   61.8110   82.0590 C.3   153  PRO153      0.0939
     62  N         35.4130   60.1370   77.9720 N.am  154  MET154     -0.1964
     63  CA        36.4410   60.3570   76.9390 C.3   154  MET154      0.1736
     64  C         37.7210   59.5070   77.0620 C.2   154  MET154      0.2616
     65  O         38.6240   59.6560   76.2320 O.2   154  MET154     -0.2715
     66  CB        36.8110   61.8430   76.8310 C.3   154  MET154      0.0427
     67  CG        35.6320   62.7500   76.5180 C.3   154  MET154      0.0599
     68  SD        36.1420   64.4920   76.6460 S.3   154  MET154     -0.1393
     69  CE        36.0980   64.7710   78.4600 C.3   154  MET154      0.0692
     70  N         37.7870   58.5880   78.0440 N.am  155  VAL155     -0.1977
     71  CA        38.9520   57.7060   78.2850 C.3   155  VAL155      0.1596
     72  C         38.5140   56.2720   78.6090 C.2   155  VAL155      0.2287
     73  O         39.1660   55.6350   79.4440 O.2   155  VAL155     -0.2864
     74  CB        39.9230   58.2680   79.3940 C.3   155  VAL155      0.0276
     75  CG1       40.6470   59.5240   78.9200 C.3   155  VAL155      0.0022
     76  CG2       39.2000   58.5180   80.7290 C.3   155  VAL155      0.0022
     77  N         41.3130   53.3520   78.0650 N.3   158  TYR158     -0.1241
     78  CA        42.4110   53.7510   78.9330 C.3   158  TYR158      0.1605
     79  C         42.0630   53.4260   80.4070 C.2   158  TYR158      0.2264
     80  O         42.8320   52.7640   81.1000 O.2   158  TYR158     -0.2867
     81  CB        42.6600   55.2730   78.7100 C.3   158  TYR158      0.0534
     82  CG        43.6590   55.8800   79.6680 C.ar  158  TYR158     -0.0201
     83  CD1       45.0240   55.6540   79.5170 C.ar  158  TYR158     -0.0009
     84  CD2       43.2350   56.6240   80.7700 C.ar  158  TYR158     -0.0009
     85  CE1       45.9480   56.1840   80.4130 C.ar  158  TYR158      0.0417
     86  CE2       44.1540   57.1440   81.6880 C.ar  158  TYR158      0.0417
     87  CZ        45.5100   56.9390   81.4870 C.ar  158  TYR158      0.1957
     88  OH        46.4270   57.4650   82.3520 O.3   158  TYR158     -0.2866
     89  N         47.7380   58.8690   89.8570 N.3   190  LEU190     -0.1231
     90  CA        48.0870   60.2370   89.4870 C.3   190  LEU190      0.1693
     91  C         46.9520   61.0150   88.8580 C.2   190  LEU190      0.2593
     92  O         46.2020   60.4910   88.0190 O.2   190  LEU190     -0.2718
     93  CB        49.3050   60.2800   88.5220 C.3   190  LEU190      0.0284
     94  CG        50.4800   59.3170   88.7370 C.3   190  LEU190      0.0019
     95  CD1       51.4180   59.3620   87.5670 C.3   190  LEU190      0.0001
     96  CD2       51.2130   59.5980   90.0350 C.3   190  LEU190      0.0001
     97  N         46.9000   62.2960   89.2250 N.am  191  GLY191     -0.1942
     98  CA        46.0130   63.2810   88.6330 C.3   191  GLY191      0.2014
     99  C         46.6990   63.8840   87.4220 C.2   191  GLY191      0.2638
    100  O         47.6810   63.3080   86.9110 O.2   191  GLY191     -0.2714
    101  N         46.1950   65.0510   86.9520 N.am  192  LEU192     -0.1977
    102  CA        46.7530   65.7450   85.7950 C.3   192  LEU192      0.1596
    103  C         48.1830   66.1920   86.0640 C.2   192  LEU192      0.2287
    104  O         48.4450   66.8040   87.1020 O.2   192  LEU192     -0.2864
    105  CB        45.8790   66.9350   85.3770 C.3   192  LEU192      0.0297
    106  CG        46.2460   67.6040   84.0440 C.3   192  LEU192      0.0022
    107  CD1       46.0970   66.6130   82.8340 C.3   192  LEU192      0.0001
    108  CD2       45.4340   68.8740   83.8420 C.3   192  LEU192      0.0001
    109  N         52.8490   67.0150   81.5270 N.3   195  THR195     -0.1218
    110  CA        53.6580   66.4510   80.4490 C.3   195  THR195      0.1862
    111  C         53.1220   67.0220   79.1270 C.2   195  THR195      0.2287
    112  O         51.9400   67.3570   79.0600 O.2   195  THR195     -0.2866
    113  CB        53.7080   64.8940   80.4700 C.3   195  THR195      0.1770
    114  OG1       52.4160   64.3490   80.1760 O.3   195  THR195     -0.2211
    115  CG2       54.2670   64.3330   81.7630 C.3   195  THR195      0.0375
    116  N         52.3640   65.5070   76.3400 N.3   197  THR197     -0.1203
    117  CA        51.2720   64.6280   75.9110 C.3   197  THR197      0.1994
    118  C         49.9410   65.0330   76.5520 C.2   197  THR197      0.2617
    119  O         48.9610   65.2580   75.8240 O.2   197  THR197     -0.2717
    120  CB        51.6150   63.1550   76.2260 C.3   197  THR197      0.1784
    121  OG1       52.7710   62.7690   75.5050 O.3   197  THR197     -0.2211
    122  CG2       50.4780   62.1930   75.9020 C.3   197  THR197      0.0376
    123  N         49.9180   65.1110   77.9100 N.am  198  ALA198     -0.1979
    124  CA        48.7240   65.4340   78.6970 C.3   198  ALA198      0.1597
    125  C         48.2290   66.8450   78.4560 C.2   198  ALA198      0.2287
    126  O         47.0240   67.0320   78.3620 O.2   198  ALA198     -0.2864
    127  CB        48.9750   65.2060   80.1810 C.3   198  ALA198      0.0319
    128  N         46.5990   66.8600   75.0390 N.3   201  ALA201     -0.1231
    129  CA        45.3710   66.0560   75.1080 C.3   201  ALA201      0.1694
    130  C         44.1820   66.7620   75.7570 C.2   201  ALA201      0.2591
    131  O         43.0500   66.6230   75.2810 O.2   201  ALA201     -0.2718
    132  CB        45.6430   64.7400   75.8290 C.3   201  ALA201      0.0304
    133  N         44.4350   67.5030   76.8470 N.am  202  VAL202     -0.1980
    134  CA        43.3850   68.1590   77.6290 C.3   202  VAL202      0.1595
    135  C         43.0380   69.5700   77.1410 C.2   202  VAL202      0.2287
    136  O         42.0210   70.1130   77.5900 O.2   202  VAL202     -0.2864
    137  CB        43.6660   68.1590   79.1600 C.3   202  VAL202      0.0276
    138  CG1       43.8950   66.7520   79.6910 C.3   202  VAL202      0.0022
    139  CG2       44.8110   69.1040   79.5390 C.3   202  VAL202      0.0022
    140  N         39.6410   69.9100   79.0580 N.3   206  VAL206     -0.1245
    141  CA        39.7770   69.7640   80.4880 C.3   206  VAL206      0.1561
    142  C         40.4350   71.0120   81.0930 C.2   206  VAL206      0.2260
    143  O         41.5240   71.4290   80.6800 O.2   206  VAL206     -0.2867
    144  CB        40.4800   68.4190   80.8230 C.3   206  VAL206      0.0252
    145  CG1       40.9870   68.3840   82.2510 C.3   206  VAL206      0.0019
    146  CG2       39.5600   67.2320   80.5540 C.3   206  VAL206      0.0019
    147  N         41.6120   71.9520   84.4100 N.3   208  MET208     -0.1245
    148  CA        42.1250   71.4940   85.7050 C.3   208  MET208      0.1570
    149  C         43.5550   71.9830   85.8760 C.2   208  MET208      0.2261
    150  O         44.2760   72.1670   84.8900 O.2   208  MET208     -0.2867
    151  CB        42.1390   69.9430   85.7710 C.3   208  MET208      0.0387
    152  CG        40.7740   69.2790   85.8310 C.3   208  MET208      0.0595
    153  SD        40.8960   67.4920   85.4740 S.3   208  MET208     -0.1393
    154  CE        39.1960   67.0790   85.2180 C.3   208  MET208      0.0692
@<TRIPOS>BOND
     1    19    18    2
     2     9    10    1
     3    12    11    2
     4    11    10    1
     5    10    13    1
     6    18    17    1
     7    16    17    1
     8    13    14    1
     9    13    15    1
    10    17    20    1
    11   128   129    1
    12   129   130    1
    13   129   132    1
    14   131   130    2
    15   121   120    1
    16    20    21    1
    17     4     3    2
    18   130   133   am
    19   119   118    2
    20   122   120    1
    21   117   120    1
    22   117   116    1
    23   117   118    1
    24    65    64    2
    25     3     2    1
    26    67    68    1
    27    67    66    1
    28   118   123   am
    29    68    69    1
    30    21    23    1
    31    21    22    1
    32    66    63    1
    33   133   134    1
    34    63    64    1
    35    63    62    1
    36    64    70   am
    37   135   136    2
    38   135   134    1
    39   134   137    1
    40     2     1    1
    41     2     5    1
    42   123   124    1
    43    62    57   am
    44    70    71    1
    45    77    78    1
    46    71    72    1
    47    71    74    1
    48     6     8    1
    49     6     5    1
    50   126   125    2
    51   125   124    1
    52     5     7    1
    53    72    73    2
    54   124   127    1
    55    81    78    1
    56    81    82    1
    57    75    74    1
    58    78    79    1
    59   140   141    1
    60   112   111    2
    61   111   110    1
    62   137   139    1
    63   137   138    1
    64    57    58    2
    65    57    56    1
    66    74    76    1
    67    83    82   ar
    68    83    85   ar
    69    82    84   ar
    70    59    56    1
    71    59    60    1
    72    56    55    1
    73   114   113    1
    74    79    80    2
    75    85    87   ar
    76   110   113    1
    77   110   109    1
    78   113   115    1
    79   141   144    1
    80   141   142    1
    81   146   144    1
    82   143   142    2
    83    84    86   ar
    84   144   145    1
    85    60    61    1
    86    87    86   ar
    87    87    88    1
    88    55    61    1
    89    55    45   am
    90    46    45    2
    91    45    44    1
    92   107   106    1
    93    47    44    1
    94    47    48    1
    95    44    43    1
    96   108   106    1
    97   106   105    1
    98   147   148    1
    99    42    39    1
   100    48    50   ar
   101    48    49   ar
   102    50    52   ar
   103   150   149    2
   104   154   153    1
   105    41    40    2
   106   105   102    1
   107   153   152    1
   108    29    28    1
   109    49    51   ar
   110    28    25    1
   111   148   151    1
   112   148   149    1
   113   151   152    1
   114   102   103    1
   115   102   101    1
   116    52    53   ar
   117    39    40    1
   118    39    38    1
   119   103   104    2
   120    51    53   ar
   121    53    54    1
   122    38    32   am
   123   100    99    2
   124   101    99   am
   125    25    24    1
   126    25    26    1
   127    99    98    1
   128    95    94    1
   129    92    91    2
   130    26    30   am
   131    26    27    2
   132    32    33    2
   133    32    31    1
   134    30    31    1
   135    93    94    1
   136    93    90    1
   137    98    97    1
   138    94    96    1
   139    91    97   am
   140    91    90    1
   141    31    34    1
   142    34    35    1
   143    90    89    1
   144    36    35    1
   145    35    37    1
