@<TRIPOS>MOLECULE
tmp/4ijxA00.pdb
 84 78 0 0 0
SMALL
GASTEIGER

@<TRIPOS>ATOM
      1  N        -22.8820   33.0710   11.6190 N.3    28  ALA28      -0.1245
      2  CA       -23.3690   33.9190   12.7200 C.3    28  ALA28       0.1562
      3  C        -24.7460   33.4640   13.2490 C.2    28  ALA28       0.2260
      4  O        -25.6130   32.9840   12.4900 O.2    28  ALA28      -0.2867
      5  CB       -23.4200   35.3880   12.3140 C.3    28  ALA28       0.0290
      6  N        -26.8560   35.5500   14.6430 N.3    30  ASP30      -0.1239
      7  CA       -27.7960   36.6590   14.4950 C.3    30  ASP30       0.1674
      8  C        -27.8640   37.1960   13.0620 C.2    30  ASP30       0.2266
      9  O        -27.4100   36.5400   12.1200 O.2    30  ASP30      -0.2867
     10  CB       -27.4190   37.7810   15.4740 C.3    30  ASP30       0.1410
     11  CG       -25.9820   38.2680   15.2920 C.2    30  ASP30       0.3668
     12  OD1      -25.3080   37.8630   14.3100 O.co2  30  ASP30      -0.2456
     13  OD2      -25.5200   39.0620   16.1420 O.co2  30  ASP30      -0.2456
     14  N        -24.2900   35.5160    8.4140 N.3    34  HIS34      -0.1241
     15  CA       -23.0830   35.5180    7.5850 C.3    34  HIS34       0.1621
     16  C        -22.1790   34.3790    7.9380 C.2    34  HIS34       0.2264
     17  O        -22.2610   33.8390    9.0450 O.2    34  HIS34      -0.2867
     18  CB       -22.2960   36.8120    7.7900 C.3    34  HIS34       0.0745
     19  CG       -22.8200   37.9720    6.9800 C.ar   34  HIS34       0.0817
     20  ND1      -23.3190   39.0950    7.5480 N.ar   34  HIS34      -0.2268
     21  CD2      -22.9260   38.1420    5.5980 C.ar   34  HIS34       0.1154
     22  CE1      -23.7230   39.9430    6.5750 C.ar   34  HIS34       0.1986
     23  NE2      -23.4790   39.3580    5.3820 N.ar   34  HIS34      -0.2212
     24  N        -18.1220   33.4550    8.2440 N.3    36  THR36      -0.1218
     25  CA       -16.7220   33.9370    8.1970 C.3    36  THR36       0.1862
     26  C        -15.7850   33.0040    8.9530 C.2    36  THR36       0.2287
     27  O        -16.2360   32.1620    9.7530 O.2    36  THR36      -0.2866
     28  CB       -16.5070   35.3430    8.8390 C.3    36  THR36       0.1770
     29  OG1      -16.5050   35.1980   10.2610 O.3    36  THR36      -0.2211
     30  CG2      -17.5880   36.3270    8.4640 C.3    36  THR36       0.0375
     31  N        -12.9840   35.1250   14.2400 N.3    39  LYS39      -0.1245
     32  CA       -12.3970   36.4470   14.4630 C.3    39  LYS39       0.1561
     33  C        -13.0170   37.0650   15.7160 C.2    39  LYS39       0.2260
     34  O        -14.0690   36.6170   16.1460 O.2    39  LYS39      -0.2867
     35  CB       -12.6020   37.3530   13.2470 C.3    39  LYS39       0.0271
     36  CG       -14.0730   37.6550   12.9930 C.3    39  LYS39       0.0035
     37  CD       -14.2450   38.6670   11.8900 C.3    39  LYS39       0.0206
     38  CE       -15.6340   38.5330   11.2920 C.3    39  LYS39       0.1093
     39  NZ       -16.6350   39.0940   12.2120 N.3    39  LYS39      -0.1314
     40  N        -14.1970   47.2040    5.1880 N.3    79  TYR79      -0.1241
     41  CA       -15.4810   47.2400    4.5240 C.3    79  TYR79       0.1605
     42  C        -16.5290   47.9240    5.3810 C.2    79  TYR79       0.2264
     43  O        -16.3470   48.1560    6.5780 O.2    79  TYR79      -0.2867
     44  CB       -15.9450   45.8360    4.0950 C.3    79  TYR79       0.0534
     45  CG       -15.9770   44.7940    5.2060 C.ar   79  TYR79      -0.0201
     46  CD1      -14.8000   44.1480    5.6190 C.ar   79  TYR79      -0.0009
     47  CD2      -17.1720   44.4330    5.8280 C.ar   79  TYR79      -0.0009
     48  CE1      -14.8070   43.1910    6.6190 C.ar   79  TYR79       0.0417
     49  CE2      -17.1860   43.4730    6.8350 C.ar   79  TYR79       0.0417
     50  CZ       -15.9940   42.8610    7.2230 C.ar   79  TYR79       0.1957
     51  OH       -15.9710   41.9280    8.2260 O.3    79  TYR79      -0.2866
     52  N        -20.3400   47.4850    6.6550 N.3    81  ALA81      -0.1245
     53  CA       -21.4980   46.6040    6.8520 C.3    81  ALA81       0.1562
     54  C        -22.5590   47.3240    7.6890 C.2    81  ALA81       0.2260
     55  O        -22.2500   47.8320    8.7750 O.2    81  ALA81      -0.2867
     56  CB       -21.0850   45.3010    7.5180 C.3    81  ALA81       0.0290
     57  N        -15.8220   48.6470    9.0610 N.3    86  LYS86      -0.1245
     58  CA       -15.2750   47.4290    9.6480 C.3    86  LYS86       0.1561
     59  C        -13.8390   47.1630    9.2060 C.2    86  LYS86       0.2260
     60  O        -13.5200   47.2590    8.0210 O.2    86  LYS86      -0.2867
     61  CB       -16.1600   46.2280    9.3050 C.3    86  LYS86       0.0271
     62  CG       -15.9300   45.0150   10.1920 C.3    86  LYS86       0.0035
     63  CD       -15.6970   45.4240   11.6370 C.3    86  LYS86       0.0206
     64  CE       -14.8720   44.3840   12.3790 C.3    86  LYS86       0.1093
     65  NZ       -15.6410   43.1320   12.6190 N.3    86  LYS86      -0.1314
     66  N        -22.2770   32.9780   19.7350 N.3   107  GLU107     -0.1231
     67  CA       -22.1490   33.8970   18.5980 C.3   107  GLU107      0.1699
     68  C        -22.3720   33.1920   17.2590 C.2   107  GLU107      0.2592
     69  O        -22.7150   33.8380   16.2690 O.2   107  GLU107     -0.2718
     70  CB       -20.8050   34.6550   18.6030 C.3   107  GLU107      0.0402
     71  CG       -20.7240   35.7700   19.6500 C.3   107  GLU107      0.1161
     72  CD       -19.4200   36.5760   19.6080 C.2   107  GLU107      0.3649
     73  OE1      -18.9600   36.9480   18.5040 O.co2 107  GLU107     -0.2457
     74  OE2      -18.8560   36.8530   20.6900 O.co2 107  GLU107     -0.2457
     75  N        -22.2080   31.8630   17.2270 N.am  108  HIS108     -0.1976
     76  CA       -22.3310   31.1120   15.9570 C.3   108  HIS108      0.1656
     77  C        -23.1620   29.8770   16.0800 C.2   108  HIS108      0.2291
     78  O        -23.1730   29.2280   17.1280 O.2   108  HIS108     -0.2864
     79  CB       -20.9400   30.7950   15.3840 C.3   108  HIS108      0.0771
     80  CG       -20.1290   32.0330   15.1020 C.ar  108  HIS108      0.0820
     81  ND1      -19.2480   32.5490   15.9990 N.ar  108  HIS108     -0.2267
     82  CD2      -20.0970   32.8700   13.9850 C.ar  108  HIS108      0.1154
     83  CE1      -18.6680   33.6590   15.4710 C.ar  108  HIS108      0.1986
     84  NE2      -19.1870   33.8510   14.2380 N.ar  108  HIS108     -0.2212
@<TRIPOS>BOND
     1    44    41    1
     2    44    45    1
     3    41    40    1
     4    41    42    1
     5    45    46   ar
     6    45    47   ar
     7    42    43    2
     8    23    21   ar
     9    23    22   ar
    10    21    19   ar
    11    46    48   ar
    12    47    49   ar
    13    22    20   ar
    14    48    50   ar
    15    52    53    1
    16    49    50   ar
    17    53    56    1
    18    53    54    1
    19    19    20   ar
    20    19    18    1
    21    50    51    1
    22    15    18    1
    23    15    16    1
    24    15    14    1
    25    54    55    2
    26    16    17    2
    27    60    59    2
    28    25    24    1
    29    25    28    1
    30    25    26    1
    31    30    28    1
    32    28    29    1
    33    26    27    2
    34    57    58    1
    35    59    58    1
    36    61    58    1
    37    61    62    1
    38    62    63    1
    39    38    37    1
    40    38    39    1
    41     1     2    1
    42    63    64    1
    43    37    36    1
    44     9     8    2
    45     5     2    1
    46    64    65    1
    47     4     3    2
    48     2     3    1
    49    36    35    1
    50     8     7    1
    51    35    32    1
    52    82    84   ar
    53    82    80   ar
    54    84    83   ar
    55    31    32    1
    56    12    11   ar
    57    32    33    1
    58     7     6    1
    59     7    10    1
    60    80    79    1
    61    80    81   ar
    62    11    10    1
    63    11    13   ar
    64    79    76    1
    65    83    81   ar
    66    33    34    2
    67    76    77    1
    68    76    75    1
    69    77    78    2
    70    69    68    2
    71    75    68   am
    72    68    67    1
    73    73    72   ar
    74    67    70    1
    75    67    66    1
    76    70    71    1
    77    72    71    1
    78    72    74   ar
