@<TRIPOS>MOLECULE
tmp/4ik6A00.pdb
 74 64 0 0 0
SMALL
GASTEIGER

@<TRIPOS>ATOM
      1  N         17.3640  -10.5610  -31.9230 N.3     4  MET4       -0.1245
      2  CA        18.6750   -9.9640  -32.0780 C.3     4  MET4        0.1570
      3  C         19.2310   -9.6890  -30.6890 C.2     4  MET4        0.2261
      4  O         18.5010   -9.2740  -29.7860 O.2     4  MET4       -0.2867
      5  CB        18.6010   -8.6970  -32.9370 C.3     4  MET4        0.0387
      6  CG        19.9630   -8.1630  -33.3890 C.3     4  MET4        0.0595
      7  SD        20.6840   -6.9990  -32.2020 S.3     4  MET4       -0.1393
      8  CE        19.9990   -5.4440  -32.7920 C.3     4  MET4        0.0692
      9  N         22.1350   -7.6070  -28.6160 N.3     6  LYS6       -0.1245
     10  CA        23.1380   -6.5660  -28.6630 C.3     6  LYS6        0.1561
     11  C         23.8310   -6.5030  -27.3150 C.2     6  LYS6        0.2260
     12  O         23.1860   -6.5850  -26.2770 O.2     6  LYS6       -0.2867
     13  CB        22.5070   -5.2230  -29.0130 C.3     6  LYS6        0.0271
     14  CG        23.5250   -4.1280  -29.2730 C.3     6  LYS6        0.0035
     15  CD        22.8790   -2.9580  -29.9990 C.3     6  LYS6        0.0206
     16  CE        23.9340   -1.9920  -30.5210 C.3     6  LYS6        0.1093
     17  NZ        23.3420   -1.0950  -31.5560 N.3     6  LYS6       -0.1314
     18  N         26.7210   -4.3260  -25.0740 N.3     8  LEU8       -0.1245
     19  CA        27.5910   -3.1650  -24.9400 C.3     8  LEU8        0.1561
     20  C         28.4920   -3.3170  -23.7230 C.2     8  LEU8        0.2260
     21  O         28.0750   -3.8380  -22.6770 O.2     8  LEU8       -0.2867
     22  CB        26.7790   -1.8720  -24.8480 C.3     8  LEU8        0.0270
     23  CG        25.7710   -1.5790  -25.9660 C.3     8  LEU8        0.0019
     24  CD1       26.4490   -1.5590  -27.3350 C.3     8  LEU8        0.0001
     25  CD2       24.6570   -2.6000  -25.9420 C.3     8  LEU8        0.0001
     26  N         26.5310   -6.6120  -32.0770 N.3    45  GLU45      -0.1245
     27  CA        25.2440   -7.1570  -32.4170 C.3    45  GLU45       0.1567
     28  C         25.3470   -8.5620  -32.9380 C.2    45  GLU45       0.2260
     29  O         26.2780   -8.9170  -33.6440 O.2    45  GLU45      -0.2867
     30  CB        24.5140   -6.2780  -33.4230 C.3    45  GLU45       0.0388
     31  CG        24.2330   -4.9120  -32.8240 C.3    45  GLU45       0.1160
     32  CD        23.5330   -3.9850  -33.7700 C.2    45  GLU45       0.3649
     33  OE1       23.1970   -4.4160  -34.8840 O.co2  45  GLU45      -0.2457
     34  OE2       23.3220   -2.8150  -33.3860 O.co2  45  GLU45      -0.2457
     35  N         14.7010   -7.4680  -29.6770 N.3    97  THR97      -0.1218
     36  CA        16.0570   -7.0670  -29.4740 C.3    97  THR97       0.1862
     37  C         16.3680   -7.1460  -28.0050 C.2    97  THR97       0.2287
     38  O         15.7050   -6.5120  -27.1660 O.2    97  THR97      -0.2866
     39  CB        16.3240   -5.6570  -30.0240 C.3    97  THR97       0.1770
     40  OG1       16.1050   -5.6740  -31.4390 O.3    97  THR97      -0.2211
     41  CG2       17.7540   -5.2290  -29.7320 C.3    97  THR97       0.0375
     42  N         19.1730   -6.2060  -25.4280 N.3    99  ALA99      -0.1245
     43  CA        20.3370   -5.3650  -25.2260 C.3    99  ALA99       0.1562
     44  C         20.8750   -5.6600  -23.8540 C.2    99  ALA99       0.2260
     45  O         20.1730   -5.5050  -22.8360 O.2    99  ALA99      -0.2867
     46  CB        19.9630   -3.8990  -25.3310 C.3    99  ALA99       0.0290
     47  N         23.8570   -4.5720  -21.3280 N.3   101  LEU101     -0.1245
     48  CA        24.8180   -3.5280  -21.0230 C.3   101  LEU101      0.1561
     49  C         25.6570   -4.0610  -19.8850 C.2   101  LEU101      0.2260
     50  O         25.1410   -4.3260  -18.8010 O.2   101  LEU101     -0.2867
     51  CB        24.0770   -2.2490  -20.6270 C.3   101  LEU101      0.0270
     52  CG        24.9330   -1.0880  -20.1450 C.3   101  LEU101      0.0019
     53  CD1       25.7710   -0.5820  -21.3140 C.3   101  LEU101      0.0001
     54  CD2       24.0450    0.0230  -19.5890 C.3   101  LEU101      0.0001
     55  N         22.7970   -4.9420  -17.2210 N.3   108  SER108     -0.1217
     56  CA        21.4190   -4.6870  -17.3990 C.3   108  SER108      0.1889
     57  C         21.0460   -5.3650  -18.6960 C.2   108  SER108      0.2288
     58  O         21.8310   -5.3850  -19.6590 O.2   108  SER108     -0.2866
     59  CB        21.1470   -3.1860  -17.3690 C.3   108  SER108      0.2089
     60  OG        21.1520   -2.5680  -18.6310 O.3   108  SER108     -0.2183
     61  N         17.7700   -5.5270  -21.4370 N.3   110  THR110     -0.1218
     62  CA        16.5720   -4.8340  -21.8340 C.3   110  THR110      0.1862
     63  C         16.0400   -5.5050  -23.0710 C.2   110  THR110      0.2287
     64  O         16.8020   -6.0210  -23.8800 O.2   110  THR110     -0.2866
     65  CB        16.9290   -3.3760  -22.1480 C.3   110  THR110      0.1770
     66  OG1       17.4810   -2.7940  -20.9670 O.3   110  THR110     -0.2211
     67  CG2       15.7310   -2.5890  -22.5980 C.3   110  THR110      0.0375
     68  N         13.8040   -4.7710  -26.3950 N.3   112  VAL112     -0.1245
     69  CA        13.0280   -3.9350  -27.2870 C.3   112  VAL112      0.1561
     70  C         12.2400   -4.9220  -28.1200 C.2   112  VAL112      0.2260
     71  O         12.8120   -5.7210  -28.8600 O.2   112  VAL112     -0.2867
     72  CB        13.9050   -3.0520  -28.1830 C.3   112  VAL112      0.0252
     73  CG1       13.0440   -2.0920  -28.9820 C.3   112  VAL112      0.0019
     74  CG2       14.9410   -2.3340  -27.3410 C.3   112  VAL112      0.0019
@<TRIPOS>BOND
     1    33    32   ar
     2    32    34   ar
     3    32    31    1
     4    29    28    2
     5    30    31    1
     6    30    27    1
     7     6     5    1
     8     6     7    1
     9    28    27    1
    10     5     2    1
    11     8     7    1
    12    27    26    1
    13     2     1    1
    14     2     3    1
    15    17    16    1
    16    40    39    1
    17     3     4    2
    18    16    15    1
    19    39    41    1
    20    39    36    1
    21    15    14    1
    22    35    36    1
    23    36    37    1
    24    14    13    1
    25    13    10    1
    26    73    72    1
    27    71    70    2
    28    10     9    1
    29    10    11    1
    30    72    74    1
    31    72    69    1
    32    70    69    1
    33    37    38    2
    34    24    23    1
    35    11    12    2
    36    69    68    1
    37    23    25    1
    38    23    22    1
    39    42    43    1
    40    46    43    1
    41    43    44    1
    42    18    19    1
    43    19    22    1
    44    19    20    1
    45    64    63    2
    46    44    45    2
    47    20    21    2
    48    63    62    1
    49    67    65    1
    50    65    62    1
    51    65    66    1
    52    62    61    1
    53    47    48    1
    54    53    52    1
    55    48    51    1
    56    48    49    1
    57    51    52    1
    58    52    54    1
    59    49    50    2
    60    58    57    2
    61    57    56    1
    62    60    59    1
    63    56    59    1
    64    56    55    1
