@<TRIPOS>MOLECULE
tmp/4ikeA01.pdb
 174 169 0 0 0
SMALL
GASTEIGER

@<TRIPOS>ATOM
      1  N         33.8720   44.2460   10.8290 N.3     9  PRO9       -0.2102
      2  CA        33.8970   44.1420   12.2920 C.3     9  PRO9        0.1504
      3  C         34.9050   45.1370   12.8630 C.2     9  PRO9        0.2576
      4  O         35.9470   45.3510   12.2490 O.2     9  PRO9       -0.2718
      5  CB        34.3650   42.7020   12.5240 C.3     9  PRO9        0.0282
      6  CG        35.1020   42.3330   11.2650 C.3     9  PRO9        0.0208
      7  CD        34.3200   43.0040   10.1750 C.3     9  PRO9        0.0893
      8  N         34.5850   45.7510   14.0000 N.am   10  GLY10      -0.1943
      9  CA        35.4530   46.7400   14.6190 C.3    10  GLY10       0.2014
     10  C         35.3500   48.1580   14.0750 C.2    10  GLY10       0.2639
     11  O         36.0360   49.0580   14.5570 O.2    10  GLY10      -0.2714
     12  N         34.4890   48.3790   13.0860 N.am   11  ALA11      -0.1963
     13  CA        34.3370   49.7100   12.5010 C.3    11  ALA11       0.1728
     14  C         33.6770   50.7240   13.4410 C.2    11  ALA11       0.2617
     15  O         33.7830   51.9240   13.2120 O.2    11  ALA11      -0.2715
     16  CB        33.5540   49.6420   11.1890 C.3    11  ALA11       0.0334
     17  N         32.9900   50.2400   14.4760 N.am   12  GLY12      -0.1940
     18  CA        32.3110   51.1040   15.4330 C.3    12  GLY12       0.2014
     19  C         30.7960   51.1870   15.2380 C.2    12  GLY12       0.2639
     20  O         30.1410   52.1240   15.7140 O.2    12  GLY12      -0.2714
     21  N         30.2340   50.2070   14.5340 N.am   13  LYS13      -0.1963
     22  CA        28.7980   50.2090   14.2290 C.3    13  LYS13       0.1728
     23  C         27.9260   50.0910   15.4760 C.2    13  LYS13       0.2617
     24  O         26.9590   50.8380   15.6220 O.2    13  LYS13      -0.2715
     25  CB        28.4560   49.1090   13.2140 C.3    13  LYS13       0.0311
     26  CG        29.2310   49.2450   11.8980 C.3    13  LYS13       0.0038
     27  CD        28.8870   48.1530   10.8630 C.3    13  LYS13       0.0206
     28  CE        29.0860   46.7270   11.4080 C.3    13  LYS13       0.1093
     29  NZ        30.4880   46.3990   11.8280 N.3    13  LYS13      -0.1314
     30  N         28.2660   49.1610   16.3700 N.am   14  GLY14      -0.1940
     31  CA        27.5060   48.9740   17.5960 C.3    14  GLY14       0.2014
     32  C         27.5640   50.1970   18.4940 C.2    14  GLY14       0.2640
     33  O         26.5610   50.6130   19.0850 O.2    14  GLY14      -0.2714
     34  N         28.7490   50.7790   18.6010 N.am   15  THR15      -0.1936
     35  CA        28.9420   51.9730   19.4120 C.3    15  THR15       0.2028
     36  C         28.0470   53.1220   18.9350 C.2    15  THR15       0.2642
     37  O         27.3750   53.7860   19.7330 O.2    15  THR15      -0.2714
     38  CB        30.4190   52.3940   19.3800 C.3    15  THR15       0.1808
     39  OG1       31.2170   51.3560   19.9720 O.3    15  THR15      -0.2208
     40  CG2       30.6300   53.6970   20.1370 C.3    15  THR15       0.0379
     41  N         28.0170   53.3460   17.6260 N.am   16  GLN16      -0.1976
     42  CA        27.1850   54.4100   17.0840 C.3    16  GLN16       0.1601
     43  C         25.7040   54.0600   17.1720 C.2    16  GLN16       0.2287
     44  O         24.8780   54.9130   17.4890 O.2    16  GLN16      -0.2864
     45  CB        27.5750   54.7250   15.6380 C.3    16  GLN16       0.0394
     46  CG        29.0060   55.2320   15.4790 C.3    16  GLN16       0.0908
     47  CD        29.2420   56.5260   16.2420 C.2    16  GLN16       0.2608
     48  OE1       28.3410   57.3420   16.3680 O.2    16  GLN16      -0.2717
     49  NE2       30.4510   56.7120   16.7580 N.am   16  GLN16      -0.0878
     50  N         21.8080   46.8090   12.7870 N.3    81  ASP81      -0.1239
     51  CA        23.2040   46.9450   13.1170 C.3    81  ASP81       0.1674
     52  C         23.8830   45.5960   12.9110 C.2    81  ASP81       0.2266
     53  O         23.8040   44.7090   13.7570 O.2    81  ASP81      -0.2867
     54  CB        23.3090   47.3980   14.5690 C.3    81  ASP81       0.1410
     55  CG        24.7290   47.4550   15.0580 C.2    81  ASP81       0.3668
     56  OD1       25.6620   47.4480   14.2250 O.co2  81  ASP81      -0.2456
     57  OD2       24.9100   47.5230   16.2910 O.co2  81  ASP81      -0.2456
     58  N         41.1530   47.8520   17.0770 N.3   120  ARG120     -0.1245
     59  CA        39.9220   48.0750   17.8260 C.3   120  ARG120      0.1563
     60  C         39.3820   46.7680   18.3750 C.2   120  ARG120      0.2260
     61  O         38.9380   46.7020   19.5200 O.2   120  ARG120     -0.2867
     62  CB        38.8750   48.7800   16.9670 C.3   120  ARG120      0.0307
     63  CG        39.1750   50.2560   16.7850 C.3   120  ARG120      0.0489
     64  CD        38.0950   50.9040   15.9560 C.3   120  ARG120      0.2205
     65  NE        38.3810   52.2960   15.6460 N.pl3 120  ARG120     -0.0865
     66  CZ        37.6480   53.0270   14.8130 C.cat 120  ARG120      0.5346
     67  NH1       36.5830   52.4870   14.2160 N.pl3 120  ARG120      0.1354
     68  NH2       37.9660   54.2900   14.5740 N.pl3 120  ARG120      0.1354
     69  N         39.1360   45.3690   22.3630 N.3   124  ARG124     -0.1245
     70  CA        37.7500   45.4110   22.8160 C.3   124  ARG124      0.1563
     71  C         37.5300   44.5770   24.0780 C.2   124  ARG124      0.2260
     72  O         38.0040   43.4390   24.1740 O.2   124  ARG124     -0.2867
     73  CB        36.8020   44.9440   21.7000 C.3   124  ARG124      0.0307
     74  CG        35.3220   44.9540   22.0950 C.3   124  ARG124      0.0489
     75  CD        34.4020   44.9910   20.8720 C.3   124  ARG124      0.2205
     76  NE        34.4770   43.7690   20.0810 N.pl3 124  ARG124     -0.0865
     77  CZ        33.8020   43.5830   18.9490 C.cat 124  ARG124      0.5346
     78  NH1       33.0150   44.5500   18.4800 N.pl3 124  ARG124      0.1354
     79  NH2       33.9170   42.4400   18.2770 N.pl3 124  ARG124      0.1354
     80  N         30.4620   48.0490   26.2620 N.3   133  VAL133     -0.1231
     81  CA        31.6600   47.8110   25.4730 C.3   133  VAL133      0.1692
     82  C         32.7190   48.8750   25.7400 C.2   133  VAL133      0.2592
     83  O         32.4300   50.0730   25.7510 O.2   133  VAL133     -0.2718
     84  CB        31.3100   47.7750   23.9710 C.3   133  VAL133      0.0266
     85  CG1       32.5580   47.6110   23.1180 C.3   133  VAL133      0.0020
     86  CG2       30.3310   46.6550   23.7020 C.3   133  VAL133      0.0020
     87  N         33.9470   48.4160   25.9710 N.am  134  TYR134     -0.1962
     88  CA        35.0810   49.2890   26.2410 C.3   134  TYR134      0.1771
     89  C         36.2310   48.9920   25.2730 C.2   134  TYR134      0.2619
     90  O         36.1700   48.0580   24.4720 O.2   134  TYR134     -0.2715
     91  CB        35.5580   49.0950   27.6870 C.3   134  TYR134      0.0574
     92  CG        34.5490   49.5050   28.7350 C.ar  134  TYR134     -0.0198
     93  CD1       34.3240   50.8480   29.0190 C.ar  134  TYR134     -0.0009
     94  CD2       33.8260   48.5530   29.4410 C.ar  134  TYR134     -0.0009
     95  CE1       33.4110   51.2350   29.9790 C.ar  134  TYR134      0.0417
     96  CE2       32.9030   48.9290   30.4100 C.ar  134  TYR134      0.0417
     97  CZ        32.7010   50.2720   30.6730 C.ar  134  TYR134      0.1957
     98  OH        31.7910   50.6610   31.6320 O.3   134  TYR134     -0.2866
     99  N         37.2770   49.8000   25.3430 N.am  135  HIS135     -0.1973
    100  CA        38.4920   49.5010   24.6100 C.3   135  HIS135      0.1656
    101  C         39.6550   49.8460   25.5190 C.2   135  HIS135      0.2291
    102  O         39.6810   50.9340   26.0980 O.2   135  HIS135     -0.2864
    103  CB        38.5880   50.3100   23.3220 C.3   135  HIS135      0.0771
    104  CG        39.7290   49.8930   22.4490 C.ar  135  HIS135      0.0820
    105  ND1       41.0190   50.3390   22.6480 N.ar  135  HIS135     -0.2267
    106  CD2       39.7840   49.0380   21.4000 C.ar  135  HIS135      0.1154
    107  CE1       41.8150   49.7930   21.7470 C.ar  135  HIS135      0.1986
    108  NE2       41.0920   48.9990   20.9770 N.ar  135  HIS135     -0.2212
    109  N         41.2050   53.1720   23.8780 N.3   138  TYR138     -0.1227
    110  CA        40.3640   54.2850   23.4390 C.3   138  TYR138      0.1736
    111  C         39.1950   54.5960   24.3620 C.2   138  TYR138      0.2595
    112  O         38.6120   55.6760   24.2740 O.2   138  TYR138     -0.2718
    113  CB        39.8270   54.0370   22.0240 C.3   138  TYR138      0.0548
    114  CG        40.9020   53.8000   20.9910 C.ar  138  TYR138     -0.0200
    115  CD1       41.9100   54.7330   20.7800 C.ar  138  TYR138     -0.0009
    116  CD2       40.9060   52.6450   20.2170 C.ar  138  TYR138     -0.0009
    117  CE1       42.8970   54.5160   19.8300 C.ar  138  TYR138      0.0417
    118  CE2       41.8850   52.4220   19.2660 C.ar  138  TYR138      0.0417
    119  CZ        42.8790   53.3600   19.0780 C.ar  138  TYR138      0.1957
    120  OH        43.8570   53.1480   18.1320 O.3   138  TYR138     -0.2866
    121  N         38.8420   53.6500   25.2260 N.am  139  ASN139     -0.1974
    122  CA        37.7450   53.8330   26.1720 C.3   139  ASN139      0.1688
    123  C         37.8440   52.8100   27.2990 C.2   139  ASN139      0.2292
    124  O         37.0510   51.8720   27.3680 O.2   139  ASN139     -0.2864
    125  CB        36.3960   53.7160   25.4570 C.3   139  ASN139      0.1181
    126  CG        35.2150   53.8990   26.3900 C.2   139  ASN139      0.2629
    127  OD1       35.3330   54.5050   27.4610 O.2   139  ASN139     -0.2716
    128  ND2       34.0670   53.3690   25.9900 N.am  139  ASN139     -0.0877
    129  N         36.7830   36.6920   10.2690 N.3   161  ARG161     -0.1245
    130  CA        35.6380   37.6070   10.2020 C.3   161  ARG161      0.1563
    131  C         35.8490   38.6800    9.1350 C.2   161  ARG161      0.2260
    132  O         34.9220   39.0760    8.4390 O.2   161  ARG161     -0.2867
    133  CB        35.3910   38.2400   11.5730 C.3   161  ARG161      0.0307
    134  CG        34.8370   37.2500   12.5880 C.3   161  ARG161      0.0489
    135  CD        35.0220   37.7260   14.0040 C.3   161  ARG161      0.2205
    136  NE        34.3580   38.9900   14.2910 N.pl3 161  ARG161     -0.0865
    137  CZ        34.6640   39.7650   15.3310 C.cat 161  ARG161      0.5346
    138  NH1       35.6350   39.4080   16.1620 N.pl3 161  ARG161      0.1354
    139  NH2       34.0120   40.9020   15.5360 N.pl3 161  ARG161      0.1354
    140  N         34.7400   56.1350    9.2870 N.3   187  ALA187     -0.1245
    141  CA        34.6660   55.4770   10.5810 C.3   187  ALA187      0.1562
    142  C         36.0120   55.4060   11.2950 C.2   187  ALA187      0.2260
    143  O         36.0980   54.8670   12.3940 O.2   187  ALA187     -0.2867
    144  CB        34.0560   54.0760   10.4240 C.3   187  ALA187      0.0290
    145  N         37.6290   58.0140   12.3280 N.3   189  LYS189     -0.1231
    146  CA        37.6880   59.1930   13.1870 C.3   189  LYS189      0.1678
    147  C         37.2440   58.8710   14.6200 C.2   189  LYS189      0.2434
    148  O         36.7090   57.7940   14.8680 O.2   189  LYS189     -0.2733
    149  CB        36.8070   60.2870   12.5760 C.3   189  LYS189      0.0284
    150  CG        37.3180   60.7980   11.2430 C.3   189  LYS189      0.0035
    151  CD        38.7670   61.2450   11.3690 C.3   189  LYS189      0.0206
    152  CE        39.2250   61.9970   10.1320 C.3   189  LYS189      0.1093
    153  NZ        38.5740   63.3300   10.0570 N.3   189  LYS189     -0.1314
    154  N         37.4790   59.7940   15.5760 N.am  190  PRO190     -0.2718
    155  CA        37.0240   59.5220   16.9470 C.3   190  PRO190      0.1535
    156  C         35.5050   59.4050   17.0490 C.2   190  PRO190      0.2598
    157  O         34.7860   59.8720   16.1610 O.2   190  PRO190     -0.2715
    158  CB        37.5200   60.7440   17.7270 C.3   190  PRO190      0.0310
    159  CG        38.6550   61.2540   16.9290 C.3   190  PRO190      0.0237
    160  CD        38.2830   61.0270   15.5080 C.3   190  PRO190      0.0939
    161  N         35.0360   58.7800   18.1230 N.am  191  VAL191     -0.1978
    162  CA        33.6150   58.4770   18.3000 C.3   191  VAL191      0.1596
    163  C         32.6860   59.6730   18.0980 C.2   191  VAL191      0.2287
    164  O         31.6730   59.5610   17.4060 O.2   191  VAL191     -0.2864
    165  CB        33.3410   57.8210   19.6780 C.3   191  VAL191      0.0276
    166  CG1       31.8480   57.7010   19.9350 C.3   191  VAL191      0.0022
    167  CG2       33.9970   56.4580   19.7520 C.3   191  VAL191      0.0022
    168  N         32.5400   60.6960   14.3340 N.3   194  VAL194     -0.1245
    169  CA        31.7630   59.7330   13.5690 C.3   194  VAL194      0.1561
    170  C         30.2730   59.9350   13.8220 C.2   194  VAL194      0.2260
    171  O         29.4650   59.9140   12.8860 O.2   194  VAL194     -0.2867
    172  CB        32.1760   58.2880   13.8860 C.3   194  VAL194      0.0252
    173  CG1       31.2820   57.2970   13.1370 C.3   194  VAL194      0.0019
    174  CG2       33.6640   58.0730   13.5280 C.3   194  VAL194      0.0019
@<TRIPOS>BOND
     1   132   131    2
     2   131   130    1
     3   140   141    1
     4   153   152    1
     5   152   151    1
     6     7     1    1
     7     7     6    1
     8   130   129    1
     9   130   133    1
    10   144   141    1
    11   141   142    1
    12     1     2    1
    13    27    28    1
    14    27    26    1
    15    16    13    1
    16   150   151    1
    17   150   149    1
    18     6     5    1
    19   142   143    2
    20    28    29    1
    21   133   134    1
    22    26    25    1
    23     4     3    2
    24     2     5    1
    25     2     3    1
    26   145   146    1
    27    13    12    1
    28    13    14    1
    29   149   146    1
    30   134   135    1
    31    50    51    1
    32     3     8   am
    33   171   170    2
    34    52    51    1
    35    52    53    2
    36    12    10   am
    37    51    54    1
    38   173   172    1
    39   146   147    1
    40    15    14    2
    41    25    22    1
    42    14    17   am
    43   174   172    1
    44   169   170    1
    45   169   172    1
    46   169   168    1
    47     8     9    1
    48   135   136    1
    49    10    11    2
    50    10     9    1
    51    67    66    1
    52    56    55   ar
    53    22    21    1
    54    22    23    1
    55   136   137    2
    56    17    18    1
    57    21    19   am
    58    54    55    1
    59    68    66    1
    60   147   148    2
    61   147   154   am
    62    66    65    2
    63    55    57   ar
    64    19    18    1
    65    19    20    2
    66   137   139    1
    67   137   138    1
    68    23    24    2
    69    23    30   am
    70    46    45    1
    71    46    47    1
    72   160   154    1
    73   160   159    1
    74   154   155    1
    75    45    42    1
    76    65    64    1
    77    64    63    1
    78   157   156    2
    79    47    48    2
    80    47    49   am
    81    30    31    1
    82    63    62    1
    83   159   158    1
    84   155   156    1
    85   155   158    1
    86    62    59    1
    87   156   161   am
    88    58    59    1
    89    42    43    1
    90    42    41    1
    91    43    44    2
    92   164   163    2
    93    31    32    1
    94    41    36   am
    95    59    60    1
    96   163   162    1
    97   161   162    1
    98   120   119    1
    99    79    77    1
   100   162   165    1
   101    60    61    2
   102    78    77    1
   103    32    34   am
   104    32    33    2
   105    34    35    1
   106    36    35    1
   107    36    37    2
   108    77    76    2
   109   119   118   ar
   110   119   117   ar
   111   118   116   ar
   112    38    35    1
   113    38    39    1
   114    38    40    1
   115   165   167    1
   116   165   166    1
   117   117   115   ar
   118    76    75    1
   119   116   114   ar
   120   115   114   ar
   121    75    74    1
   122   108   106   ar
   123   108   107   ar
   124   114   113    1
   125   106   104   ar
   126    73    74    1
   127    73    70    1
   128   107   105   ar
   129   113   110    1
   130    69    70    1
   131   104   105   ar
   132   104   103    1
   133    70    71    1
   134    85    84    1
   135   103   100    1
   136   110   109    1
   137   110   111    1
   138    86    84    1
   139    84    81    1
   140    71    72    2
   141   112   111    2
   142   111   121   am
   143    90    89    2
   144   100    99    1
   145   100   101    1
   146   121   122    1
   147    89    99   am
   148    89    88    1
   149   125   122    1
   150   125   126    1
   151    81    82    1
   152    81    80    1
   153   101   102    2
   154    82    83    2
   155    82    87   am
   156    87    88    1
   157   128   126   am
   158   122   123    1
   159    88    91    1
   160   126   127    2
   161   123   124    2
   162    91    92    1
   163    92    93   ar
   164    92    94   ar
   165    93    95   ar
   166    94    96   ar
   167    95    97   ar
   168    96    97   ar
   169    97    98    1
