@<TRIPOS>MOLECULE
tmp/4ikeA00.pdb
 180 168 0 0 0
SMALL
GASTEIGER

@<TRIPOS>ATOM
      1  N         33.8720   44.2460   10.8290 N.3     9  PRO9       -0.2116
      2  CA        33.8970   44.1420   12.2920 C.3     9  PRO9        0.1372
      3  C         34.9050   45.1370   12.8630 C.2     9  PRO9        0.2244
      4  O         35.9470   45.3510   12.2490 O.2     9  PRO9       -0.2868
      5  CB        34.3650   42.7020   12.5240 C.3     9  PRO9        0.0268
      6  CG        35.1020   42.3330   11.2650 C.3     9  PRO9        0.0207
      7  CD        34.3200   43.0040   10.1750 C.3     9  PRO9        0.0892
      8  N         30.2340   50.2070   14.5340 N.3    13  LYS13      -0.1245
      9  CA        28.7980   50.2090   14.2290 C.3    13  LYS13       0.1561
     10  C         27.9260   50.0910   15.4760 C.2    13  LYS13       0.2260
     11  O         26.9590   50.8380   15.6220 O.2    13  LYS13      -0.2867
     12  CB        28.4560   49.1090   13.2140 C.3    13  LYS13       0.0271
     13  CG        29.2310   49.2450   11.8980 C.3    13  LYS13       0.0035
     14  CD        28.8870   48.1530   10.8630 C.3    13  LYS13       0.0206
     15  CE        29.0860   46.7270   11.4080 C.3    13  LYS13       0.1093
     16  NZ        30.4880   46.3990   11.8280 N.3    13  LYS13      -0.1314
     17  N         20.5860   44.5620   16.9120 N.3    30  SER30      -0.1202
     18  CA        21.9330   44.0600   16.6770 C.3    30  SER30       0.2020
     19  C         21.8670   42.5400   16.6060 C.2    30  SER30       0.2619
     20  O         21.6160   41.8800   17.6170 O.2    30  SER30      -0.2717
     21  CB        22.8600   44.4810   17.8170 C.3    30  SER30       0.2103
     22  OG        24.0280   43.6700   17.8330 O.3    30  SER30      -0.2182
     23  N         22.0530   41.9800   15.4150 N.am   31  THR31      -0.1938
     24  CA        22.0220   40.5310   15.2860 C.3    31  THR31       0.2028
     25  C         23.1460   39.8940   16.1140 C.2    31  THR31       0.2642
     26  O         22.9680   38.8260   16.6870 O.2    31  THR31      -0.2714
     27  CB        22.0800   40.0790   13.8190 C.3    31  THR31       0.1808
     28  OG1       22.9790   40.9230   13.0900 O.3    31  THR31      -0.2208
     29  CG2       20.6850   40.1780   13.1750 C.3    31  THR31       0.0379
     30  N         24.2960   40.5560   16.1950 N.am   32  GLY32      -0.1954
     31  CA        25.3620   40.0870   17.0680 C.3    32  GLY32       0.1869
     32  C         24.9580   39.9520   18.5320 C.2    32  GLY32       0.2309
     33  O         25.2180   38.9210   19.1610 O.2    32  GLY32      -0.2863
     34  N         22.2490   37.2200   18.9430 N.3    35  LEU35      -0.1231
     35  CA        22.8340   35.8870   18.8280 C.3    35  LEU35       0.1693
     36  C         23.6730   35.5220   20.0500 C.2    35  LEU35       0.2591
     37  O         23.6220   34.3870   20.5250 O.2    35  LEU35      -0.2718
     38  CB        23.6870   35.7840   17.5720 C.3    35  LEU35       0.0284
     39  CG        22.8790   35.7100   16.2700 C.3    35  LEU35       0.0019
     40  CD1       23.8100   35.9880   15.1020 C.3    35  LEU35       0.0001
     41  CD2       22.1770   34.3610   16.1010 C.3    35  LEU35       0.0001
     42  N         24.4590   36.4710   20.5450 N.am   36  ARG36      -0.1980
     43  CA        25.2840   36.1740   21.7160 C.3    36  ARG36       0.1597
     44  C         24.4200   35.8090   22.9200 C.2    36  ARG36       0.2287
     45  O         24.7520   34.8920   23.6720 O.2    36  ARG36      -0.2864
     46  CB        26.2440   37.3230   22.0330 C.3    36  ARG36       0.0334
     47  CG        27.4970   37.2990   21.1670 C.3    36  ARG36       0.0492
     48  CD        28.4830   38.4050   21.5320 C.3    36  ARG36       0.2205
     49  NE        27.9700   39.7350   21.2130 N.pl3  36  ARG36      -0.0865
     50  CZ        28.0740   40.3030   20.0130 C.cat  36  ARG36       0.5346
     51  NH1       28.6810   39.6610   19.0240 N.pl3  36  ARG36       0.1354
     52  NH2       27.5780   41.5150   19.8000 N.pl3  36  ARG36       0.1354
     53  N         29.5510   31.1820   14.8430 N.3    53  MET53      -0.1245
     54  CA        30.1070   32.3640   15.5030 C.3    53  MET53       0.1570
     55  C         31.5270   32.1300   15.9970 C.2    53  MET53       0.2261
     56  O         32.4000   32.9760   15.8100 O.2    53  MET53      -0.2867
     57  CB        29.2050   32.7870   16.6550 C.3    53  MET53       0.0387
     58  CG        27.8030   33.2110   16.1610 C.3    53  MET53       0.0595
     59  SD        26.5990   33.3410   17.5000 S.3    53  MET53      -0.1393
     60  CE        27.1820   34.8200   18.3300 C.3    53  MET53       0.0692
     61  N         34.0160   32.3610   13.3910 N.3    56  GLY56      -0.1210
     62  CA        34.0280   33.6260   12.6810 C.3    56  GLY56       0.1956
     63  C         33.2570   33.5920   11.3680 C.2    56  GLY56       0.2612
     64  O         33.4010   34.4860   10.5350 O.2    56  GLY56      -0.2717
     65  N         32.4400   32.5580   11.1830 N.am   57  GLU57      -0.1965
     66  CA        31.5940   32.4490   10.0000 C.3    57  GLU57       0.1733
     67  C         30.2400   33.0820   10.2520 C.2    57  GLU57       0.2616
     68  O         29.8120   33.2090   11.3990 O.2    57  GLU57      -0.2715
     69  CB        31.3870   30.9820    9.6420 C.3    57  GLU57       0.0429
     70  CG        32.6920   30.3060    9.2900 C.3    57  GLU57       0.1163
     71  CD        32.5290   28.8520    8.9530 C.2    57  GLU57       0.3649
     72  OE1       31.3920   28.3360    9.0400 O.co2  57  GLU57      -0.2457
     73  OE2       33.5470   28.2270    8.5920 O.co2  57  GLU57      -0.2457
     74  N         29.5520   33.4510    9.1780 N.am   58  LEU58      -0.1963
     75  CA        28.1670   33.8920    9.3210 C.3    58  LEU58       0.1728
     76  C         27.2540   32.7410    9.7140 C.2    58  LEU58       0.2616
     77  O         27.3900   31.6150    9.2250 O.2    58  LEU58      -0.2715
     78  CB        27.6620   34.4920    8.0120 C.3    58  LEU58       0.0311
     79  CG        28.3940   35.7690    7.5860 C.3    58  LEU58       0.0022
     80  CD1       27.7900   36.3500    6.3340 C.3    58  LEU58       0.0001
     81  CD2       28.4180   36.8220    8.7020 C.3    58  LEU58       0.0001
     82  N         26.3210   33.0360   10.6070 N.am   59  VAL59      -0.1977
     83  CA        25.2180   32.1280   10.8700 C.3    59  VAL59       0.1596
     84  C         24.3720   32.0300    9.5840 C.2    59  VAL59       0.2287
     85  O         24.1920   33.0290    8.8800 O.2    59  VAL59      -0.2864
     86  CB        24.3900   32.6440   12.0750 C.3    59  VAL59       0.0276
     87  CG1       23.1530   31.7910   12.3090 C.3    59  VAL59       0.0022
     88  CG2       25.2730   32.6870   13.3400 C.3    59  VAL59       0.0022
     89  N         18.8220   33.6210   10.4060 N.3    64  ILE64      -0.1245
     90  CA        18.8630   35.0620   10.6210 C.3    64  ILE64       0.1561
     91  C         17.5960   35.7470   10.0980 C.2    64  ILE64       0.2260
     92  O         17.0530   36.6510   10.7430 O.2    64  ILE64      -0.2867
     93  CB        20.1260   35.6670    9.9770 C.3    64  ILE64       0.0252
     94  CG1       21.3910   35.0480   10.6090 C.3    64  ILE64       0.0019
     95  CG2       20.1190   37.1860   10.0820 C.3    64  ILE64       0.0019
     96  CD1       21.5840   35.3790   12.0820 C.3    64  ILE64       0.0001
     97  N         21.8080   46.8090   12.7870 N.3    81  ASP81      -0.1225
     98  CA        23.2040   46.9450   13.1170 C.3    81  ASP81       0.1805
     99  C         23.8830   45.5960   12.9110 C.2    81  ASP81       0.2598
    100  O         23.8040   44.7090   13.7570 O.2    81  ASP81      -0.2718
    101  CB        23.3090   47.3980   14.5690 C.3    81  ASP81       0.1424
    102  CG        24.7290   47.4550   15.0580 C.2    81  ASP81       0.3668
    103  OD1       25.6620   47.4480   14.2250 O.co2  81  ASP81      -0.2456
    104  OD2       24.9100   47.5230   16.2910 O.co2  81  ASP81      -0.2456
    105  N         24.5420   45.4450   11.7740 N.am   82  GLY82      -0.1942
    106  CA        25.1680   44.1800   11.4250 C.3    82  GLY82       0.2014
    107  C         24.1900   43.2360   10.7390 C.2    82  GLY82       0.2638
    108  O         24.4400   42.0320   10.6400 O.2    82  GLY82      -0.2714
    109  N         23.0600   43.7780   10.2900 N.am   83  PHE83      -0.1973
    110  CA        22.1360   43.0440    9.4340 C.3    83  PHE83       0.1639
    111  C         21.6330   44.0480    8.4080 C.2    83  PHE83       0.2290
    112  O         21.3970   45.1960    8.7550 O.2    83  PHE83      -0.2864
    113  CB        20.9340   42.5010   10.2240 C.3    83  PHE83       0.0560
    114  CG        19.8590   41.9220    9.3410 C.ar   83  PHE83      -0.0200
    115  CD1       18.7920   42.7080    8.9130 C.ar   83  PHE83      -0.0042
    116  CD2       19.9250   40.6090    8.9220 C.ar   83  PHE83      -0.0042
    117  CE1       17.8220   42.1790    8.0820 C.ar   83  PHE83      -0.0003
    118  CE2       18.9620   40.0760    8.0850 C.ar   83  PHE83      -0.0003
    119  CZ        17.9070   40.8600    7.6620 C.ar   83  PHE83      -0.0000
    120  N         23.8680   40.9460    6.3020 N.3    85  ARG85      -0.1245
    121  CA        25.2870   40.6350    6.1120 C.3    85  ARG85       0.1563
    122  C         25.5300   39.8820    4.8150 C.2    85  ARG85       0.2260
    123  O         26.6740   39.6430    4.4530 O.2    85  ARG85      -0.2867
    124  CB        25.8080   39.7750    7.2620 C.3    85  ARG85       0.0307
    125  CG        25.8910   40.4820    8.5700 C.3    85  ARG85       0.0489
    126  CD        27.0330   41.4650    8.6140 C.3    85  ARG85       0.2205
    127  NE        28.1660   40.9880    9.4150 N.pl3  85  ARG85      -0.0865
    128  CZ        28.1890   40.9340   10.7480 C.cat  85  ARG85       0.5346
    129  NH1       27.1380   41.3030   11.4640 N.pl3  85  ARG85       0.1354
    130  NH2       29.2680   40.4980   11.3710 N.pl3  85  ARG85       0.1354
    131  N         20.1050   38.0320    2.6430 N.3    89  GLN89      -0.1245
    132  CA        19.5020   38.7160    3.7840 C.3    89  GLN89       0.1566
    133  C         18.9300   40.0670    3.3700 C.2    89  GLN89       0.2260
    134  O         17.8450   40.4350    3.8300 O.2    89  GLN89      -0.2867
    135  CB        20.5030   38.8830    4.9410 C.3    89  GLN89       0.0367
    136  CG        20.7640   37.6010    5.7170 C.3    89  GLN89       0.0905
    137  CD        21.8770   37.7810    6.7340 C.2    89  GLN89       0.2608
    138  OE1       22.1120   38.8920    7.2280 O.2    89  GLN89      -0.2717
    139  NE2       22.5810   36.6870    7.0470 N.am   89  GLN89      -0.0878
    140  N         39.1360   45.3690   22.3630 N.3   124  ARG124     -0.1245
    141  CA        37.7500   45.4110   22.8160 C.3   124  ARG124      0.1563
    142  C         37.5300   44.5770   24.0780 C.2   124  ARG124      0.2260
    143  O         38.0040   43.4390   24.1740 O.2   124  ARG124     -0.2867
    144  CB        36.8020   44.9440   21.7000 C.3   124  ARG124      0.0307
    145  CG        35.3220   44.9540   22.0950 C.3   124  ARG124      0.0489
    146  CD        34.4020   44.9910   20.8720 C.3   124  ARG124      0.2205
    147  NE        34.4770   43.7690   20.0810 N.pl3 124  ARG124     -0.0865
    148  CZ        33.8020   43.5830   18.9490 C.cat 124  ARG124      0.5346
    149  NH1       33.0150   44.5500   18.4800 N.pl3 124  ARG124      0.1354
    150  NH2       33.9170   42.4400   18.2770 N.pl3 124  ARG124      0.1354
    151  N         35.8830   38.9280   24.1310 N.3   150  ARG150     -0.1245
    152  CA        35.1300   38.0120   23.2870 C.3   150  ARG150      0.1563
    153  C         36.0880   37.0130   22.6490 C.2   150  ARG150      0.2260
    154  O         37.1750   37.3890   22.2080 O.2   150  ARG150     -0.2867
    155  CB        34.3690   38.7850   22.2050 C.3   150  ARG150      0.0307
    156  CG        32.9640   39.2160   22.6100 C.3   150  ARG150      0.0489
    157  CD        32.3750   40.2490   21.6470 C.3   150  ARG150      0.2205
    158  NE        32.3550   39.7960   20.2580 N.pl3 150  ARG150     -0.0865
    159  CZ        31.7400   40.4430   19.2710 C.cat 150  ARG150      0.5346
    160  NH1       31.0820   41.5680   19.5210 N.pl3 150  ARG150      0.1354
    161  NH2       31.7740   39.9650   18.0340 N.pl3 150  ARG150      0.1354
    162  N         35.7420   35.5500   19.8900 N.3   152  ASP152     -0.1239
    163  CA        35.8740   35.8220   18.4630 C.3   152  ASP152      0.1674
    164  C         36.6880   37.0870   18.1770 C.2   152  ASP152      0.2266
    165  O         36.9190   37.4340   17.0240 O.2   152  ASP152     -0.2867
    166  CB        34.5110   35.8000   17.7270 C.3   152  ASP152      0.1410
    167  CG        33.5680   36.9250   18.1530 C.2   152  ASP152      0.3668
    168  OD1       33.6840   37.4310   19.2880 O.co2 152  ASP152     -0.2456
    169  OD2       32.6870   37.2880   17.3440 O.co2 152  ASP152     -0.2456
    170  N         36.7830   36.6920   10.2690 N.3   161  ARG161     -0.1245
    171  CA        35.6380   37.6070   10.2020 C.3   161  ARG161      0.1563
    172  C         35.8490   38.6800    9.1350 C.2   161  ARG161      0.2260
    173  O         34.9220   39.0760    8.4390 O.2   161  ARG161     -0.2867
    174  CB        35.3910   38.2400   11.5730 C.3   161  ARG161      0.0307
    175  CG        34.8370   37.2500   12.5880 C.3   161  ARG161      0.0489
    176  CD        35.0220   37.7260   14.0040 C.3   161  ARG161      0.2205
    177  NE        34.3580   38.9900   14.2910 N.pl3 161  ARG161     -0.0865
    178  CZ        34.6640   39.7650   15.3310 C.cat 161  ARG161      0.5346
    179  NH1       35.6350   39.4080   16.1620 N.pl3 161  ARG161      0.1354
    180  NH2       34.0120   40.9020   15.5360 N.pl3 161  ARG161      0.1354
@<TRIPOS>BOND
     1   131   132    1
     2   133   132    1
     3   133   134    2
     4   132   135    1
     5   123   122    2
     6   122   121    1
     7   135   136    1
     8   136   137    1
     9   121   120    1
    10   121   124    1
    11    80    79    1
    12   137   139   am
    13   137   138    2
    14   124   125    1
    15    79    78    1
    16    79    81    1
    17   119   117   ar
    18   119   118   ar
    19    78    75    1
    20   117   115   ar
    21   118   116   ar
    22   111   112    2
    23   111   110    1
    24   173   172    2
    25   125   126    1
    26    73    71   ar
    27   126   127    1
    28    85    84    2
    29   115   114   ar
    30   116   114   ar
    31    71    72   ar
    32    71    70    1
    33   172   171    1
    34    74    75    1
    35    74    67   am
    36    77    76    2
    37    70    69    1
    38    75    76    1
    39   114   113    1
    40   127   128    2
    41   110   113    1
    42   110   109    1
    43    84    83    1
    44    69    66    1
    45    76    82   am
    46    93    95    1
    47    93    94    1
    48    93    90    1
    49    66    67    1
    50    66    65    1
    51    91    90    1
    52    91    92    2
    53     7     1    1
    54     7     6    1
    55   171   170    1
    56   171   174    1
    57    67    68    2
    58   109   107   am
    59    89    90    1
    60    64    63    2
    61    82    83    1
    62    94    96    1
    63   108   107    2
    64   107   106    1
    65   128   130    1
    66   128   129    1
    67     1     2    1
    68    14    15    1
    69    14    13    1
    70    83    86    1
    71    65    63   am
    72     6     5    1
    73    63    62    1
    74    15    16    1
    75   106   105    1
    76   174   175    1
    77   105    99   am
    78    13    12    1
    79    86    87    1
    80    86    88    1
    81     4     3    2
    82     2     5    1
    83     2     3    1
    84   175   176    1
    85    62    61    1
    86    97    98    1
    87    99    98    1
    88    99   100    2
    89    28    27    1
    90    98   101    1
    91    29    27    1
    92    12     9    1
    93    27    24    1
    94   176   177    1
    95   103   102   ar
    96     9     8    1
    97     9    10    1
    98   177   178    2
    99   101   102    1
   100    53    54    1
   101   102   104   ar
   102    40    39    1
   103    24    23    1
   104    24    25    1
   105   178   180    1
   106   178   179    1
   107    23    19   am
   108    10    11    2
   109    54    55    1
   110    54    57    1
   111    56    55    2
   112    41    39    1
   113    25    30   am
   114    25    26    2
   115    58    57    1
   116    58    59    1
   117    30    31    1
   118    39    38    1
   119    19    18    1
   120    19    20    2
   121    18    17    1
   122    18    21    1
   123   165   164    2
   124    31    32    1
   125   169   167   ar
   126    59    60    1
   127    38    35    1
   128   166   167    1
   129   166   163    1
   130    21    22    1
   131   161   159    1
   132   167   168   ar
   133   164   163    1
   134   150   148    1
   135   163   162    1
   136   149   148    1
   137    32    33    2
   138    35    34    1
   139    35    36    1
   140   148   147    2
   141    51    50    1
   142   159   160    1
   143   159   158    2
   144    52    50    1
   145    50    49    2
   146    36    37    2
   147    36    42   am
   148   147   146    1
   149   158   157    1
   150    42    43    1
   151   146   145    1
   152    47    48    1
   153    47    46    1
   154    49    48    1
   155   157   156    1
   156   144   145    1
   157   144   141    1
   158    43    46    1
   159    43    44    1
   160   155   156    1
   161   155   152    1
   162   154   153    2
   163   140   141    1
   164   153   152    1
   165   141   142    1
   166    44    45    2
   167   152   151    1
   168   142   143    2
