@<TRIPOS>MOLECULE
tmp/4ikiB00.pdb
 78 71 0 0 0
SMALL
GASTEIGER

@<TRIPOS>ATOM
      1  N        -19.2960    7.5170   -2.8070 N.3     6  LYS6       -0.1245
      2  CA       -18.4710    6.3070   -2.7210 C.3     6  LYS6        0.1561
      3  C        -17.7790    6.0690   -4.0500 C.2     6  LYS6        0.2260
      4  O        -18.4490    6.0990   -5.0830 O.2     6  LYS6       -0.2867
      5  CB       -19.3260    5.1150   -2.3020 C.3     6  LYS6        0.0271
      6  CG       -18.5450    3.7920   -2.3750 C.3     6  LYS6        0.0035
      7  CD       -18.8450    2.8340   -1.2160 C.3     6  LYS6        0.0206
      8  CE       -17.8260    1.6860   -1.2370 C.3     6  LYS6        0.1093
      9  NZ       -17.2500    1.3810    0.1170 N.3     6  LYS6       -0.1314
     10  N        -15.1230    3.5110   -6.3280 N.3     8  LEU8       -0.1245
     11  CA       -14.4200    2.2450   -6.4490 C.3     8  LEU8        0.1561
     12  C        -13.5490    2.2360   -7.6940 C.2     8  LEU8        0.2260
     13  O        -13.8180    2.9400   -8.6540 O.2     8  LEU8       -0.2867
     14  CB       -15.4560    1.1000   -6.5380 C.3     8  LEU8        0.0270
     15  CG       -16.4100    0.9330   -5.3200 C.3     8  LEU8        0.0019
     16  CD1      -17.3420   -0.1720   -5.7810 C.3     8  LEU8        0.0001
     17  CD2      -15.6150    0.4590   -4.0900 C.3     8  LEU8        0.0001
     18  N        -14.7050    6.3480    0.6730 N.3    45  GLU45      -0.1245
     19  CA       -15.9360    7.0620    0.9900 C.3    45  GLU45       0.1567
     20  C        -15.6650    8.4700    1.4680 C.2    45  GLU45       0.2260
     21  O        -14.5970    8.7910    2.0570 O.2    45  GLU45      -0.2867
     22  CB       -16.7320    6.3400    2.1080 C.3    45  GLU45       0.0388
     23  CG       -17.3230    5.0280    1.6300 C.3    45  GLU45       0.1160
     24  CD       -18.1310    4.2830    2.6810 C.2    45  GLU45       0.3649
     25  OE1      -17.5320    3.6310    3.5410 O.co2  45  GLU45      -0.2457
     26  OE2      -19.3790    4.3340    2.6280 O.co2  45  GLU45      -0.2457
     27  N        -26.6440    8.6880   -1.8170 N.3    97  THR97      -0.1218
     28  CA       -25.3140    8.1490   -2.0030 C.3    97  THR97       0.1862
     29  C        -25.0320    8.2410   -3.4580 C.2    97  THR97       0.2287
     30  O        -25.7630    7.6030   -4.2630 O.2    97  THR97      -0.2866
     31  CB       -25.1440    6.6830   -1.5180 C.3    97  THR97       0.1770
     32  OG1      -25.3610    6.6520   -0.1240 O.3    97  THR97      -0.2211
     33  CG2      -23.6940    6.1260   -1.8160 C.3    97  THR97       0.0375
     34  N        -22.4890    7.0330   -6.0860 N.3    99  ALA99      -0.1231
     35  CA       -21.3890    6.0930   -6.2820 C.3    99  ALA99       0.1694
     36  C        -20.8350    6.1590   -7.6960 C.2    99  ALA99       0.2592
     37  O        -21.5660    6.4710   -8.6260 O.2    99  ALA99      -0.2718
     38  CB       -21.7940    4.6820   -5.9480 C.3    99  ALA99       0.0304
     39  N        -19.5350    5.8880   -7.8250 N.am  100  ALA100     -0.1966
     40  CA       -18.8230    5.9700   -9.0740 C.3   100  ALA100      0.1728
     41  C        -17.9310    4.7470   -9.1500 C.2   100  ALA100      0.2616
     42  O        -17.2260    4.4560   -8.2020 O.2   100  ALA100     -0.2715
     43  CB       -17.9610    7.2460   -9.1330 C.3   100  ALA100      0.0334
     44  N        -17.8890    4.0760  -10.2990 N.am  101  LEU101     -0.1977
     45  CA       -17.0140    2.9570  -10.4580 C.3   101  LEU101      0.1596
     46  C        -16.0700    3.3960  -11.5410 C.2   101  LEU101      0.2287
     47  O        -16.5080    3.6430  -12.6380 O.2   101  LEU101     -0.2864
     48  CB       -17.8440    1.8000  -11.0350 C.3   101  LEU101      0.0297
     49  CG       -17.0710    0.4710  -11.3380 C.3   101  LEU101      0.0022
     50  CD1      -16.4010   -0.1590  -10.1330 C.3   101  LEU101      0.0001
     51  CD2      -18.1060   -0.5130  -11.9030 C.3   101  LEU101      0.0001
     52  N        -18.8600    4.5410  -14.4340 N.3   108  SER108     -0.1202
     53  CA       -20.2830    4.5340  -14.2510 C.3   108  SER108      0.2020
     54  C        -20.5550    5.3150  -12.9600 C.2   108  SER108      0.2619
     55  O        -19.6500    5.5320  -12.1200 O.2   108  SER108     -0.2717
     56  CB       -20.8000    3.0910  -14.1840 C.3   108  SER108      0.2103
     57  OG       -20.5190    2.5410  -12.9190 O.3   108  SER108     -0.2182
     58  N        -21.7730    5.8020  -12.8620 N.am  109  THR109     -0.1938
     59  CA       -22.2270    6.4300  -11.6660 C.3   109  THR109      0.2028
     60  C        -23.6720    6.1160  -11.3590 C.2   109  THR109      0.2642
     61  O        -24.5200    6.0000  -12.2750 O.2   109  THR109     -0.2714
     62  CB       -21.9550    7.9360  -11.6560 C.3   109  THR109      0.1808
     63  OG1      -22.3290    8.4310  -10.3830 O.3   109  THR109     -0.2208
     64  CG2      -22.7580    8.6720  -12.7310 C.3   109  THR109      0.0379
     65  N        -23.9500    5.9260  -10.0700 N.am  110  THR110     -0.1950
     66  CA       -25.2730    5.5050   -9.6710 C.3   110  THR110      0.1897
     67  C        -25.6740    6.3400   -8.4920 C.2   110  THR110      0.2313
     68  O        -24.7910    6.7480   -7.7350 O.2   110  THR110     -0.2863
     69  CB       -25.2550    3.9950   -9.2710 C.3   110  THR110      0.1794
     70  OG1      -24.5600    3.2820  -10.3140 O.3   110  THR110     -0.2208
     71  CG2      -26.6940    3.4770   -9.1620 C.3   110  THR110      0.0378
     72  N        -27.9780    6.0560   -5.0390 N.3   112  VAL112     -0.1245
     73  CA       -28.8050    5.2730   -4.1200 C.3   112  VAL112      0.1561
     74  C        -29.4590    6.2770   -3.2040 C.2   112  VAL112      0.2260
     75  O        -28.7950    6.9650   -2.3700 O.2   112  VAL112     -0.2867
     76  CB       -28.0140    4.2090   -3.3360 C.3   112  VAL112      0.0252
     77  CG1      -28.9870    3.3030   -2.5690 C.3   112  VAL112      0.0019
     78  CG2      -27.1930    3.3590   -4.2930 C.3   112  VAL112      0.0019
@<TRIPOS>BOND
     1    52    53    1
     2    53    56    1
     3    53    54    1
     4    56    57    1
     5    54    58   am
     6    54    55    2
     7    58    59    1
     8    64    62    1
     9    47    46    2
    10    61    60    2
    11    51    49    1
    12    59    62    1
    13    59    60    1
    14    62    63    1
    15    46    45    1
    16    60    65   am
    17    49    48    1
    18    49    50    1
    19    48    45    1
    20    45    44    1
    21    70    69    1
    22    44    41   am
    23    65    66    1
    24    66    69    1
    25    66    67    1
    26    69    71    1
    27    41    40    1
    28    41    42    2
    29    43    40    1
    30    40    39    1
    31    13    12    2
    32    37    36    2
    33    67    68    2
    34    39    36   am
    35    36    35    1
    36    12    11    1
    37    14    11    1
    38    14    15    1
    39    11    10    1
    40    35    34    1
    41    35    38    1
    42    16    15    1
    43    15    17    1
    44     4     3    2
    45    72    73    1
    46    78    76    1
    47    30    29    2
    48    73    76    1
    49    73    74    1
    50     3     2    1
    51    29    28    1
    52    76    77    1
    53    74    75    2
    54     1     2    1
    55     2     5    1
    56     6     5    1
    57     6     7    1
    58    28    27    1
    59    28    31    1
    60    33    31    1
    61    31    32    1
    62     8     7    1
    63     8     9    1
    64    18    19    1
    65    19    20    1
    66    19    22    1
    67    20    21    2
    68    23    22    1
    69    23    24    1
    70    26    24   ar
    71    24    25   ar
