@<TRIPOS>MOLECULE
tmp/4ikjA00.pdb
 86 78 0 0 0
SMALL
GASTEIGER

@<TRIPOS>ATOM
      1  N        -24.5690  -10.7440  -32.3260 N.3     4  MET4       -0.1245
      2  CA       -23.2720  -10.1100  -32.4080 C.3     4  MET4        0.1570
      3  C        -22.7690   -9.9000  -30.9900 C.2     4  MET4        0.2261
      4  O        -23.5530   -9.6990  -30.0670 O.2     4  MET4       -0.2867
      5  CB       -23.3730   -8.7810  -33.1640 C.3     4  MET4        0.0387
      6  CG       -22.0310   -8.1620  -33.5560 C.3     4  MET4        0.0595
      7  SD       -21.4160   -6.9350  -32.3940 S.3     4  MET4       -0.1393
      8  CE       -22.2430   -5.4450  -32.9790 C.3     4  MET4        0.0692
      9  N        -19.9020   -7.5720  -28.9100 N.3     6  LYS6       -0.1245
     10  CA       -18.9550   -6.4970  -28.9810 C.3     6  LYS6        0.1561
     11  C        -18.3150   -6.2940  -27.6300 C.2     6  LYS6        0.2260
     12  O        -19.0050   -6.2150  -26.6090 O.2     6  LYS6       -0.2867
     13  CB       -19.6190   -5.2120  -29.4340 C.3     6  LYS6        0.0271
     14  CG       -18.5910   -4.1150  -29.5970 C.3     6  LYS6        0.0035
     15  CD       -19.1670   -2.8300  -30.1320 C.3     6  LYS6        0.0206
     16  CE       -18.0570   -1.8060  -30.2350 C.3     6  LYS6        0.1093
     17  NZ       -18.1380   -1.1700  -31.5540 N.3     6  LYS6       -0.1314
     18  N        -15.4590   -4.1000  -25.4040 N.3     8  LEU8       -0.1245
     19  CA       -14.6240   -2.9380  -25.2410 C.3     8  LEU8        0.1561
     20  C        -13.7430   -3.1180  -24.0160 C.2     8  LEU8        0.2260
     21  O        -14.1330   -3.7170  -23.0010 O.2     8  LEU8       -0.2867
     22  CB       -15.4840   -1.6740  -25.1090 C.3     8  LEU8        0.0270
     23  CG       -16.2780   -1.2560  -26.3480 C.3     8  LEU8        0.0019
     24  CD1      -17.0100    0.0410  -26.1000 C.3     8  LEU8        0.0001
     25  CD2      -15.3880   -1.1470  -27.5940 C.3     8  LEU8        0.0001
     26  N        -15.4740   -6.6500  -32.3240 N.3    45  GLU45      -0.1245
     27  CA       -16.7570   -7.2450  -32.6500 C.3    45  GLU45       0.1567
     28  C        -16.6090   -8.6450  -33.1470 C.2    45  GLU45       0.2260
     29  O        -15.5670   -9.0290  -33.6910 O.2    45  GLU45      -0.2867
     30  CB       -17.5260   -6.3940  -33.6470 C.3    45  GLU45       0.0388
     31  CG       -17.8930   -5.0600  -33.0480 C.3    45  GLU45       0.1160
     32  CD       -18.5020   -4.1050  -34.0240 C.2    45  GLU45       0.3649
     33  OE1      -18.8360   -4.5120  -35.1420 O.co2  45  GLU45      -0.2457
     34  OE2      -18.6220   -2.9240  -33.6560 O.co2  45  GLU45      -0.2457
     35  N        -27.2820   -7.7280  -29.7820 N.3    97  THR97      -0.1218
     36  CA       -25.9170   -7.2860  -29.6090 C.3    97  THR97       0.1862
     37  C        -25.6070   -7.4220  -28.1290 C.2    97  THR97       0.2287
     38  O        -26.2280   -6.7790  -27.2830 O.2    97  THR97      -0.2866
     39  CB       -25.6660   -5.8470  -30.1310 C.3    97  THR97       0.1770
     40  OG1      -25.7130   -5.8580  -31.5640 O.3    97  THR97      -0.2211
     41  CG2      -24.2840   -5.3570  -29.7140 C.3    97  THR97       0.0375
     42  N        -23.0830   -6.4620  -25.7400 N.3    99  ALA99      -0.1231
     43  CA       -22.0580   -5.4540  -25.5830 C.3    99  ALA99       0.1694
     44  C        -21.4410   -5.6230  -24.2170 C.2    99  ALA99       0.2592
     45  O        -22.1460   -5.5870  -23.2040 O.2    99  ALA99      -0.2718
     46  CB       -22.6660   -4.0870  -25.7010 C.3    99  ALA99       0.0304
     47  N        -20.1230   -5.7960  -24.1740 N.am  100  ALA100     -0.1966
     48  CA       -19.4510   -5.9700  -22.9150 C.3   100  ALA100      0.1728
     49  C        -18.2910   -5.0000  -22.8100 C.2   100  ALA100      0.2616
     50  O        -17.5230   -4.8050  -23.7630 O.2   100  ALA100     -0.2715
     51  CB       -18.9750   -7.3930  -22.7650 C.3   100  ALA100      0.0334
     52  N        -18.1790   -4.3890  -21.6420 N.am  101  LEU101     -0.1977
     53  CA       -17.1130   -3.4660  -21.3560 C.3   101  LEU101      0.1596
     54  C        -16.2880   -4.0750  -20.2450 C.2   101  LEU101      0.2287
     55  O        -16.8120   -4.3960  -19.1660 O.2   101  LEU101     -0.2864
     56  CB       -17.6980   -2.1200  -20.9010 C.3   101  LEU101      0.0297
     57  CG       -16.6710   -1.0730  -20.4790 C.3   101  LEU101      0.0022
     58  CD1      -15.9900   -0.5070  -21.7230 C.3   101  LEU101      0.0001
     59  CD2      -17.3150    0.0240  -19.6400 C.3   101  LEU101      0.0001
     60  N        -19.1990   -5.0400  -17.5220 N.3   108  SER108     -0.1202
     61  CA       -20.6070   -4.8050  -17.6430 C.3   108  SER108      0.2020
     62  C        -21.0170   -5.4270  -18.9410 C.2   108  SER108      0.2619
     63  O        -20.2130   -5.5570  -19.8650 O.2   108  SER108     -0.2717
     64  CB       -20.9180   -3.3170  -17.6330 C.3   108  SER108      0.2103
     65  OG       -21.0640   -2.8220  -18.9470 O.3   108  SER108     -0.2182
     66  N        -22.2700   -5.8310  -19.0050 N.am  109  THR109     -0.1938
     67  CA       -22.7800   -6.4330  -20.1880 C.3   109  THR109      0.2028
     68  C        -24.1240   -5.7890  -20.4300 C.2   109  THR109      0.2642
     69  O        -24.9240   -5.6200  -19.5180 O.2   109  THR109     -0.2714
     70  CB       -22.7620   -7.9790  -20.1110 C.3   109  THR109      0.1808
     71  OG1      -22.9160   -8.5010  -21.4270 O.3   109  THR109     -0.2208
     72  CG2      -23.8320   -8.5350  -19.1920 C.3   109  THR109      0.0379
     73  N        -24.3380   -5.4020  -21.6790 N.am  110  THR110     -0.1950
     74  CA       -25.5690   -4.7870  -22.0890 C.3   110  THR110      0.1897
     75  C        -26.1080   -5.5320  -23.2940 C.2   110  THR110      0.2313
     76  O        -25.3460   -6.0640  -24.1060 O.2   110  THR110     -0.2863
     77  CB       -25.3400   -3.3190  -22.4290 C.3   110  THR110      0.1794
     78  OG1      -24.5320   -2.7350  -21.3970 O.3   110  THR110     -0.2208
     79  CG2      -26.6740   -2.5840  -22.5130 C.3   110  THR110      0.0378
     80  N        -28.4040   -5.1190  -26.6280 N.3   112  VAL112     -0.1245
     81  CA       -29.1920   -4.3340  -27.5750 C.3   112  VAL112      0.1561
     82  C        -30.0210   -5.3140  -28.3760 C.2   112  VAL112      0.2260
     83  O        -29.4940   -6.1430  -29.1090 O.2   112  VAL112     -0.2867
     84  CB       -28.3310   -3.4560  -28.4750 C.3   112  VAL112      0.0252
     85  CG1      -29.1850   -2.3810  -29.1200 C.3   112  VAL112      0.0019
     86  CG2      -27.1890   -2.8160  -27.6490 C.3   112  VAL112      0.0019
@<TRIPOS>BOND
     1    33    32   ar
     2    32    34   ar
     3    32    31    1
     4    29    28    2
     5    30    31    1
     6    30    27    1
     7     6     5    1
     8     6     7    1
     9     5     2    1
    10    28    27    1
    11     8     7    1
    12    27    26    1
    13     2     1    1
    14     2     3    1
    15    40    39    1
    16    17    16    1
    17     3     4    2
    18    16    15    1
    19    15    14    1
    20    39    41    1
    21    39    36    1
    22    35    36    1
    23    36    37    1
    24    14    13    1
    25    13    10    1
    26    85    84    1
    27    83    82    2
    28    10     9    1
    29    10    11    1
    30    84    86    1
    31    84    81    1
    32    82    81    1
    33    37    38    2
    34    11    12    2
    35    25    23    1
    36    81    80    1
    37    23    24    1
    38    23    22    1
    39    42    43    1
    40    46    43    1
    41    43    44    1
    42    18    19    1
    43    19    22    1
    44    19    20    1
    45    44    47   am
    46    44    45    2
    47    47    48    1
    48    76    75    2
    49    20    21    2
    50    50    49    2
    51    75    74    1
    52    48    49    1
    53    48    51    1
    54    49    52   am
    55    79    77    1
    56    77    74    1
    57    77    78    1
    58    74    73    1
    59    58    57    1
    60    73    68   am
    61    52    53    1
    62    71    70    1
    63    53    56    1
    64    53    54    1
    65    56    57    1
    66    57    59    1
    67    68    67    1
    68    68    69    2
    69    54    55    2
    70    67    70    1
    71    67    66    1
    72    70    72    1
    73    63    62    2
    74    66    62   am
    75    65    64    1
    76    62    61    1
    77    61    64    1
    78    61    60    1
