@<TRIPOS>MOLECULE
tmp/4iknA00.pdb
 150 150 0 0 0
SMALL
GASTEIGER

@<TRIPOS>ATOM
      1  N        -21.9260   -1.6570    3.1270 N.3    17  TYR17      -0.1227
      2  CA       -20.6810   -1.9460    2.4420 C.3    17  TYR17       0.1736
      3  C        -20.2820   -0.7650    1.5300 C.2    17  TYR17       0.2595
      4  O        -21.1310   -0.1840    0.8870 O.2    17  TYR17      -0.2718
      5  CB       -20.8860   -3.1320    1.5110 C.3    17  TYR17       0.0548
      6  CG       -21.3480   -4.3540    2.2360 C.ar   17  TYR17      -0.0200
      7  CD1      -20.4060   -5.2360    2.8310 C.ar   17  TYR17      -0.0009
      8  CD2      -22.7160   -4.6310    2.3690 C.ar   17  TYR17      -0.0009
      9  CE1      -20.8280   -6.3790    3.5220 C.ar   17  TYR17       0.0417
     10  CE2      -23.1360   -5.8040    3.0630 C.ar   17  TYR17       0.0417
     11  CZ       -22.2010   -6.6170    3.6420 C.ar   17  TYR17       0.1957
     12  OH       -22.6140   -7.7220    4.3360 O.3    17  TYR17      -0.2866
     13  N        -18.9790   -0.4980    1.4080 N.am   18  PHE18      -0.1962
     14  CA       -18.5050    0.5100    0.4220 C.3    18  PHE18       0.1771
     15  C        -17.4940   -0.1600   -0.4680 C.2    18  PHE18       0.2619
     16  O        -16.7500   -1.0110   -0.0010 O.2    18  PHE18      -0.2715
     17  CB       -17.8530    1.6340    1.2050 C.3    18  PHE18       0.0574
     18  CG       -18.8870    2.4410    1.9710 C.ar   18  PHE18      -0.0200
     19  CD1      -19.2470    2.0640    3.2490 C.ar   18  PHE18      -0.0042
     20  CD2      -19.5800    3.4410    1.3480 C.ar   18  PHE18      -0.0042
     21  CE1      -20.2810    2.7860    3.9120 C.ar   18  PHE18      -0.0003
     22  CE2      -20.6020    4.1750    2.0160 C.ar   18  PHE18      -0.0003
     23  CZ       -20.9180    3.8110    3.2920 C.ar   18  PHE18      -0.0000
     24  N        -17.5180    0.1890   -1.7540 N.am   19  ASP19      -0.1971
     25  CA       -16.5130   -0.3690   -2.6890 C.3    19  ASP19       0.1709
     26  C        -15.7560    0.8090   -3.3160 C.2    19  ASP19       0.2293
     27  O        -16.3820    1.6630   -3.9550 O.2    19  ASP19      -0.2864
     28  CB       -17.2460   -1.0060   -3.8450 C.3    19  ASP19       0.1436
     29  CG       -17.4160   -2.4600   -3.6630 C.2    19  ASP19       0.3671
     30  OD1      -17.8520   -2.8770   -2.5310 O.co2  19  ASP19      -0.2456
     31  OD2      -17.0840   -3.1840   -4.6680 O.co2  19  ASP19      -0.2456
     32  N        -18.1510    8.9760    7.0130 N.3    57  LEU57      -0.1245
     33  CA       -17.0420    8.1880    6.4080 C.3    57  LEU57       0.1561
     34  C        -15.8530    9.1340    6.2710 C.2    57  LEU57       0.2260
     35  O        -16.0180   10.2390    5.6640 O.2    57  LEU57      -0.2867
     36  CB       -17.4690    7.7130    5.0110 C.3    57  LEU57       0.0270
     37  CG       -16.4300    6.8820    4.2130 C.3    57  LEU57       0.0019
     38  CD1      -16.0890    5.5070    4.8760 C.3    57  LEU57       0.0001
     39  CD2      -17.0290    6.6520    2.7720 C.3    57  LEU57       0.0001
     40  N         -7.6480   -6.9210   -6.9310 N.3   211  GLN211     -0.1231
     41  CA        -8.4220   -6.8240   -5.6510 C.3   211  GLN211      0.1698
     42  C         -7.5290   -6.4400   -4.5130 C.2   211  GLN211      0.2592
     43  O         -6.3130   -6.7370   -4.4970 O.2   211  GLN211     -0.2718
     44  CB        -9.1270   -8.1790   -5.3550 C.3   211  GLN211      0.0381
     45  CG       -10.0090   -8.5880   -6.4940 C.3   211  GLN211      0.0905
     46  CD       -10.8870   -9.8240   -6.1870 C.2   211  GLN211      0.2608
     47  OE1      -11.0330  -10.7310   -7.0240 O.2   211  GLN211     -0.2717
     48  NE2      -11.4460   -9.8770   -4.9710 N.am  211  GLN211     -0.0878
     49  N         -8.1500   -5.7540   -3.5270 N.am  212  GLN212     -0.1979
     50  CA        -7.5230   -5.3510   -2.2830 C.3   212  GLN212      0.1601
     51  C         -6.4610   -4.2610   -2.5060 C.2   212  GLN212      0.2287
     52  O         -5.4980   -4.1760   -1.7420 O.2   212  GLN212     -0.2864
     53  CB        -6.8490   -6.5300   -1.5750 C.3   212  GLN212      0.0394
     54  CG        -7.8210   -7.6650   -1.3220 C.3   212  GLN212      0.0908
     55  CD        -7.2050   -8.7560   -0.4250 C.2   212  GLN212      0.2608
     56  OE1       -5.9860   -8.8260   -0.2150 O.2   212  GLN212     -0.2717
     57  NE2       -8.0700   -9.5990    0.1150 N.am  212  GLN212     -0.0878
     58  N         -9.6800    4.2460    3.8180 N.3   220  VAL220     -0.1231
     59  CA       -10.6930    4.7280    4.7480 C.3   220  VAL220      0.1692
     60  C        -10.1260    4.7410    6.1870 C.2   220  VAL220      0.2592
     61  O         -9.3350    3.8890    6.5560 O.2   220  VAL220     -0.2718
     62  CB       -11.9340    3.7960    4.6630 C.3   220  VAL220      0.0266
     63  CG1      -12.9170    3.9930    5.8550 C.3   220  VAL220      0.0020
     64  CG2      -12.6290    3.9750    3.2980 C.3   220  VAL220      0.0020
     65  N        -10.4920    5.7410    6.9670 N.am  221  ASN221     -0.1960
     66  CA       -10.1570    5.7830    8.3870 C.3   221  ASN221      0.1819
     67  C        -11.3030    5.0750    9.1750 C.2   221  ASN221      0.2621
     68  O        -11.1350    3.9900    9.7410 O.2   221  ASN221     -0.2715
     69  CB       -10.0160    7.2340    8.7930 C.3   221  ASN221      0.1195
     70  CG        -9.7270    7.4150   10.2970 C.2   221  ASN221      0.2630
     71  OD1       -9.1880    6.5350   10.9610 O.2   221  ASN221     -0.2716
     72  ND2      -10.0400    8.5820   10.7960 N.am  221  ASN221     -0.0877
     73  N        -12.4730    5.7140    9.2330 N.am  222  ARG222     -0.1963
     74  CA       -13.5730    5.1590   10.0610 C.3   222  ARG222      0.1729
     75  C        -14.8620    5.3690    9.3380 C.2   222  ARG222      0.2616
     76  O        -14.9990    6.2610    8.5060 O.2   222  ARG222     -0.2715
     77  CB       -13.7530    5.9090   11.3850 C.3   222  ARG222      0.0348
     78  CG       -12.6650    5.7170   12.3500 C.3   222  ARG222      0.0492
     79  CD       -12.6840    6.9540   13.3310 C.3   222  ARG222      0.2205
     80  NE       -13.8890    6.9050   14.1300 N.pl3 222  ARG222     -0.0865
     81  CZ       -13.9650    6.3090   15.3180 C.cat 222  ARG222      0.5346
     82  NH1      -12.8810    5.7650   15.8790 N.pl3 222  ARG222      0.1354
     83  NH2      -15.1180    6.2810   15.9730 N.pl3 222  ARG222      0.1354
     84  N        -15.8130    4.5210    9.6760 N.am  223  LEU223     -0.1977
     85  CA       -17.1890    4.7250    9.3320 C.3   223  LEU223      0.1596
     86  C        -17.9530    4.6610   10.6470 C.2   223  LEU223      0.2287
     87  O        -17.9410    3.5790   11.2930 O.2   223  LEU223     -0.2864
     88  CB       -17.7110    3.6100    8.4180 C.3   223  LEU223      0.0297
     89  CG       -19.1890    3.7400    7.9710 C.3   223  LEU223      0.0022
     90  CD1      -19.5030    4.9150    7.1120 C.3   223  LEU223      0.0001
     91  CD2      -19.6240    2.4260    7.2360 C.3   223  LEU223      0.0001
     92  N        -24.1860   -2.3300   13.3520 N.3   232  PRO232     -0.2102
     93  CA       -24.2740   -3.0170   12.0530 C.3   232  PRO232      0.1504
     94  C        -22.9330   -3.5790   11.6270 C.2   232  PRO232      0.2576
     95  O        -21.9200   -3.2140   12.1880 O.2   232  PRO232     -0.2718
     96  CB       -24.6310   -1.8780   11.1020 C.3   232  PRO232      0.0282
     97  CG       -24.0730   -0.6950   11.7080 C.3   232  PRO232      0.0208
     98  CD       -24.0460   -0.8670   13.1890 C.3   232  PRO232      0.0893
     99  N        -22.9290   -4.4690   10.6460 N.am  233  PHE233     -0.1963
    100  CA       -21.6550   -4.8490   10.0520 C.3   233  PHE233      0.1771
    101  C        -21.3020   -3.7090    9.0950 C.2   233  PHE233      0.2619
    102  O        -22.1290   -3.2650    8.3410 O.2   233  PHE233     -0.2715
    103  CB       -21.7970   -6.1020    9.1920 C.3   233  PHE233      0.0574
    104  CG       -20.5080   -6.4460    8.4240 C.ar  233  PHE233     -0.0200
    105  CD1      -19.4470   -7.0840    9.0810 C.ar  233  PHE233     -0.0042
    106  CD2      -20.3340   -6.0420    7.1010 C.ar  233  PHE233     -0.0042
    107  CE1      -18.2200   -7.3710    8.4040 C.ar  233  PHE233     -0.0003
    108  CE2      -19.1240   -6.3200    6.4130 C.ar  233  PHE233     -0.0003
    109  CZ       -18.0840   -6.9880    7.0800 C.ar  233  PHE233     -0.0000
    110  N        -20.0490   -3.3230    9.0590 N.am  234  LYS234     -0.1963
    111  CA       -19.6190   -2.2430    8.1720 C.3   234  LYS234      0.1728
    112  C        -18.3390   -2.7390    7.4910 C.2   234  LYS234      0.2617
    113  O        -17.4150   -3.1820    8.1960 O.2   234  LYS234     -0.2715
    114  CB       -19.2790   -0.9980    9.0110 C.3   234  LYS234      0.0311
    115  CG       -20.4700   -0.5150    9.9610 C.3   234  LYS234      0.0038
    116  CD       -20.1380    0.6860   10.9040 C.3   234  LYS234      0.0206
    117  CE       -19.2150    0.3630   12.0420 C.3   234  LYS234      0.1093
    118  NZ       -18.9770    1.6090   12.8770 N.3   234  LYS234     -0.1314
    119  N        -18.2560   -2.6410    6.1380 N.am  235  GLY235     -0.1940
    120  CA       -16.9740   -3.0620    5.5160 C.3   235  GLY235      0.2014
    121  C        -16.6660   -2.2250    4.2890 C.2   235  GLY235      0.2639
    122  O        -17.5530   -1.5480    3.7420 O.2   235  GLY235     -0.2714
    123  N        -15.3930   -2.2730    3.8920 N.am  236  VAL236     -0.1963
    124  CA       -14.9480   -1.5840    2.6790 C.3   236  VAL236      0.1727
    125  C        -14.0410   -2.5570    1.9320 C.2   236  VAL236      0.2616
    126  O        -13.3210   -3.3560    2.5890 O.2   236  VAL236     -0.2715
    127  CB       -14.2590   -0.2380    2.9920 C.3   236  VAL236      0.0290
    128  CG1      -13.0130   -0.3570    3.8950 C.3   236  VAL236      0.0023
    129  CG2      -13.7960    0.4820    1.6960 C.3   236  VAL236      0.0023
    130  N        -14.1770   -2.5590    0.5990 N.am  237  LYS237     -0.1963
    131  CA       -13.3200   -3.3580   -0.3310 C.3   237  LYS237      0.1728
    132  C        -12.7230   -2.3150   -1.3130 C.2   237  LYS237      0.2616
    133  O        -13.3390   -1.2570   -1.5610 O.2   237  LYS237     -0.2715
    134  CB       -14.2050   -4.3510   -1.0810 C.3   237  LYS237      0.0311
    135  CG       -13.6370   -4.8820   -2.3680 C.3   237  LYS237      0.0038
    136  CD       -14.3990   -6.1430   -2.9330 C.3   237  LYS237      0.0206
    137  CE       -15.6990   -5.7200   -3.6490 C.3   237  LYS237      0.1093
    138  NZ       -16.3160   -6.7940   -4.5630 N.3   237  LYS237     -0.1314
    139  N        -11.5110   -2.5920   -1.8350 N.am  238  TYR238     -0.1974
    140  CA       -10.8500   -1.7180   -2.7930 C.3   238  TYR238      0.1639
    141  C        -10.4770   -2.5630   -4.0310 C.2   238  TYR238      0.2290
    142  O        -10.0400   -3.7100   -3.8750 O.2   238  TYR238     -0.2864
    143  CB        -9.5390   -1.2000   -2.1800 C.3   238  TYR238      0.0560
    144  CG        -9.6800   -0.4950   -0.7980 C.ar  238  TYR238     -0.0198
    145  CD1       -9.7340   -1.2460    0.3870 C.ar  238  TYR238     -0.0009
    146  CD2       -9.7750    0.8760   -0.7380 C.ar  238  TYR238     -0.0009
    147  CE1       -9.7990   -0.5940    1.6560 C.ar  238  TYR238      0.0417
    148  CE2       -9.8760    1.5500    0.5160 C.ar  238  TYR238      0.0417
    149  CZ        -9.8900    0.7750    1.6950 C.ar  238  TYR238      0.1957
    150  OH        -9.9690    1.4570    2.9000 O.3   238  TYR238     -0.2866
@<TRIPOS>BOND
     1    47    46    2
     2    40    41    1
     3    45    46    1
     4    45    44    1
     5    46    48   am
     6    41    44    1
     7    41    42    1
     8    31    29   ar
     9   138   137    1
    10    42    43    2
    11    42    49   am
    12   141   142    2
    13   141   140    1
    14    27    26    2
    15    28    29    1
    16    28    25    1
    17    29    30   ar
    18   137   136    1
    19    49    50    1
    20    26    25    1
    21   136   135    1
    22   140   143    1
    23   140   139    1
    24    25    24    1
    25    51    50    1
    26    51    52    2
    27   135   134    1
    28    50    53    1
    29   143   144    1
    30   139   132   am
    31    24    15   am
    32    53    54    1
    33   133   132    2
    34    54    55    1
    35   132   131    1
    36   134   131    1
    37   144   146   ar
    38   144   145   ar
    39   146   148   ar
    40    15    16    2
    41    15    14    1
    42    55    56    2
    43    55    57   am
    44   131   130    1
    45   145   147   ar
    46    14    17    1
    47    14    13    1
    48   148   149   ar
    49   130   125   am
    50     4     3    2
    51    17    18    1
    52    20    18   ar
    53    20    22   ar
    54    13     3   am
    55     5     6    1
    56     5     2    1
    57     3     2    1
    58   147   149   ar
    59   149   150    1
    60   129   127    1
    61   125   126    2
    62   125   124    1
    63    18    19   ar
    64    22    23   ar
    65     6     8   ar
    66     6     7   ar
    67     8    10   ar
    68     2     1    1
    69   124   127    1
    70   124   123    1
    71    39    37    1
    72     7     9   ar
    73   127   128    1
    74    10    11   ar
    75    19    21   ar
    76    23    21   ar
    77    64    62    1
    78     9    11   ar
    79    11    12    1
    80   122   121    2
    81    58    59    1
    82   123   121   am
    83    37    38    1
    84    37    36    1
    85   121   120    1
    86    62    59    1
    87    62    63    1
    88    59    60    1
    89    36    33    1
    90   120   119    1
    91    35    34    2
    92   119   112   am
    93    60    61    2
    94    60    65   am
    95    34    33    1
    96    33    32    1
    97   108   109   ar
    98   108   106   ar
    99    65    66    1
   100   109   107   ar
   101   106   104   ar
   102    90    89    1
   103    91    89    1
   104   112   111    1
   105   112   113    2
   106    89    88    1
   107   111   114    1
   108   111   110    1
   109   102   101    2
   110    66    69    1
   111    66    67    1
   112   107   105   ar
   113    88    85    1
   114   104   105   ar
   115   104   103    1
   116    76    75    2
   117    69    70    1
   118   114   115    1
   119   110   101   am
   120   101   100    1
   121    67    73   am
   122    67    68    2
   123   103   100    1
   124    73    74    1
   125    85    84    1
   126    85    86    1
   127    75    84   am
   128    75    74    1
   129   115   116    1
   130   100    99    1
   131    74    77    1
   132    70    72   am
   133    70    71    2
   134    99    94   am
   135    86    87    2
   136   116   117    1
   137    96    97    1
   138    96    93    1
   139    77    78    1
   140    94    93    1
   141    94    95    2
   142    97    98    1
   143   117   118    1
   144    93    92    1
   145    78    79    1
   146    98    92    1
   147    79    80    1
   148    80    81    2
   149    81    82    1
   150    81    83    1
