@<TRIPOS>MOLECULE
tmp/4ikpA00.pdb
 146 138 0 0 0
SMALL
GASTEIGER

@<TRIPOS>ATOM
      1  N          6.0450   20.6590   15.8330 N.3     7  TYR7       -0.1227
      2  CA         7.1340   21.5870   16.1260 C.3     7  TYR7        0.1736
      3  C          7.3060   22.5870   14.9850 C.2     7  TYR7        0.2595
      4  O          7.3370   23.7940   15.2220 O.2     7  TYR7       -0.2718
      5  CB         8.4440   20.8390   16.4080 C.3     7  TYR7        0.0548
      6  CG         9.6580   21.7490   16.5120 C.ar    7  TYR7       -0.0200
      7  CD1        9.9740   22.3910   17.7100 C.ar    7  TYR7       -0.0009
      8  CD2       10.4800   21.9740   15.4060 C.ar    7  TYR7       -0.0009
      9  CE1       11.0790   23.2250   17.8030 C.ar    7  TYR7        0.0417
     10  CE2       11.5890   22.8060   15.4920 C.ar    7  TYR7        0.0417
     11  CZ        11.8840   23.4260   16.6910 C.ar    7  TYR7        0.1957
     12  OH        12.9800   24.2530   16.7740 O.3     7  TYR7       -0.2866
     13  N          7.3980   22.0840   13.7530 N.am    8  PHE8       -0.1976
     14  CA         7.5930   22.9470   12.5910 C.3     8  PHE8        0.1639
     15  C          6.3460   23.7440   12.1860 C.2     8  PHE8        0.2290
     16  O          6.4640   24.8240   11.6100 O.2     8  PHE8       -0.2864
     17  CB         8.1860   22.1710   11.4120 C.3     8  PHE8        0.0560
     18  CG         9.6340   21.8080   11.6050 C.ar    8  PHE8       -0.0200
     19  CD1       10.0210   20.4790   11.7760 C.ar    8  PHE8       -0.0042
     20  CD2       10.6160   22.7960   11.6380 C.ar    8  PHE8       -0.0042
     21  CE1       11.3600   20.1450   11.9730 C.ar    8  PHE8       -0.0003
     22  CE2       11.9550   22.4650   11.8360 C.ar    8  PHE8       -0.0003
     23  CZ        12.3260   21.1360   11.9980 C.ar    8  PHE8       -0.0000
     24  N          6.2680   27.0630   14.0950 N.3    11  TYR11      -0.1241
     25  CA         7.1310   28.0910   13.5030 C.3    11  TYR11       0.1605
     26  C          6.6610   28.6260   12.1420 C.2    11  TYR11       0.2264
     27  O          7.2200   29.5860   11.6150 O.2    11  TYR11      -0.2867
     28  CB         8.5910   27.6110   13.4550 C.3    11  TYR11       0.0534
     29  CG         9.2690   27.7030   14.8000 C.ar   11  TYR11      -0.0201
     30  CD1        9.4320   28.9390   15.4310 C.ar   11  TYR11      -0.0009
     31  CD2        9.7350   26.5590   15.4540 C.ar   11  TYR11      -0.0009
     32  CE1       10.0480   29.0390   16.6640 C.ar   11  TYR11       0.0417
     33  CE2       10.3590   26.6490   16.6940 C.ar   11  TYR11       0.0417
     34  CZ        10.5090   27.8910   17.2890 C.ar   11  TYR11       0.1957
     35  OH        11.1190   27.9940   18.5140 O.3    11  TYR11      -0.2866
     36  N          6.3490   34.5400   14.6890 N.3    17  GLN17      -0.1245
     37  CA         7.4800   35.3620   14.2650 C.3    17  GLN17       0.1566
     38  C          7.4140   36.7860   14.7980 C.2    17  GLN17       0.2260
     39  O          8.4280   37.3510   15.1910 O.2    17  GLN17      -0.2867
     40  CB         7.6090   35.3790   12.7420 C.3    17  GLN17       0.0367
     41  CG         8.4260   34.2310   12.2020 C.3    17  GLN17       0.0905
     42  CD         9.8940   34.3120   12.6050 C.2    17  GLN17       0.2608
     43  OE1       10.4200   35.3890   12.9240 O.2    17  GLN17      -0.2717
     44  NE2       10.5620   33.1740   12.5870 N.am   17  GLN17      -0.0878
     45  N          8.5300   36.7480   18.4270 N.3    20  MET20      -0.1245
     46  CA         9.9790   36.5490   18.4330 C.3    20  MET20       0.1570
     47  C         10.7300   37.8200   18.0500 C.2    20  MET20       0.2261
     48  O         11.6790   38.2230   18.7260 O.2    20  MET20      -0.2867
     49  CB        10.3600   35.4400   17.4530 C.3    20  MET20       0.0387
     50  CG        10.2010   34.0200   17.9720 C.3    20  MET20       0.0595
     51  SD        10.7540   32.8390   16.7150 S.3    20  MET20      -0.1393
     52  CE         9.2100   32.6010   15.8410 C.3    20  MET20       0.0692
     53  N         21.0400   28.8500   10.0770 N.3    49  VAL49      -0.1231
     54  CA        20.3640   27.6030   10.4170 C.3    49  VAL49       0.1692
     55  C         19.0250   27.8890   11.0920 C.2    49  VAL49       0.2592
     56  O         18.9810   28.4060   12.2090 O.2    49  VAL49      -0.2718
     57  CB        21.2150   26.6970   11.3340 C.3    49  VAL49       0.0266
     58  CG1       20.4950   25.3780   11.5800 C.3    49  VAL49       0.0020
     59  CG2       22.5950   26.4540   10.7180 C.3    49  VAL49       0.0020
     60  N         17.9440   27.5410   10.4080 N.am   50  GLY50      -0.1957
     61  CA        16.5970   27.8800   10.8870 C.3    50  GLY50       0.1869
     62  C         16.3850   29.3790   10.7950 C.2    50  GLY50       0.2309
     63  O         16.2600   30.0580   11.8180 O.2    50  GLY50      -0.2863
     64  N         13.9060   31.2450    9.8790 N.3    52  GLY52      -0.1225
     65  CA        12.5600   31.8160   10.1230 C.3    52  GLY52       0.1811
     66  C         12.2070   32.8670    9.0790 C.2    52  GLY52       0.2280
     67  O         12.2280   32.5830    7.8860 O.2    52  GLY52      -0.2866
     68  N         18.4900   28.4880    5.6470 N.3    71  VAL71      -0.1231
     69  CA        17.8320   27.1930    5.6580 C.3    71  VAL71       0.1692
     70  C         16.6810   27.1910    6.6630 C.2    71  VAL71       0.2592
     71  O         16.8580   27.5300    7.8160 O.2    71  VAL71      -0.2718
     72  CB        18.8390   26.0590    5.9630 C.3    71  VAL71       0.0266
     73  CG1       18.1370   24.7170    6.0420 C.3    71  VAL71       0.0020
     74  CG2       19.9570   26.0350    4.9050 C.3    71  VAL71       0.0020
     75  N         15.4980   26.8070    6.2150 N.am   72  GLU72      -0.1966
     76  CA        14.3160   26.8590    7.0820 C.3    72  GLU72       0.1733
     77  C         13.3990   25.6850    6.7800 C.2    72  GLU72       0.2616
     78  O         13.0620   25.4580    5.6290 O.2    72  GLU72      -0.2715
     79  CB        13.5830   28.2050    6.9060 C.3    72  GLU72       0.0429
     80  CG        12.2520   28.3220    7.6410 C.3    72  GLU72       0.1163
     81  CD        12.3730   28.0190    9.1180 C.2    72  GLU72       0.3649
     82  OE1       13.3680   28.4570    9.7500 O.co2  72  GLU72      -0.2457
     83  OE2       11.4730   27.3380    9.6490 O.co2  72  GLU72      -0.2457
     84  N         12.9950   24.9410    7.8100 N.am   73  ALA73      -0.1963
     85  CA        12.2190   23.7230    7.5900 C.3    73  ALA73       0.1728
     86  C         10.6970   23.9180    7.6530 C.2    73  ALA73       0.2616
     87  O          9.9640   23.0900    7.1360 O.2    73  ALA73      -0.2715
     88  CB        12.6680   22.6090    8.5330 C.3    73  ALA73       0.0334
     89  N         10.2210   25.0000    8.2650 N.am   74  SER74      -0.1950
     90  CA         8.7740   25.2880    8.2790 C.3    74  SER74       0.1924
     91  C          8.3510   26.0440    7.0170 C.2    74  SER74       0.2314
     92  O          9.1900   26.4590    6.2220 O.2    74  SER74      -0.2863
     93  CB         8.3940   26.1190    9.5030 C.3    74  SER74       0.2116
     94  OG         8.8680   27.4560    9.3560 O.3    74  SER74      -0.2180
     95  N         13.6970   23.3400    3.9790 N.3    98  GLY98      -0.1210
     96  CA        14.0210   21.9910    4.4330 C.3    98  GLY98       0.1956
     97  C         14.8510   21.9780    5.7060 C.2    98  GLY98       0.2612
     98  O         15.2300   23.0270    6.2270 O.2    98  GLY98      -0.2717
     99  N         15.1210   20.7760    6.2080 N.am   99  LYS99      -0.1965
    100  CA        15.8790   20.6010    7.4390 C.3    99  LYS99       0.1728
    101  C         17.3590   20.6730    7.1080 C.2    99  LYS99       0.2616
    102  O         17.7720   20.2070    6.0480 O.2    99  LYS99      -0.2715
    103  CB        15.5260   19.2720    8.0920 C.3    99  LYS99       0.0311
    104  CG        14.0380   19.1350    8.3660 C.3    99  LYS99       0.0038
    105  CD        13.6840   17.8440    9.0740 C.3    99  LYS99       0.0206
    106  CE        12.1670   17.7490    9.2230 C.3    99  LYS99       0.1093
    107  NZ        11.7720   16.6960   10.1960 N.3    99  LYS99      -0.1314
    108  N         18.1510   21.2770    7.9960 N.am  100  VAL100     -0.1963
    109  CA        19.5960   21.4300    7.7340 C.3   100  VAL100      0.1727
    110  C         20.3330   20.0780    7.6460 C.2   100  VAL100      0.2616
    111  O         21.3950   19.9850    7.0250 O.2   100  VAL100     -0.2715
    112  CB        20.2700   22.3910    8.7420 C.3   100  VAL100      0.0290
    113  CG1       20.3600   21.7640   10.1300 C.3   100  VAL100      0.0023
    114  CG2       21.6340   22.8530    8.2280 C.3   100  VAL100      0.0023
    115  N         19.7480   19.0420    8.2530 N.am  101  GLU101     -0.1977
    116  CA        20.2710   17.6670    8.2090 C.3   101  GLU101      0.1602
    117  C         20.0310   16.9620    6.8800 C.2   101  GLU101      0.2287
    118  O         20.4980   15.8450    6.6850 O.2   101  GLU101     -0.2864
    119  CB        19.6490   16.7960    9.3100 C.3   101  GLU101      0.0415
    120  CG        19.6260   17.3950   10.7030 C.3   101  GLU101      0.1163
    121  CD        18.3630   18.1970   10.9640 C.2   101  GLU101      0.3649
    122  OE1       18.1000   19.1520   10.2130 O.co2 101  GLU101     -0.2457
    123  OE2       17.6360   17.8750   11.9200 O.co2 101  GLU101     -0.2457
    124  N         19.7790   31.0070   15.7890 N.3   115  GLU115     -0.1245
    125  CA        19.2290   31.1770   17.1290 C.3   115  GLU115      0.1567
    126  C         18.6780   29.8460   17.5970 C.2   115  GLU115      0.2260
    127  O         17.4600   29.6240   17.5620 O.2   115  GLU115     -0.2867
    128  CB        18.1590   32.2670   17.1740 C.3   115  GLU115      0.0388
    129  CG        17.7270   32.6140   18.5940 C.3   115  GLU115      0.1160
    130  CD        16.3370   33.2190   18.6400 C.2   115  GLU115      0.3649
    131  OE1       16.0160   34.0260   17.7470 O.co2 115  GLU115     -0.2457
    132  OE2       15.5700   32.8880   19.5670 O.co2 115  GLU115     -0.2457
    133  N         17.4210   22.1440   19.2780 N.3   126  MET126     -0.1245
    134  CA        17.9160   22.7550   18.0560 C.3   126  MET126      0.1570
    135  C         19.4370   22.8960   18.0870 C.2   126  MET126      0.2261
    136  O         20.0560   23.0570   17.0410 O.2   126  MET126     -0.2867
    137  CB        17.2470   24.1000   17.7860 C.3   126  MET126      0.0387
    138  CG        17.4440   24.5830   16.3590 C.3   126  MET126      0.0595
    139  SD        16.6430   26.1580   16.0410 S.3   126  MET126     -0.1393
    140  CE        17.4170   26.6160   14.4950 C.3   126  MET126      0.0692
    141  N         20.8890   20.2690   15.7390 N.3   129  SER129     -0.1217
    142  CA        20.8820   20.6530   14.3220 C.3   129  SER129      0.1889
    143  C         21.9550   21.6960   14.0350 C.2   129  SER129      0.2288
    144  O         22.6070   21.6610   12.9850 O.2   129  SER129     -0.2866
    145  CB        19.5210   21.1950   13.8980 C.3   129  SER129      0.2089
    146  OG        18.4790   20.4070   14.4230 O.3   129  SER129     -0.2183
@<TRIPOS>BOND
     1    95    96    1
     2    96    97    1
     3    74    72    1
     4    78    77    2
     5    68    69    1
     6    69    72    1
     7    69    70    1
     8    97    99   am
     9    97    98    2
    10    72    73    1
    11   102   101    2
    12    99   100    1
    13    75    70   am
    14    75    76    1
    15    92    91    2
    16    70    71    2
    17   118   117    2
    18    77    76    1
    19    77    84   am
    20   117   116    1
    21    79    76    1
    22    79    80    1
    23    91    90    1
    24   111   110    2
    25   101   100    1
    26   101   108   am
    27    87    86    2
    28   100   103    1
    29    85    86    1
    30    85    84    1
    31    85    88    1
    32    80    81    1
    33   110   109    1
    34   110   115   am
    35    86    89   am
    36   109   108    1
    37   109   112    1
    38    67    66    2
    39   103   104    1
    40   116   115    1
    41   116   119    1
    42   114   112    1
    43    89    90    1
    44    90    93    1
    45   104   105    1
    46   112   113    1
    47   105   106    1
    48    66    65    1
    49    81    83   ar
    50    81    82   ar
    51   106   107    1
    52   119   120    1
    53    94    93    1
    54    64    65    1
    55    53    54    1
    56   122   121   ar
    57    60    61    1
    58    60    55   am
    59    54    55    1
    60    54    57    1
    61   120   121    1
    62    59    57    1
    63    62    61    1
    64    62    63    2
    65   121   123   ar
    66    55    56    2
    67    57    58    1
    68    17    18    1
    69    17    14    1
    70    18    20   ar
    71    18    19   ar
    72    16    15    2
    73    27    26    2
    74    20    22   ar
    75    19    21   ar
    76    22    23   ar
    77    21    23   ar
    78    26    25    1
    79    15    14    1
    80    41    42    1
    81    41    40    1
    82    44    42   am
    83    14    13    1
    84    42    43    2
    85    40    37    1
    86   144   143    2
    87    28    25    1
    88    28    29    1
    89    25    24    1
    90    13     3   am
    91   145   142    1
    92   145   146    1
    93   143   142    1
    94    37    36    1
    95    37    38    1
    96   142   141    1
    97   140   139    1
    98    38    39    2
    99    29    30   ar
   100    29    31   ar
   101     3     4    2
   102     3     2    1
   103     8    10   ar
   104     8     6   ar
   105    30    32   ar
   106    31    33   ar
   107    10    11   ar
   108   124   125    1
   109     1     2    1
   110    52    51    1
   111   139   138    1
   112     2     5    1
   113   138   137    1
   114     5     6    1
   115     6     7   ar
   116    32    34   ar
   117    11    12    1
   118    11     9   ar
   119    33    34   ar
   120    51    50    1
   121   136   135    2
   122   125   128    1
   123   125   126    1
   124   128   129    1
   125    34    35    1
   126    49    50    1
   127    49    46    1
   128   127   126    2
   129     7     9   ar
   130   131   130   ar
   131   137   134    1
   132    47    46    1
   133    47    48    2
   134   134   135    1
   135   134   133    1
   136    45    46    1
   137   129   130    1
   138   130   132   ar
