@<TRIPOS>MOLECULE
tmp/4ikpD00.pdb
 225 216 0 0 0
SMALL
GASTEIGER

@<TRIPOS>ATOM
      1  N          2.6130   13.8520   82.0140 N.3     7  TYR7       -0.1227
      2  CA         3.9120   13.9720   81.3450 C.3     7  TYR7        0.1736
      3  C          3.9490   13.1580   80.0420 C.2     7  TYR7        0.2595
      4  O          4.2920   13.6920   78.9850 O.2     7  TYR7       -0.2718
      5  CB         5.0570   13.5840   82.2900 C.3     7  TYR7        0.0548
      6  CG         6.4270   13.5410   81.6410 C.ar    7  TYR7       -0.0200
      7  CD1        6.8830   12.3780   81.0240 C.ar    7  TYR7       -0.0009
      8  CD2        7.2660   14.6570   81.6480 C.ar    7  TYR7       -0.0009
      9  CE1        8.1270   12.3220   80.4220 C.ar    7  TYR7        0.0417
     10  CE2        8.5190   14.6100   81.0520 C.ar    7  TYR7        0.0417
     11  CZ         8.9410   13.4380   80.4370 C.ar    7  TYR7        0.1957
     12  OH        10.1770   13.3600   79.8310 O.3     7  TYR7       -0.2866
     13  N          3.5760   11.8800   80.1130 N.am    8  PHE8       -0.1976
     14  CA         3.5700   11.0250   78.9210 C.3     8  PHE8        0.1639
     15  C          2.4380   11.3390   77.9310 C.2     8  PHE8        0.2290
     16  O          2.6070   11.1310   76.7290 O.2     8  PHE8       -0.2864
     17  CB         3.6440    9.5330   79.2870 C.3     8  PHE8        0.0560
     18  CG         4.9430    9.1390   79.9460 C.ar    8  PHE8       -0.0200
     19  CD1        4.9600    8.6500   81.2450 C.ar    8  PHE8       -0.0042
     20  CD2        6.1510    9.2870   79.2770 C.ar    8  PHE8       -0.0042
     21  CE1        6.1550    8.3020   81.8600 C.ar    8  PHE8       -0.0003
     22  CE2        7.3530    8.9440   79.8850 C.ar    8  PHE8       -0.0003
     23  CZ         7.3550    8.4480   81.1800 C.ar    8  PHE8       -0.0000
     24  N          3.8440   14.0910   75.6150 N.3    11  TYR11      -0.1241
     25  CA         4.7630   13.6650   74.5600 C.3    11  TYR11       0.1605
     26  C          4.1220   12.7620   73.5080 C.2    11  TYR11       0.2264
     27  O          4.7150   12.4870   72.4640 O.2    11  TYR11      -0.2867
     28  CB         6.0390   13.0810   75.1500 C.3    11  TYR11       0.0534
     29  CG         6.9420   14.1600   75.6820 C.ar   11  TYR11      -0.0201
     30  CD1        7.6390   14.9970   74.8130 C.ar   11  TYR11      -0.0009
     31  CD2        7.0870   14.3650   77.0550 C.ar   11  TYR11      -0.0009
     32  CE1        8.4640   16.0020   75.2910 C.ar   11  TYR11       0.0417
     33  CE2        7.9180   15.3640   77.5460 C.ar   11  TYR11       0.0417
     34  CZ         8.6020   16.1780   76.6540 C.ar   11  TYR11       0.1957
     35  OH         9.4230   17.1700   77.1110 O.3    11  TYR11      -0.2866
     36  N          6.3860   16.5980   69.6010 N.3    17  GLN17      -0.1245
     37  CA         7.5890   16.0090   69.0180 C.3    17  GLN17       0.1566
     38  C          8.1390   16.9330   67.9270 C.2    17  GLN17       0.2260
     39  O          9.3470   17.1710   67.8480 O.2    17  GLN17      -0.2867
     40  CB         7.3240   14.6010   68.4670 C.3    17  GLN17       0.0367
     41  CG         6.8370   13.5990   69.5060 C.3    17  GLN17       0.0905
     42  CD         7.8710   13.2500   70.5710 C.2    17  GLN17       0.2608
     43  OE1        9.0930   13.3670   70.3540 O.2    17  GLN17      -0.2717
     44  NE2        7.3830   12.8050   71.7390 N.am   17  GLN17      -0.0878
     45  N         10.1850   19.9130   69.1740 N.3    20  MET20      -0.1230
     46  CA        11.5790   19.6140   69.4870 C.3    20  MET20       0.1702
     47  C         12.3770   19.2620   68.2440 C.2    20  MET20       0.2592
     48  O         13.5400   19.6620   68.1180 O.2    20  MET20      -0.2718
     49  CB        11.6640   18.4820   70.4970 C.3    20  MET20       0.0401
     50  CG        11.0710   18.8520   71.8420 C.3    20  MET20       0.0596
     51  SD        11.0060   17.4060   72.8960 S.3    20  MET20      -0.1393
     52  CE         9.9680   16.2920   71.9490 C.3    20  MET20       0.0692
     53  N         11.7610   18.5010   67.3350 N.am   21  MET21      -0.1979
     54  CA        12.4010   18.1730   66.0520 C.3    21  MET21       0.1605
     55  C         12.8310   19.4440   65.3030 C.2    21  MET21       0.2287
     56  O         13.9560   19.5220   64.7940 O.2    21  MET21      -0.2864
     57  CB        11.4820   17.3030   65.1760 C.3    21  MET21       0.0413
     58  CG        11.3060   15.8680   65.6740 C.3    21  MET21       0.0598
     59  SD         9.8080   15.0590   65.0370 S.3    21  MET21      -0.1393
     60  CE        10.3770   14.5260   63.4260 C.3    21  MET21       0.0692
     61  N         19.2080   22.0010   68.3370 N.3    26  ARG26      -0.1245
     62  CA        19.1170   20.7630   69.1070 C.3    26  ARG26       0.1563
     63  C         19.2740   19.5370   68.2010 C.2    26  ARG26       0.2260
     64  O         20.1700   18.7100   68.3940 O.2    26  ARG26      -0.2867
     65  CB        17.7740   20.6990   69.8480 C.3    26  ARG26       0.0307
     66  CG        17.6040   19.5180   70.7950 C.3    26  ARG26       0.0489
     67  CD        16.1270   19.2330   71.0460 C.3    26  ARG26       0.2205
     68  NE        15.5730   18.4720   69.9320 N.pl3  26  ARG26      -0.0865
     69  CZ        15.2060   17.1970   70.0000 C.cat  26  ARG26       0.5346
     70  NH1       15.2810   16.5390   71.1530 N.pl3  26  ARG26       0.1354
     71  NH2       14.7380   16.5850   68.9140 N.pl3  26  ARG26       0.1354
     72  N         18.2180    4.0210   72.5720 N.3    48  ASP48      -0.1225
     73  CA        17.6410    5.3660   72.5270 C.3    48  ASP48       0.1805
     74  C         16.6260    5.4760   73.6550 C.2    48  ASP48       0.2598
     75  O         15.5380    4.8870   73.5870 O.2    48  ASP48      -0.2718
     76  CB        16.9730    5.6260   71.1660 C.3    48  ASP48       0.1424
     77  CG        16.4380    7.0630   71.0090 C.2    48  ASP48       0.3668
     78  OD1       16.0100    7.3930   69.8850 O.co2  48  ASP48      -0.2456
     79  OD2       16.4270    7.8610   71.9770 O.co2  48  ASP48      -0.2456
     80  N         16.9920    6.2210   74.6970 N.am   49  VAL49      -0.1966
     81  CA        16.1280    6.3600   75.8650 C.3    49  VAL49       0.1727
     82  C         15.1210    7.4560   75.6030 C.2    49  VAL49       0.2617
     83  O         15.4820    8.6360   75.5280 O.2    49  VAL49      -0.2715
     84  CB        16.9100    6.6990   77.1470 C.3    49  VAL49       0.0290
     85  CG1       15.9650    6.7400   78.3390 C.3    49  VAL49       0.0023
     86  CG2       18.0270    5.6910   77.3770 C.3    49  VAL49       0.0023
     87  N         13.8560    7.0610   75.4900 N.am   50  GLY50      -0.1940
     88  CA        12.7880    7.9930   75.1840 C.3    50  GLY50       0.2014
     89  C         12.9010    8.5130   73.7690 C.2    50  GLY50       0.2639
     90  O         13.1500    9.7090   73.5570 O.2    50  GLY50      -0.2714
     91  N         12.6950    7.6110   72.8070 N.am   51  CYS51      -0.1953
     92  CA        12.9520    7.8820   71.3840 C.3    51  CYS51       0.1843
     93  C         12.0050    8.8970   70.7280 C.2    51  CYS51       0.2626
     94  O         12.3200    9.4380   69.6620 O.2    51  CYS51      -0.2714
     95  CB        12.9520    6.5690   70.5730 C.3    51  CYS51       0.0997
     96  SG        11.3130    5.8510   70.2810 S.3    51  CYS51      -0.0797
     97  N         10.8520    9.1390   71.3510 N.am   52  GLY52      -0.1940
     98  CA         9.8380   10.0130   70.7720 C.3    52  GLY52       0.2014
     99  C          9.5260    9.5640   69.3580 C.2    52  GLY52       0.2639
    100  O          9.2130    8.3940   69.1320 O.2    52  GLY52      -0.2714
    101  N          9.6600   10.4870   68.4070 N.am   53  SER53      -0.1949
    102  CA         9.4640   10.2080   66.9820 C.3    53  SER53       0.1924
    103  C         10.4130    9.1350   66.4290 C.2    53  SER53       0.2314
    104  O         10.1210    8.5080   65.4080 O.2    53  SER53      -0.2863
    105  CB         9.6400   11.5000   66.1730 C.3    53  SER53       0.2116
    106  OG        11.0010   11.9240   66.2000 O.3    53  SER53      -0.2180
    107  N         13.7060    9.9790   66.0290 N.3    55  ILE55      -0.1231
    108  CA        14.6360   10.7870   65.2560 C.3    55  ILE55       0.1692
    109  C         16.1100   10.4750   65.5660 C.2    55  ILE55       0.2591
    110  O         16.9210   10.3250   64.6460 O.2    55  ILE55      -0.2718
    111  CB        14.2900   12.3120   65.3410 C.3    55  ILE55       0.0266
    112  CG1       15.1940   13.1490   64.4250 C.3    55  ILE55       0.0019
    113  CG2       14.2880   12.8330   66.7810 C.3    55  ILE55       0.0020
    114  CD1       14.9230   12.9550   62.9400 C.3    55  ILE55       0.0001
    115  N         16.4450   10.3440   66.8500 N.am   56  LEU56      -0.1980
    116  CA        17.8300   10.0690   67.2460 C.3    56  LEU56       0.1596
    117  C         18.2540    8.6460   66.8620 C.2    56  LEU56       0.2287
    118  O         19.4220    8.4060   66.5580 O.2    56  LEU56      -0.2864
    119  CB        18.0260   10.2920   68.7520 C.3    56  LEU56       0.0297
    120  CG        17.6590   11.6620   69.3220 C.3    56  LEU56       0.0022
    121  CD1       17.9640   11.6940   70.8080 C.3    56  LEU56       0.0001
    122  CD2       18.3950   12.7700   68.5930 C.3    56  LEU56       0.0001
    123  N         13.2480    2.9170   73.0840 N.3    71  VAL71      -0.1231
    124  CA        12.2420    2.8040   74.1380 C.3    71  VAL71       0.1692
    125  C         11.4430    4.0930   74.2380 C.2    71  VAL71       0.2592
    126  O         12.0270    5.1710   74.3070 O.2    71  VAL71      -0.2718
    127  CB        12.8820    2.4840   75.5100 C.3    71  VAL71       0.0266
    128  CG1       11.8140    2.1790   76.5450 C.3    71  VAL71       0.0020
    129  CG2       13.8550    1.3180   75.3980 C.3    71  VAL71       0.0020
    130  N         10.1140    3.9760   74.2420 N.am   72  GLU72      -0.1966
    131  CA         9.2340    5.1410   74.3340 C.3    72  GLU72       0.1733
    132  C          7.9980    4.8180   75.1540 C.2    72  GLU72       0.2616
    133  O          7.2500    3.8900   74.8280 O.2    72  GLU72      -0.2715
    134  CB         8.8460    5.6490   72.9360 C.3    72  GLU72       0.0429
    135  CG         7.8650    6.8200   72.9030 C.3    72  GLU72       0.1163
    136  CD         8.2850    8.0150   73.7530 C.2    72  GLU72       0.3649
    137  OE1        9.4340    8.4880   73.6330 O.co2  72  GLU72      -0.2457
    138  OE2        7.4430    8.4930   74.5390 O.co2  72  GLU72      -0.2457
    139  N          7.7790    5.5930   76.2100 N.am   73  ALA73      -0.1963
    140  CA         6.6970    5.3150   77.1520 C.3    73  ALA73       0.1728
    141  C          5.3450    5.8880   76.7290 C.2    73  ALA73       0.2616
    142  O          4.3050    5.3720   77.1260 O.2    73  ALA73      -0.2715
    143  CB         7.0730    5.7910   78.5450 C.3    73  ALA73       0.0334
    144  N          5.3620    6.9600   75.9360 N.am   74  SER74      -0.1950
    145  CA         4.1310    7.5660   75.4410 C.3    74  SER74       0.1924
    146  C          3.6000    6.7970   74.2300 C.2    74  SER74       0.2314
    147  O          4.3060    5.9590   73.6580 O.2    74  SER74      -0.2863
    148  CB         4.3580    9.0360   75.0670 C.3    74  SER74       0.2116
    149  OG         5.0290    9.1460   73.8250 O.3    74  SER74      -0.2180
    150  N          6.8620    1.5170   76.2830 N.3    98  GLY98      -0.1210
    151  CA         6.9530    1.4200   77.7290 C.3    98  GLY98       0.1956
    152  C          8.1320    2.1760   78.3090 C.2    98  GLY98       0.2612
    153  O          8.9910    2.6850   77.5820 O.2    98  GLY98      -0.2717
    154  N          8.1650    2.2360   79.6360 N.am   99  LYS99      -0.1965
    155  CA         9.1820    2.9780   80.3750 C.3    99  LYS99       0.1728
    156  C         10.5170    2.2440   80.4000 C.2    99  LYS99       0.2616
    157  O         10.5640    1.0120   80.4540 O.2    99  LYS99      -0.2715
    158  CB         8.6830    3.2650   81.7930 C.3    99  LYS99       0.0311
    159  CG         7.2440    3.7600   81.8170 C.3    99  LYS99       0.0038
    160  CD         6.8080    4.2060   83.1960 C.3    99  LYS99       0.0206
    161  CE         5.3510    4.6270   83.1690 C.3    99  LYS99       0.1093
    162  NZ         5.0040    5.4640   84.3480 N.3    99  LYS99      -0.1314
    163  N         11.6010    3.0070   80.3560 N.am  100  VAL100     -0.1963
    164  CA        12.9490    2.4410   80.2760 C.3   100  VAL100      0.1727
    165  C         13.3310    1.6370   81.5270 C.2   100  VAL100      0.2616
    166  O         14.1780    0.7460   81.4570 O.2   100  VAL100     -0.2715
    167  CB        14.0030    3.5340   79.9780 C.3   100  VAL100      0.0290
    168  CG1       14.1700    4.4720   81.1680 C.3   100  VAL100      0.0023
    169  CG2       15.3390    2.9170   79.5750 C.3   100  VAL100      0.0023
    170  N         12.7030    1.9530   82.6590 N.am  101  GLU101     -0.1977
    171  CA        12.9630    1.2500   83.9210 C.3   101  GLU101      0.1602
    172  C         12.0250    0.0530   84.1610 C.2   101  GLU101      0.2287
    173  O         12.1630   -0.6540   85.1600 O.2   101  GLU101     -0.2864
    174  CB        12.9670    2.2170   85.1270 C.3   101  GLU101      0.0415
    175  CG        11.8140    3.2080   85.2160 C.3   101  GLU101      0.1163
    176  CD        12.0060    4.4390   84.3330 C.2   101  GLU101      0.3649
    177  OE1       12.8650    5.2990   84.6410 O.co2 101  GLU101     -0.2457
    178  OE2       11.2820    4.5520   83.3240 O.co2 101  GLU101     -0.2457
    179  N         17.9690   12.4690   74.5170 N.3   115  GLU115     -0.1231
    180  CA        17.8190   13.8930   74.7790 C.3   115  GLU115      0.1684
    181  C         16.8600   14.0200   75.9680 C.2   115  GLU115      0.2434
    182  O         15.6440   14.0550   75.7950 O.2   115  GLU115     -0.2733
    183  CB        17.3350   14.6420   73.5290 C.3   115  GLU115      0.0402
    184  CG        17.4790   16.1570   73.6180 C.3   115  GLU115      0.1161
    185  CD        16.3400   16.7850   74.4050 C.2   115  GLU115      0.3649
    186  OE1       15.2820   17.0690   73.7990 O.co2 115  GLU115     -0.2457
    187  OE2       16.5010   16.9810   75.6330 O.co2 115  GLU115     -0.2457
    188  N         17.4160   14.0220   77.1930 N.am  116  PRO116     -0.2718
    189  CA        16.5900   14.0480   78.3830 C.3   116  PRO116      0.1535
    190  C         16.6350   15.3930   79.1370 C.2   116  PRO116      0.2598
    191  O         16.1790   15.4700   80.2770 O.2   116  PRO116     -0.2715
    192  CB        17.2150   12.9350   79.2280 C.3   116  PRO116      0.0310
    193  CG        18.6740   12.9530   78.8480 C.3   116  PRO116      0.0237
    194  CD        18.8120   13.7020   77.5350 C.3   116  PRO116      0.0939
    195  N         17.1730   16.4350   78.5070 N.am  117  MET117     -0.1978
    196  CA        17.3120   17.7450   79.1630 C.3   117  MET117      0.1605
    197  C         16.0130   18.5320   79.2490 C.2   117  MET117      0.2287
    198  O         15.2100   18.5270   78.3220 O.2   117  MET117     -0.2864
    199  CB        18.3740   18.5930   78.4700 C.3   117  MET117      0.0413
    200  CG        19.7790   17.9870   78.4900 C.3   117  MET117      0.0598
    201  SD        20.1250   16.8780   77.0970 S.3   117  MET117     -0.1393
    202  CE        20.3710   18.0980   75.8040 C.3   117  MET117      0.0692
    203  N         11.7650   18.1620   84.4460 N.3   124  GLU124     -0.1245
    204  CA        11.1370   16.9270   83.9160 C.3   124  GLU124      0.1567
    205  C         11.7280   15.6460   84.5060 C.2   124  GLU124      0.2260
    206  O         11.1420   14.5660   84.3750 O.2   124  GLU124     -0.2867
    207  CB        11.1560   16.8640   82.3840 C.3   124  GLU124      0.0388
    208  CG        10.4060   17.9890   81.6900 C.3   124  GLU124      0.1160
    209  CD        10.5940   17.9500   80.1830 C.2   124  GLU124      0.3649
    210  OE1       10.3260   16.8860   79.5760 O.co2 124  GLU124     -0.2457
    211  OE2       11.0210   18.9770   79.6130 O.co2 124  GLU124     -0.2457
    212  N         13.9620   13.6750   83.6200 N.3   126  MET126     -0.1245
    213  CA        14.2400   12.5880   82.6950 C.3   126  MET126      0.1570
    214  C         15.7100   12.1230   82.7350 C.2   126  MET126      0.2261
    215  O         16.0150   10.9980   82.3250 O.2   126  MET126     -0.2867
    216  CB        13.8310   12.9520   81.2640 C.3   126  MET126      0.0387
    217  CG        13.8370   11.7470   80.3240 C.3   126  MET126      0.0595
    218  SD        13.3840   12.1390   78.6270 S.3   126  MET126     -0.1393
    219  CE        14.2670   10.8330   77.7770 C.3   126  MET126      0.0692
    220  N         15.9900    8.7820   84.3780 N.3   129  SER129     -0.1217
    221  CA        15.7120    7.6350   83.5190 C.3   129  SER129      0.1889
    222  C         16.9230    7.3310   82.6480 C.2   129  SER129      0.2288
    223  O         17.2550    6.1650   82.4170 O.2   129  SER129     -0.2866
    224  CB        14.4850    7.8950   82.6560 C.3   129  SER129      0.2089
    225  OG        13.3300    8.0400   83.4590 O.3   129  SER129     -0.2183
@<TRIPOS>BOND
     1   114   112    1
     2    60    59    1
     3   112   111    1
     4   110   109    2
     5    56    55    2
     6    59    58    1
     7    57    58    1
     8    57    54    1
     9   108   111    1
    10   108   109    1
    11   108   107    1
    12    55    54    1
    13   111   113    1
    14   104   103    2
    15   109   115   am
    16    54    53    1
    17   105   106    1
    18   105   102    1
    19   103   102    1
    20   118   117    2
    21   115   116    1
    22   117   116    1
    23   102   101    1
    24   116   119    1
    25    53    47   am
    26    39    38    2
    27    38    37    1
    28    48    47    2
    29    63    64    2
    30    63    62    1
    31    47    46    1
    32    61    62    1
    33   101    99   am
    34    40    37    1
    35    40    41    1
    36   122   120    1
    37   119   120    1
    38    71    69    1
    39    37    36    1
    40    62    65    1
    41   100    99    2
    42    45    46    1
    43   120   121    1
    44    99    98    1
    45    46    49    1
    46    41    42    1
    47    94    93    2
    48    65    66    1
    49    78    77   ar
    50    68    69    2
    51    68    67    1
    52    69    70    1
    53    96    95    1
    54    43    42    2
    55    49    50    1
    56    42    44   am
    57    95    92    1
    58    93    97   am
    59    93    92    1
    60    98    97    1
    61    66    67    1
    62    77    76    1
    63    77    79   ar
    64    76    73    1
    65    92    91    1
    66    50    51    1
    67    52    51    1
    68    27    26    2
    69    73    72    1
    70    73    74    1
    71    91    89   am
    72   135   134    1
    73   135   136    1
    74   134   131    1
    75   123   124    1
    76    26    25    1
    77   183   184    1
    78   183   180    1
    79    90    89    2
    80    75    74    2
    81   184   185    1
    82   137   136   ar
    83    74    80   am
    84   147   146    2
    85   136   138   ar
    86    89    88    1
    87   186   185   ar
    88   149   148    1
    89   124   125    1
    90   124   127    1
    91   146   145    1
    92   125   130   am
    93   125   126    2
    94   130   131    1
    95   131   132    1
    96   185   187   ar
    97   179   180    1
    98    25    28    1
    99    25    24    1
   100    80    81    1
   101   180   181    1
   102    30    32   ar
   103    30    29   ar
   104   133   132    2
   105   148   145    1
   106    28    29    1
   107   132   139   am
   108    88    87    1
   109    32    34   ar
   110   129   127    1
   111   145   144    1
   112    87    82   am
   113   127   128    1
   114    83    82    2
   115    82    81    1
   116    29    31   ar
   117   182   181    2
   118   202   201    1
   119    81    84    1
   120   144   141   am
   121   181   188   am
   122   139   140    1
   123   150   151    1
   124    34    35    1
   125    34    33   ar
   126   141   142    2
   127   141   140    1
   128    16    15    2
   129    31    33   ar
   130   201   200    1
   131    84    86    1
   132    84    85    1
   133   140   143    1
   134   188   194    1
   135   188   189    1
   136   194   193    1
   137   153   152    2
   138   151   152    1
   139   219   218    1
   140    15    14    1
   141   152   154   am
   142   198   197    2
   143   189   190    1
   144   189   192    1
   145   199   200    1
   146   199   196    1
   147   195   190   am
   148   195   196    1
   149   218   217    1
   150   193   192    1
   151    14    17    1
   152    14    13    1
   153     4     3    2
   154   190   191    2
   155   196   197    1
   156    20    22   ar
   157    20    18   ar
   158    17    18    1
   159   169   167    1
   160   210   209   ar
   161   211   209   ar
   162   154   155    1
   163    12    11    1
   164    22    23   ar
   165    18    19   ar
   166   167   164    1
   167   167   168    1
   168     3    13   am
   169     3     2    1
   170   209   208    1
   171   164   163    1
   172   164   165    1
   173   217   216    1
   174   163   156   am
   175   155   156    1
   176   155   158    1
   177   156   157    2
   178     9    11   ar
   179     9     7   ar
   180    11    10   ar
   181     7     6   ar
   182    10     8   ar
   183    23    21   ar
   184    19    21   ar
   185   216   213    1
   186     2     1    1
   187     2     5    1
   188   166   165    2
   189   165   170   am
   190     6     8   ar
   191     6     5    1
   192   208   207    1
   193   158   159    1
   194   159   160    1
   195   215   214    2
   196   207   204    1
   197   223   222    2
   198   222   221    1
   199   224   225    1
   200   224   221    1
   201   170   171    1
   202   213   214    1
   203   213   212    1
   204   161   160    1
   205   161   162    1
   206   178   176   ar
   207   221   220    1
   208   204   203    1
   209   204   205    1
   210   171   172    1
   211   171   174    1
   212   172   173    2
   213   176   177   ar
   214   176   175    1
   215   206   205    2
   216   174   175    1
