@<TRIPOS>MOLECULE
tmp/4ikrA00.pdb
 165 163 0 0 0
SMALL
GASTEIGER

@<TRIPOS>ATOM
      1  N          5.1550   -6.0350   24.2270 N.3    39  GLU39      -0.1231
      2  CA         3.7950   -5.5200   24.0820 C.3    39  GLU39       0.1699
      3  C          2.9040   -6.1070   25.1660 C.2    39  GLU39       0.2592
      4  O          2.1620   -5.3820   25.8320 O.2    39  GLU39      -0.2718
      5  CB         3.2260   -5.7960   22.6830 C.3    39  GLU39       0.0402
      6  CG         3.8260   -4.8840   21.6180 C.3    39  GLU39       0.1161
      7  CD         3.2740   -5.1320   20.2170 C.2    39  GLU39       0.3649
      8  OE1        2.2940   -5.8920   20.0680 O.co2  39  GLU39      -0.2457
      9  OE2        3.8340   -4.5590   19.2560 O.co2  39  GLU39      -0.2457
     10  N          3.0030   -7.4160   25.3680 N.am   40  GLN40      -0.1979
     11  CA         2.1390   -8.0710   26.3350 C.3    40  GLN40       0.1601
     12  C          2.2930   -7.5330   27.7550 C.2    40  GLN40       0.2287
     13  O          1.2950   -7.4010   28.4640 O.2    40  GLN40      -0.2864
     14  CB         2.2990   -9.5770   26.2700 C.3    40  GLN40       0.0394
     15  CG         1.5340  -10.1370   25.0970 C.3    40  GLN40       0.0908
     16  CD         1.8400  -11.5740   24.8460 C.2    40  GLN40       0.2608
     17  OE1        2.9470  -12.0430   25.1190 O.2    40  GLN40      -0.2717
     18  NE2        0.8640  -12.2950   24.3090 N.am   40  GLN40      -0.0878
     19  N         -0.1120   -4.6870   28.1140 N.3    43  LYS43      -0.1245
     20  CA        -1.5190   -4.9350   27.8080 C.3    43  LYS43       0.1561
     21  C         -2.4210   -4.3180   28.8820 C.2    43  LYS43       0.2260
     22  O         -2.1710   -4.4710   30.0850 O.2    43  LYS43      -0.2867
     23  CB        -1.7630   -6.4470   27.6820 C.3    43  LYS43       0.0271
     24  CG        -3.1960   -6.8490   27.3620 C.3    43  LYS43       0.0035
     25  CD        -3.3930   -8.3640   27.4790 C.3    43  LYS43       0.0206
     26  CE        -4.8810   -8.7050   27.5930 C.3    43  LYS43       0.1093
     27  NZ        -5.1690  -10.1550   27.3400 N.3    43  LYS43      -0.1314
     28  N          5.3500   -6.9860   10.0310 N.3   103  PRO103     -0.2116
     29  CA         4.2680   -7.9760   10.0650 C.3   103  PRO103      0.1372
     30  C          4.7270   -9.4390   10.0680 C.2   103  PRO103      0.2244
     31  O          3.9530  -10.2960   10.4900 O.2   103  PRO103     -0.2868
     32  CB         3.4530   -7.6580    8.7800 C.3   103  PRO103      0.0268
     33  CG         3.7880   -6.1980    8.4700 C.3   103  PRO103      0.0207
     34  CD         5.2830   -6.1640    8.7930 C.3   103  PRO103      0.0892
     35  N          4.5350  -11.6540   13.1390 N.3   106  TYR106     -0.1227
     36  CA         3.8500  -10.9390   14.1970 C.3   106  TYR106      0.1736
     37  C          2.5940  -11.7240   14.4850 C.2   106  TYR106      0.2595
     38  O          1.6770  -11.8000   13.6410 O.2   106  TYR106     -0.2718
     39  CB         3.5520   -9.4980   13.8060 C.3   106  TYR106      0.0548
     40  CG         2.9750   -8.6370   14.8900 C.ar  106  TYR106     -0.0200
     41  CD1        3.6790   -8.3860   16.0890 C.ar  106  TYR106     -0.0009
     42  CD2        1.7330   -8.0650   14.7320 C.ar  106  TYR106     -0.0009
     43  CE1        3.1240   -7.5560   17.0830 C.ar  106  TYR106      0.0417
     44  CE2        1.1710   -7.2390   15.7130 C.ar  106  TYR106      0.0417
     45  CZ         1.8630   -6.9920   16.8740 C.ar  106  TYR106      0.1957
     46  OH         1.2840   -6.1790   17.8120 O.3   106  TYR106     -0.2866
     47  N          2.5940  -12.3760   15.6490 N.am  107  TYR107     -0.1976
     48  CA         1.5000  -13.3010   16.0150 C.3   107  TYR107      0.1639
     49  C          1.2700  -14.3450   14.9040 C.2   107  TYR107      0.2290
     50  O          0.1230  -14.7230   14.6110 O.2   107  TYR107     -0.2864
     51  CB         0.2250  -12.5120   16.4330 C.3   107  TYR107      0.0560
     52  CG         0.4750  -11.8200   17.7460 C.ar  107  TYR107     -0.0198
     53  CD1        1.1010  -10.5760   17.7910 C.ar  107  TYR107     -0.0009
     54  CD2        0.1780  -12.4610   18.9680 C.ar  107  TYR107     -0.0009
     55  CE1        1.4080   -9.9690   18.9970 C.ar  107  TYR107      0.0417
     56  CE2        0.4820  -11.8490   20.2000 C.ar  107  TYR107      0.0417
     57  CZ         1.0760  -10.6050   20.1990 C.ar  107  TYR107      0.1957
     58  OH         1.3970   -9.9770   21.3790 O.3   107  TYR107     -0.2866
     59  N          1.5820  -14.0690   11.7460 N.3   109  PHE109     -0.1241
     60  CA         1.2110  -13.5520   10.4160 C.3   109  PHE109      0.1605
     61  C          2.2840  -14.0410    9.4310 C.2   109  PHE109      0.2264
     62  O          3.4930  -13.9210    9.7200 O.2   109  PHE109     -0.2867
     63  CB         1.1160  -12.0170   10.4370 C.3   109  PHE109      0.0534
     64  CG         0.5610  -11.4510    9.1590 C.ar  109  PHE109     -0.0203
     65  CD1       -0.8110  -11.4870    8.9180 C.ar  109  PHE109     -0.0042
     66  CD2        1.4210  -10.9780    8.1600 C.ar  109  PHE109     -0.0042
     67  CE1       -1.3380  -10.9910    7.6880 C.ar  109  PHE109     -0.0003
     68  CE2        0.9120  -10.5180    6.9470 C.ar  109  PHE109     -0.0003
     69  CZ        -0.4840  -10.5180    6.7350 C.ar  109  PHE109     -0.0000
     70  N          0.4830   -6.4630    4.4570 N.3   114  CYS114     -0.1235
     71  CA        -0.9300   -6.8950    4.2820 C.3   114  CYS114      0.1677
     72  C         -1.4770   -6.3030    2.9880 C.2   114  CYS114      0.2270
     73  O         -1.3560   -5.0860    2.7440 O.2   114  CYS114     -0.2867
     74  CB        -1.8010   -6.4310    5.4400 C.3   114  CYS114      0.0956
     75  SG        -1.2280   -6.9780    7.0600 S.3   114  CYS114     -0.0801
     76  N         -5.6730   -6.6730    6.9130 N.3   123  HIS123     -0.1241
     77  CA        -5.0000   -7.9330    7.2150 C.3   123  HIS123      0.1621
     78  C         -5.1190   -9.0520    6.1970 C.2   123  HIS123      0.2264
     79  O         -4.9450  -10.2360    6.5380 O.2   123  HIS123     -0.2867
     80  CB        -5.3920   -8.4200    8.6030 C.3   123  HIS123      0.0745
     81  CG        -5.0100   -7.4480    9.6650 C.ar  123  HIS123      0.0817
     82  ND1       -5.5950   -7.4080   10.9110 N.ar  123  HIS123     -0.2268
     83  CD2       -4.0760   -6.4660    9.6500 C.ar  123  HIS123      0.1154
     84  CE1       -5.0560   -6.4250   11.6090 C.ar  123  HIS123      0.1986
     85  NE2       -4.1440   -5.8270   10.8550 N.ar  123  HIS123     -0.2212
     86  N         -0.4350   -2.3790    3.3210 N.3   140  ASP140     -0.1239
     87  CA        -0.1170   -1.8000    4.6220 C.3   140  ASP140      0.1674
     88  C          1.2880   -2.2950    5.0000 C.2   140  ASP140      0.2266
     89  O          1.5380   -3.4890    5.0580 O.2   140  ASP140     -0.2867
     90  CB        -1.1880   -2.1730    5.6440 C.3   140  ASP140      0.1410
     91  CG        -1.0180   -1.4130    6.9580 C.2   140  ASP140      0.3668
     92  OD1        0.0290   -0.7510    7.1600 O.co2 140  ASP140     -0.2456
     93  OD2       -1.9420   -1.4570    7.7850 O.co2 140  ASP140     -0.2456
     94  N        -11.3540   -2.3950   14.3740 N.3   211  TYR211     -0.1227
     95  CA        -9.9300   -2.0890   14.1690 C.3   211  TYR211      0.1736
     96  C         -9.6790   -0.5860   14.3700 C.2   211  TYR211      0.2595
     97  O        -10.4360    0.2490   13.8950 O.2   211  TYR211     -0.2718
     98  CB        -9.4880   -2.5910   12.7710 C.3   211  TYR211      0.0548
     99  CG        -9.6180   -4.1090   12.6440 C.ar  211  TYR211     -0.0200
    100  CD1       -8.6260   -4.9660   13.1510 C.ar  211  TYR211     -0.0009
    101  CD2      -10.7600   -4.6830   12.0660 C.ar  211  TYR211     -0.0009
    102  CE1       -8.7610   -6.3760   13.0560 C.ar  211  TYR211      0.0417
    103  CE2      -10.9120   -6.0720   11.9680 C.ar  211  TYR211      0.0417
    104  CZ        -9.9160   -6.9190   12.4520 C.ar  211  TYR211      0.1957
    105  OH       -10.0970   -8.2930   12.3590 O.3   211  TYR211     -0.2866
    106  N         -8.5700   -0.2470   15.0290 N.am  212  CYS212     -0.1970
    107  CA        -8.2690    1.1490   15.3930 C.3   212  CYS212      0.1712
    108  C         -6.8230    1.5540   15.0740 C.2   212  CYS212      0.2296
    109  O         -5.9640    0.6870   14.8260 O.2   212  CYS212     -0.2864
    110  CB        -8.4910    1.3430   16.9080 C.3   212  CYS212      0.0983
    111  SG       -10.1520    0.8780   17.4370 S.3   212  CYS212     -0.0798
    112  N         -3.3000    3.3770   16.5040 N.3   214  HIS214     -0.1241
    113  CA        -2.5560    2.8770   17.6530 C.3   214  HIS214      0.1621
    114  C         -1.2580    3.6540   17.8590 C.2   214  HIS214      0.2264
    115  O         -0.6230    4.1300   16.9070 O.2   214  HIS214     -0.2867
    116  CB        -2.2140    1.3850   17.4370 C.3   214  HIS214      0.0745
    117  CG        -1.5060    1.1330   16.1410 C.ar  214  HIS214      0.0817
    118  ND1       -0.1330    1.0420   16.0300 N.ar  214  HIS214     -0.2268
    119  CD2       -1.9980    1.0330   14.8800 C.ar  214  HIS214      0.1154
    120  CE1        0.1920    0.8940   14.7510 C.ar  214  HIS214      0.1986
    121  NE2       -0.9250    0.8950   14.0350 N.ar  214  HIS214     -0.2212
    122  N          5.0650   -2.2550   18.1680 N.3   220  PHE220     -0.1227
    123  CA         4.3240   -2.1870   16.8750 C.3   220  PHE220      0.1736
    124  C          2.9410   -1.5790   17.1300 C.2   220  PHE220      0.2595
    125  O          2.5410   -0.6310   16.4640 O.2   220  PHE220     -0.2718
    126  CB         4.2710   -3.6030   16.2700 C.3   220  PHE220      0.0547
    127  CG         3.6920   -3.7080   14.8350 C.ar  220  PHE220     -0.0202
    128  CD1        3.1030   -2.6280   14.1740 C.ar  220  PHE220     -0.0042
    129  CD2        3.7370   -4.9420   14.1850 C.ar  220  PHE220     -0.0042
    130  CE1        2.5590   -2.7700   12.8610 C.ar  220  PHE220     -0.0003
    131  CE2        3.2020   -5.1080   12.8820 C.ar  220  PHE220     -0.0003
    132  CZ         2.6110   -4.0100   12.2340 C.ar  220  PHE220     -0.0000
    133  N          2.2270   -2.0960   18.1340 N.am  221  HIS221     -0.1975
    134  CA         0.9030   -1.6100   18.4970 C.3   221  HIS221      0.1656
    135  C          0.8990   -1.3950   20.0080 C.2   221  HIS221      0.2291
    136  O          1.1580   -2.3190   20.7600 O.2   221  HIS221     -0.2864
    137  CB        -0.1440   -2.6540   18.1250 C.3   221  HIS221      0.0771
    138  CG        -0.2160   -2.9120   16.6510 C.ar  221  HIS221      0.0820
    139  ND1        0.3680   -4.0080   16.0490 N.ar  221  HIS221     -0.2267
    140  CD2       -0.8070   -2.2060   15.6630 C.ar  221  HIS221      0.1154
    141  CE1        0.1410   -3.9560   14.7460 C.ar  221  HIS221      0.1986
    142  NE2       -0.5610   -2.8680   14.4870 N.ar  221  HIS221     -0.2212
    143  N         -5.7090    5.4980   10.9590 N.3   247  GLU247     -0.1245
    144  CA        -5.8180    4.5460    9.8260 C.3   247  GLU247      0.1567
    145  C         -7.2650    4.1260    9.4680 C.2   247  GLU247      0.2260
    146  O         -7.5830    2.9320    9.4770 O.2   247  GLU247     -0.2867
    147  CB        -4.9020    3.3300   10.0330 C.3   247  GLU247      0.0388
    148  CG        -5.1240    2.5570   11.3330 C.3   247  GLU247      0.1160
    149  CD        -4.0850    1.4680   11.5120 C.2   247  GLU247      0.3649
    150  OE1       -3.1330    1.7020   12.2830 O.co2 247  GLU247     -0.2457
    151  OE2       -4.2300    0.3800   10.8990 O.co2 247  GLU247     -0.2457
    152  N         -6.8910  -14.1350   10.0680 N.3   264  TRP264     -0.1241
    153  CA        -6.3670  -12.7780    9.7990 C.3   264  TRP264      0.1605
    154  C         -7.2880  -11.9110    8.9320 C.2   264  TRP264      0.2264
    155  O         -7.5510  -10.7280    9.2580 O.2   264  TRP264     -0.2867
    156  CB        -4.9850  -12.8520    9.1320 C.3   264  TRP264      0.0550
    157  CG        -3.8870  -13.1570   10.1560 C.ar  264  TRP264      0.0003
    158  CD1       -3.1600  -14.3230   10.2730 C.ar  264  TRP264      0.0946
    159  CD2       -3.5190  -12.3470   11.2670 C.ar  264  TRP264      0.0152
    160  NE1       -2.3020  -14.2380   11.3340 N.ar  264  TRP264     -0.2442
    161  CE2       -2.5090  -13.0410   11.9720 C.ar  264  TRP264      0.0810
    162  CE3       -3.9020  -11.0710   11.7090 C.ar  264  TRP264      0.0012
    163  CZ2       -1.8930  -12.5080   13.0950 C.ar  264  TRP264      0.0191
    164  CZ3       -3.2870  -10.5460   12.8530 C.ar  264  TRP264      0.0001
    165  CH2       -2.3010  -11.2610   13.5180 C.ar  264  TRP264      0.0015
@<TRIPOS>BOND
     1    73    72    2
     2    72    71    1
     3    86    87    1
     4    71    70    1
     5    71    74    1
     6    87    88    1
     7    87    90    1
     8    88    89    2
     9    74    75    1
    10    90    91    1
    11    78    79    2
    12    78    77    1
    13    69    68   ar
    14    69    67   ar
    15    76    77    1
    16    68    66   ar
    17    91    92   ar
    18    91    93   ar
    19    77    80    1
    20    67    65   ar
    21    66    64   ar
    22    33    32    1
    23    33    34    1
    24    80    81    1
    25    32    29    1
    26    34    28    1
    27    65    64   ar
    28   154   155    2
    29   154   153    1
    30   156   153    1
    31   156   157    1
    32    64    63    1
    33    61    62    2
    34    61    60    1
    35   145   146    2
    36   145   144    1
    37    83    81   ar
    38    83    85   ar
    39    81    82   ar
    40   153   152    1
    41   144   147    1
    42   144   143    1
    43    28    29    1
    44   147   148    1
    45    29    30    1
    46    30    31    2
    47   157   158   ar
    48   157   159   ar
    49   158   160   ar
    50    60    63    1
    51    60    59    1
    52    85    84   ar
    53   151   149   ar
    54    82    84   ar
    55   159   162   ar
    56   159   161   ar
    57   148   149    1
    58   160   161   ar
    59   149   150   ar
    60   162   164   ar
    61   103   101   ar
    62   103   104   ar
    63   161   163   ar
    64   101    99   ar
    65   132   130   ar
    66   132   131   ar
    67   105   104    1
    68   104   102   ar
    69    99    98    1
    70    99   100   ar
    71    98    95    1
    72   164   165   ar
    73   130   128   ar
    74   131   129   ar
    75   102   100   ar
    76   163   165   ar
    77    35    36    1
    78    38    37    2
    79    39    36    1
    80    39    40    1
    81    97    96    2
    82   121   120   ar
    83   121   119   ar
    84    95    96    1
    85    95    94    1
    86   128   127   ar
    87   129   127   ar
    88    36    37    1
    89    96   106   am
    90    37    47   am
    91   142   141   ar
    92   142   140   ar
    93    50    49    2
    94    42    40   ar
    95    42    44   ar
    96   141   139   ar
    97   120   118   ar
    98   109   108    2
    99   127   126    1
   100   119   117   ar
   101    40    41   ar
   102    49    48    1
   103   106   107    1
   104   108   107    1
   105   107   110    1
   106    47    48    1
   107   140   138   ar
   108    44    45   ar
   109    48    51    1
   110   118   117   ar
   111   139   138   ar
   112    41    43   ar
   113   117   116    1
   114   126   123    1
   115    51    52    1
   116   125   124    2
   117   112   113    1
   118   138   137    1
   119    45    43   ar
   120    45    46    1
   121   123   124    1
   122   123   122    1
   123   115   114    2
   124   110   111    1
   125   124   133   am
   126   116   113    1
   127   113   114    1
   128    52    53   ar
   129    52    54   ar
   130    53    55   ar
   131   137   134    1
   132   133   134    1
   133   134   135    1
   134    54    56   ar
   135    55    57   ar
   136     9     7   ar
   137   135   136    2
   138     8     7   ar
   139    57    56   ar
   140    57    58    1
   141     7     6    1
   142     6     5    1
   143     5     2    1
   144     2     1    1
   145     2     3    1
   146    18    16   am
   147    16    15    1
   148    16    17    2
   149    15    14    1
   150     3    10   am
   151     3     4    2
   152    10    11    1
   153    14    11    1
   154    11    12    1
   155    27    26    1
   156    24    25    1
   157    24    23    1
   158    25    26    1
   159    23    20    1
   160    12    13    2
   161    20    19    1
   162    20    21    1
   163    21    22    2
