@<TRIPOS>MOLECULE
tmp/4iksA00.pdb
 162 160 0 0 0
SMALL
GASTEIGER

@<TRIPOS>ATOM
      1  N         22.6790    5.9880   29.4080 N.3    39  GLU39      -0.1245
      2  CA        22.5840    5.5420   28.0120 C.3    39  GLU39       0.1567
      3  C         23.6850    6.1130   27.1420 C.2    39  GLU39       0.2260
      4  O         24.2490    5.4080   26.3170 O.2    39  GLU39      -0.2867
      5  CB        21.2260    5.8510   27.3990 C.3    39  GLU39       0.0388
      6  CG        20.1440    4.9780   27.9800 C.3    39  GLU39       0.1160
      7  CD        18.8070    5.1210   27.2960 C.2    39  GLU39       0.3649
      8  OE1       18.7140    5.8200   26.2550 O.co2  39  GLU39      -0.2457
      9  OE2       17.8430    4.5120   27.8210 O.co2  39  GLU39      -0.2457
     10  N         26.6050    4.5750   24.4640 N.3    43  LYS43      -0.1245
     11  CA        26.2590    4.8540   23.0700 C.3    43  LYS43       0.1561
     12  C         27.3100    4.2870   22.1170 C.2    43  LYS43       0.2260
     13  O         28.5090    4.5440   22.2660 O.2    43  LYS43      -0.2867
     14  CB        26.0750    6.3580   22.8270 C.3    43  LYS43       0.0271
     15  CG        25.3500    6.6840   21.5140 C.3    43  LYS43       0.0035
     16  CD        25.5830    8.1220   21.0640 C.3    43  LYS43       0.0206
     17  CE        24.9930    8.3580   19.6770 C.3    43  LYS43       0.1093
     18  NZ        25.2800    9.7290   19.1560 N.3    43  LYS43      -0.1314
     19  N          8.4300    7.0130   28.9530 N.3   103  PRO103     -0.2116
     20  CA         8.5130    8.0150   27.8580 C.3   103  PRO103      0.1372
     21  C          8.5190    9.4880   28.3080 C.2   103  PRO103      0.2244
     22  O          9.0350   10.3390   27.5690 O.2   103  PRO103     -0.2868
     23  CB         7.2870    7.7100   26.9970 C.3   103  PRO103      0.0268
     24  CG         6.9310    6.2560   27.3180 C.3   103  PRO103      0.0207
     25  CD         7.2230    6.1690   28.8070 C.3   103  PRO103      0.0892
     26  N         11.6690   11.7000   28.2720 N.3   106  TYR106     -0.1227
     27  CA        12.7660   10.9840   27.6370 C.3   106  TYR106      0.1736
     28  C         13.1210   11.7080   26.3570 C.2   106  TYR106      0.2595
     29  O         12.3330   11.7430   25.4110 O.2   106  TYR106     -0.2718
     30  CB        12.3420    9.5530   27.3370 C.3   106  TYR106      0.0548
     31  CG        13.4340    8.6740   26.7830 C.ar  106  TYR106     -0.0200
     32  CD1       14.5610    8.3690   27.5340 C.ar  106  TYR106     -0.0009
     33  CD2       13.3260    8.1420   25.5120 C.ar  106  TYR106     -0.0009
     34  CE1       15.5580    7.5470   27.0350 C.ar  106  TYR106      0.0417
     35  CE2       14.3120    7.2950   24.9960 C.ar  106  TYR106      0.0417
     36  CZ        15.4200    7.0070   25.7690 C.ar  106  TYR106      0.1957
     37  OH        16.3810    6.1740   25.2600 O.3   106  TYR106     -0.2866
     38  N         14.3070   12.3110   26.3470 N.am  107  TYR107     -0.1976
     39  CA        14.6830   13.2570   25.2820 C.3   107  TYR107      0.1639
     40  C         13.5620   14.2850   25.0010 C.2   107  TYR107      0.2290
     41  O         13.2700   14.6440   23.8500 O.2   107  TYR107     -0.2864
     42  CB        15.1690   12.4790   24.0550 C.3   107  TYR107      0.0560
     43  CG        16.4620   11.7960   24.3930 C.ar  107  TYR107     -0.0198
     44  CD1       16.4750   10.5310   24.9740 C.ar  107  TYR107     -0.0009
     45  CD2       17.6790   12.4460   24.1900 C.ar  107  TYR107     -0.0009
     46  CE1       17.6620    9.9150   25.3300 C.ar  107  TYR107      0.0417
     47  CE2       18.8740   11.8410   24.5420 C.ar  107  TYR107      0.0417
     48  CZ        18.8600   10.5820   25.1030 C.ar  107  TYR107      0.1957
     49  OH        20.0470    9.9950   25.4650 O.3   107  TYR107     -0.2866
     50  N         10.4170   14.0640   25.2300 N.3   109  PHE109     -0.1241
     51  CA         9.1200   13.5650   24.7890 C.3   109  PHE109      0.1605
     52  C          8.1030   14.0610   25.8290 C.2   109  PHE109      0.2264
     53  O          8.3330   13.8910   27.0300 O.2   109  PHE109     -0.2867
     54  CB         9.1310   12.0360   24.7000 C.3   109  PHE109      0.0534
     55  CG         7.8510   11.4620   24.1440 C.ar  109  PHE109     -0.0203
     56  CD1        7.6040   11.4640   22.7640 C.ar  109  PHE109     -0.0042
     57  CD2        6.8600   11.0100   25.0180 C.ar  109  PHE109     -0.0042
     58  CE1        6.3990   10.9520   22.2650 C.ar  109  PHE109     -0.0003
     59  CE2        5.6560   10.5280   24.5370 C.ar  109  PHE109     -0.0003
     60  CZ         5.4260   10.4950   23.1350 C.ar  109  PHE109     -0.0000
     61  N          3.1150    6.5210   23.9160 N.3   114  CYS114     -0.1235
     62  CA         2.9950    6.9370   22.5050 C.3   114  CYS114      0.1677
     63  C          1.7360    6.3130   21.9270 C.2   114  CYS114      0.2270
     64  O          1.4660    5.1120   22.1120 O.2   114  CYS114     -0.2867
     65  CB         4.1910    6.4560   21.6840 C.3   114  CYS114      0.0956
     66  SG         5.8060    6.9650   22.2890 S.3   114  CYS114     -0.0801
     67  N          5.7620    6.6550   17.8630 N.3   123  HIS123     -0.1241
     68  CA         6.0570    7.9230   18.5350 C.3   123  HIS123      0.1621
     69  C          5.0200    9.0290   18.3800 C.2   123  HIS123      0.2264
     70  O          5.3190   10.2060   18.5590 O.2   123  HIS123     -0.2867
     71  CB         7.5000    8.4020   18.2370 C.3   123  HIS123      0.0745
     72  CG         8.5300    7.4100   18.6510 C.ar  123  HIS123      0.0817
     73  ND1        9.8360    7.4380   18.2010 N.ar  123  HIS123     -0.2268
     74  CD2        8.4430    6.3460   19.4860 C.ar  123  HIS123      0.1154
     75  CE1       10.5040    6.4430   18.7500 C.ar  123  HIS123      0.1986
     76  NE2        9.6770    5.7520   19.5140 N.ar  123  HIS123     -0.2212
     77  N          1.9370    2.3930   22.9220 N.3   140  ASP140     -0.1239
     78  CA         3.2420    1.8690   23.3310 C.3   140  ASP140      0.1674
     79  C          3.5480    2.3660   24.7700 C.2   140  ASP140      0.2266
     80  O          3.6220    3.5850   25.0650 O.2   140  ASP140     -0.2867
     81  CB         4.3460    2.2570   22.3120 C.3   140  ASP140      0.1410
     82  CG         5.6360    1.4750   22.4980 C.2   140  ASP140      0.3668
     83  OD1        5.7820    0.8100   23.5340 O.co2 140  ASP140     -0.2456
     84  OD2        6.5370    1.5230   21.6030 O.co2 140  ASP140     -0.2456
     85  N         13.6970    2.4520    9.7040 N.3   210  SER210     -0.1202
     86  CA        14.3680    3.4640   10.5120 C.3   210  SER210      0.2020
     87  C         14.2930    3.2330   12.0090 C.2   210  SER210      0.2619
     88  O         14.9980    3.8890   12.7690 O.2   210  SER210     -0.2717
     89  CB        13.8020    4.8500   10.2170 C.3   210  SER210      0.2103
     90  OG        14.0070    5.2040    8.8590 O.3   210  SER210     -0.2182
     91  N         13.4160    2.3280   12.4160 N.am  211  TYR211     -0.1961
     92  CA        13.1590    2.0530   13.8340 C.3   211  TYR211      0.1771
     93  C         13.2730    0.5530   14.0490 C.2   211  TYR211      0.2619
     94  O         12.7620   -0.2270   13.2430 O.2   211  TYR211     -0.2715
     95  CB        11.7430    2.5420   14.2110 C.3   211  TYR211      0.0574
     96  CG        11.5720    4.0430   14.0320 C.ar  211  TYR211     -0.0198
     97  CD1       11.9730    4.9190   15.0410 C.ar  211  TYR211     -0.0009
     98  CD2       11.0450    4.5830   12.8510 C.ar  211  TYR211     -0.0009
     99  CE1       11.8570    6.2930   14.8950 C.ar  211  TYR211      0.0417
    100  CE2       10.9430    5.9640   12.6800 C.ar  211  TYR211      0.0417
    101  CZ        11.3600    6.8180   13.7120 C.ar  211  TYR211      0.1957
    102  OH        11.2610    8.1880   13.6130 O.3   211  TYR211     -0.2866
    103  N         13.8710    0.1810   15.1840 N.am  212  CYS212     -0.1968
    104  CA        14.2810   -1.1960   15.4900 C.3   212  CYS212      0.1712
    105  C         13.9310   -1.6160   16.9180 C.2   212  CYS212      0.2296
    106  O         13.6510   -0.7730   17.7530 O.2   212  CYS212     -0.2864
    107  CB        15.8060   -1.2950   15.3160 C.3   212  CYS212      0.0983
    108  SG        16.3210   -0.9240   13.6280 S.3   212  CYS212     -0.0798
    109  N         15.2230   -3.3360   20.5630 N.3   214  HIS214     -0.1241
    110  CA        16.3470   -2.8450   21.3300 C.3   214  HIS214      0.1621
    111  C         16.5250   -3.6300   22.6110 C.2   214  HIS214      0.2264
    112  O         15.5580   -4.1530   23.1970 O.2   214  HIS214     -0.2867
    113  CB        16.1360   -1.3590   21.6830 C.3   214  HIS214      0.0745
    114  CG        14.7830   -1.0800   22.2950 C.ar  214  HIS214      0.0817
    115  ND1       14.5650   -1.0470   23.6600 N.ar  214  HIS214     -0.2268
    116  CD2       13.5670   -0.9360   21.7140 C.ar  214  HIS214      0.1154
    117  CE1       13.2740   -0.8420   23.8880 C.ar  214  HIS214      0.1986
    118  NE2       12.6460   -0.7900   22.7220 N.ar  214  HIS214     -0.2212
    119  N         16.5410    2.2190   28.9600 N.3   220  PHE220     -0.1227
    120  CA        15.3180    2.1560   28.1200 C.3   220  PHE220      0.1736
    121  C         15.6830    1.5540   26.7560 C.2   220  PHE220      0.2595
    122  O         15.0920    0.5490   26.3320 O.2   220  PHE220     -0.2718
    123  CB        14.7170    3.5730   28.0280 C.3   220  PHE220      0.0547
    124  CG        13.3050    3.6660   27.4410 C.ar  220  PHE220     -0.0202
    125  CD1       12.6540    2.5660   26.8500 C.ar  220  PHE220     -0.0042
    126  CD2       12.6510    4.8950   27.4660 C.ar  220  PHE220     -0.0042
    127  CE1       11.3650    2.6960   26.2690 C.ar  220  PHE220     -0.0003
    128  CE2       11.3580    5.0450   26.8860 C.ar  220  PHE220     -0.0003
    129  CZ        10.7200    3.9330   26.2880 C.ar  220  PHE220     -0.0000
    130  N         16.7020    2.1060   26.0900 N.am  221  HIS221     -0.1975
    131  CA        17.1840    1.5690   24.8110 C.3   221  HIS221      0.1656
    132  C         18.6880    1.3690   24.8810 C.2   221  HIS221      0.2291
    133  O         19.4360    2.2960   25.1930 O.2   221  HIS221     -0.2864
    134  CB        16.8250    2.4850   23.6310 C.3   221  HIS221      0.0771
    135  CG        15.3700    2.8260   23.5650 C.ar  221  HIS221      0.0820
    136  ND1       14.8390    3.9110   24.2240 N.ar  221  HIS221     -0.2267
    137  CD2       14.3300    2.2020   22.9600 C.ar  221  HIS221      0.1154
    138  CE1       13.5370    3.9640   24.0020 C.ar  221  HIS221      0.1986
    139  NE2       13.1990    2.9360   23.2450 N.ar  221  HIS221     -0.2212
    140  N          9.7260   -5.4510   17.9380 N.3   247  GLU247     -0.1245
    141  CA         8.5960   -4.4990   17.8340 C.3   247  GLU247      0.1567
    142  C          8.3160   -4.0890   16.3890 C.2   247  GLU247      0.2260
    143  O          8.3800   -2.9230   16.0590 O.2   247  GLU247     -0.2867
    144  CB         8.8170   -3.2890   18.7300 C.3   247  GLU247      0.0388
    145  CG        10.1220   -2.5170   18.5090 C.3   247  GLU247      0.1160
    146  CD        10.2470   -1.3940   19.5200 C.2   247  GLU247      0.3649
    147  OE1       10.8750   -1.6540   20.5510 O.co2 247  GLU247     -0.2457
    148  OE2        9.6820   -0.2890   19.3030 O.co2 247  GLU247     -0.2457
    149  N          8.9950   14.1540   16.7410 N.3   264  TRP264     -0.1241
    150  CA         8.6990   12.7910   17.2190 C.3   264  TRP264      0.1605
    151  C          7.8380   11.9110   16.2930 C.2   264  TRP264      0.2264
    152  O          8.1740   10.7320   16.0550 O.2   264  TRP264     -0.2867
    153  CB         8.0680   12.8470   18.6290 C.3   264  TRP264      0.0550
    154  CG         9.0680   13.1620   19.7270 C.ar  264  TRP264      0.0003
    155  CD1        9.1630   14.3200   20.4460 C.ar  264  TRP264      0.0946
    156  CD2       10.1470   12.3240   20.1780 C.ar  264  TRP264      0.0152
    157  NE1       10.2100   14.2410   21.3410 N.ar  264  TRP264     -0.2442
    158  CE2       10.8210   13.0240   21.2020 C.ar  264  TRP264      0.0810
    159  CE3       10.5870   11.0330   19.8320 C.ar  264  TRP264      0.0012
    160  CZ2       11.9290   12.4900   21.8730 C.ar  264  TRP264      0.0191
    161  CZ3       11.6980   10.5010   20.4960 C.ar  264  TRP264      0.0001
    162  CH2       12.3480   11.2290   21.5070 C.ar  264  TRP264      0.0015
@<TRIPOS>BOND
     1    90    89    1
     2    85    86    1
     3    89    86    1
     4    86    87    1
     5    87    91   am
     6    87    88    2
     7    91    92    1
     8   100    98   ar
     9   100   101   ar
    10    98    96   ar
    11    94    93    2
    12   102   101    1
    13   108   107    1
    14   101    99   ar
    15    92    93    1
    16    92    95    1
    17    96    95    1
    18    96    97   ar
    19    93   103   am
    20    99    97   ar
    21   103   104    1
    22   107   104    1
    23   104   105    1
    24   152   151    2
    25   143   142    2
    26   151   150    1
    27   142   141    1
    28   149   150    1
    29   105   106    2
    30   150   153    1
    31   141   140    1
    32   141   144    1
    33    67    68    1
    34    73    72   ar
    35    73    75   ar
    36    71    68    1
    37    71    72    1
    38    69    68    1
    39    69    70    2
    40   145   144    1
    41   145   146    1
    42   153   154    1
    43    72    74   ar
    44    75    76   ar
    45    18    17    1
    46   148   146   ar
    47    74    76   ar
    48   146   147   ar
    49    17    16    1
    50   154   156   ar
    51   154   155   ar
    52   159   156   ar
    53   159   161   ar
    54   156   158   ar
    55   155   157   ar
    56   161   162   ar
    57   109   110    1
    58    16    15    1
    59   158   157   ar
    60   158   160   ar
    61   110   113    1
    62   110   111    1
    63   162   160   ar
    64    15    14    1
    65    84    82   ar
    66   113   114    1
    67    65    66    1
    68    65    62    1
    69   116   114   ar
    70   116   118   ar
    71    63    64    2
    72    63    62    1
    73    12    13    2
    74    12    11    1
    75    58    56   ar
    76    58    60   ar
    77   114   115   ar
    78    81    82    1
    79    81    78    1
    80    82    83   ar
    81    62    61    1
    82   111   112    2
    83   118   117   ar
    84    56    55   ar
    85    14    11    1
    86    77    78    1
    87   137   139   ar
    88   137   135   ar
    89    11    10    1
    90    60    59   ar
    91   139   138   ar
    92    78    79    1
    93   135   134    1
    94   135   136   ar
    95   134   131    1
    96   115   117   ar
    97    41    40    2
    98   138   136   ar
    99    42    43    1
   100    42    39    1
   101    55    54    1
   102    55    57   ar
   103    45    43   ar
   104    45    47   ar
   105    43    44   ar
   106    59    57   ar
   107    47    48   ar
   108    54    51    1
   109    79    80    2
   110    51    50    1
   111    51    52    1
   112   131   132    1
   113   131   130    1
   114   132   133    2
   115    44    46   ar
   116    35    33   ar
   117    35    36   ar
   118    40    39    1
   119    48    46   ar
   120    48    49    1
   121    37    36    1
   122    39    38    1
   123    29    28    2
   124    33    31   ar
   125    36    34   ar
   126    52    53    2
   127   130   121   am
   128     8     7   ar
   129   127   129   ar
   130   127   125   ar
   131   129   128   ar
   132     4     3    2
   133   122   121    2
   134    38    28   am
   135    28    27    1
   136   121   120    1
   137    31    30    1
   138    31    32   ar
   139   125   124   ar
   140   128   126   ar
   141    23    24    1
   142    23    20    1
   143    34    32   ar
   144     3     2    1
   145     7     9   ar
   146     7     6    1
   147    24    25    1
   148    30    27    1
   149     5     6    1
   150     5     2    1
   151   124   126   ar
   152   124   123    1
   153    22    21    2
   154    27    26    1
   155    20    21    1
   156    20    19    1
   157     2     1    1
   158   123   120    1
   159   120   119    1
   160    25    19    1
