@<TRIPOS>MOLECULE
tmp/4iktA00.pdb
 187 184 0 0 0
SMALL
GASTEIGER

@<TRIPOS>ATOM
      1  N         28.6890   -5.8360   24.2540 N.3    39  GLU39      -0.1245
      2  CA        27.2990   -5.3890   24.0710 C.3    39  GLU39       0.1567
      3  C         26.3640   -5.9580   25.1410 C.2    39  GLU39       0.2260
      4  O         25.5070   -5.2480   25.6650 O.2    39  GLU39      -0.2867
      5  CB        26.7720   -5.7130   22.6630 C.3    39  GLU39       0.0388
      6  CG        27.3040   -4.7670   21.5710 C.3    39  GLU39       0.1160
      7  CD        26.7280   -5.0130   20.1620 C.2    39  GLU39       0.3649
      8  OE1       25.7090   -5.7240   20.0080 O.co2  39  GLU39      -0.2457
      9  OE2       27.3090   -4.4590   19.1930 O.co2  39  GLU39      -0.2457
     10  N         23.5040   -4.5760   28.1010 N.3    43  LYS43      -0.1245
     11  CA        22.1090   -4.9060   27.8090 C.3    43  LYS43       0.1561
     12  C         21.1540   -4.2770   28.8210 C.2    43  LYS43       0.2260
     13  O         21.3270   -4.4330   30.0330 O.2    43  LYS43      -0.2867
     14  CB        21.9160   -6.4330   27.7770 C.3    43  LYS43       0.0271
     15  CG        20.4830   -6.8850   27.4720 C.3    43  LYS43       0.0035
     16  CD        20.3440   -8.3990   27.4010 C.3    43  LYS43       0.0206
     17  CE        18.9450   -8.7830   26.9160 C.3    43  LYS43       0.1093
     18  NZ        18.8240  -10.2340   26.5740 N.3    43  LYS43      -0.1314
     19  N         20.7170   -1.1560   29.6140 N.3    45  THR45      -0.1218
     20  CA        21.1460    0.1710   30.0900 C.3    45  THR45       0.1862
     21  C         20.7690    1.2460   29.0650 C.2    45  THR45       0.2287
     22  O         20.7480    0.9880   27.8540 O.2    45  THR45      -0.2866
     23  CB        22.6720    0.2450   30.3580 C.3    45  THR45       0.1770
     24  OG1       23.3960    0.0630   29.1330 O.3    45  THR45      -0.2211
     25  CG2       23.1140   -0.8200   31.3750 C.3    45  THR45       0.0375
     26  N         28.7050   -6.9500    9.9500 N.3   103  PRO103     -0.2116
     27  CA        27.6160   -7.9470    9.9730 C.3   103  PRO103      0.1372
     28  C         28.0990   -9.3980   10.0120 C.2   103  PRO103      0.2244
     29  O         27.3560  -10.2690   10.4790 O.2   103  PRO103     -0.2868
     30  CB        26.8440   -7.6620    8.6770 C.3   103  PRO103      0.0268
     31  CG        27.1530   -6.2210    8.3550 C.3   103  PRO103      0.0207
     32  CD        28.6020   -6.1030    8.7360 C.3   103  PRO103      0.0892
     33  N         27.9620  -11.5680   13.1500 N.3   106  TYR106     -0.1227
     34  CA        27.1950  -10.8700   14.1710 C.3   106  TYR106      0.1736
     35  C         25.9230  -11.6540   14.4830 C.2   106  TYR106      0.2595
     36  O         25.0160  -11.7380   13.6700 O.2   106  TYR106     -0.2718
     37  CB        26.8520   -9.4520   13.7020 C.3   106  TYR106      0.0548
     38  CG        26.2960   -8.5760   14.7900 C.ar  106  TYR106     -0.0200
     39  CD1       27.0510   -8.2740   15.9150 C.ar  106  TYR106     -0.0009
     40  CD2       25.0220   -8.0410   14.6880 C.ar  106  TYR106     -0.0009
     41  CE1       26.5470   -7.4360   16.9250 C.ar  106  TYR106      0.0417
     42  CE2       24.4990   -7.2090   15.6800 C.ar  106  TYR106      0.0417
     43  CZ        25.2650   -6.9100   16.7960 C.ar  106  TYR106      0.1957
     44  OH        24.7470   -6.0760   17.7670 O.3   106  TYR106     -0.2866
     45  N         25.8750  -12.2460   15.6760 N.am  107  TYR107     -0.1976
     46  CA        24.8060  -13.2150   16.0020 C.3   107  TYR107      0.1639
     47  C         24.6120  -14.2480   14.8860 C.2   107  TYR107      0.2290
     48  O         23.4790  -14.6160   14.5460 O.2   107  TYR107     -0.2864
     49  CB        23.5080  -12.4680   16.3540 C.3   107  TYR107      0.0560
     50  CG        23.7100  -11.7780   17.6600 C.ar  107  TYR107     -0.0198
     51  CD1       24.2080  -10.4930   17.7030 C.ar  107  TYR107     -0.0009
     52  CD2       23.5030  -12.4540   18.8740 C.ar  107  TYR107     -0.0009
     53  CE1       24.4570   -9.8530   18.9080 C.ar  107  TYR107      0.0417
     54  CE2       23.7570  -11.8220   20.1010 C.ar  107  TYR107      0.0417
     55  CZ        24.2280  -10.5190   20.1030 C.ar  107  TYR107      0.1957
     56  OH        24.4990   -9.8650   21.2780 O.3   107  TYR107     -0.2866
     57  N         24.9790  -13.9770   11.7350 N.3   109  PHE109     -0.1241
     58  CA        24.6020  -13.4840   10.4120 C.3   109  PHE109      0.1605
     59  C         25.6870  -13.9690    9.4430 C.2   109  PHE109      0.2264
     60  O         26.8910  -13.8160    9.7410 O.2   109  PHE109     -0.2867
     61  CB        24.4530  -11.9570   10.3860 C.3   109  PHE109      0.0534
     62  CG        23.9100  -11.4420    9.0850 C.ar  109  PHE109     -0.0203
     63  CD1       22.5440  -11.5240    8.7940 C.ar  109  PHE109     -0.0042
     64  CD2       24.7840  -10.9360    8.1080 C.ar  109  PHE109     -0.0042
     65  CE1       22.0450  -11.0590    7.5930 C.ar  109  PHE109     -0.0003
     66  CE2       24.2960  -10.4870    6.8840 C.ar  109  PHE109     -0.0003
     67  CZ        22.9010  -10.5590    6.6290 C.ar  109  PHE109     -0.0000
     68  N         23.9390   -6.5160    4.4430 N.3   114  CYS114     -0.1235
     69  CA        22.5440   -6.9020    4.2230 C.3   114  CYS114      0.1677
     70  C         21.9830   -6.3360    2.9200 C.2   114  CYS114      0.2270
     71  O         22.1180   -5.1320    2.6590 O.2   114  CYS114     -0.2867
     72  CB        21.6620   -6.4260    5.3820 C.3   114  CYS114      0.0956
     73  SG        22.2300   -7.0130    6.9650 S.3   114  CYS114     -0.0801
     74  N         17.7840   -6.6830    6.7330 N.3   123  HIS123     -0.1241
     75  CA        18.4490   -7.9340    7.0880 C.3   123  HIS123      0.1621
     76  C         18.3270   -9.0500    6.0580 C.2   123  HIS123      0.2264
     77  O         18.5390  -10.2070    6.3540 O.2   123  HIS123     -0.2867
     78  CB        18.1020   -8.3890    8.5240 C.3   123  HIS123      0.0745
     79  CG        18.4740   -7.3830    9.5700 C.ar  123  HIS123      0.0817
     80  ND1       17.9260   -7.3630   10.8380 N.ar  123  HIS123     -0.2268
     81  CD2       19.3090   -6.3200    9.5080 C.ar  123  HIS123      0.1154
     82  CE1       18.4460   -6.3600   11.5210 C.ar  123  HIS123      0.1986
     83  NE2       19.2760   -5.7040   10.7320 N.ar  123  HIS123     -0.2212
     84  N         22.9840   -2.4180    3.1730 N.3   140  ASP140     -0.1239
     85  CA        23.3380   -1.8590    4.4770 C.3   140  ASP140      0.1674
     86  C         24.7470   -2.3490    4.8490 C.2   140  ASP140      0.2266
     87  O         25.0250   -3.5550    4.9100 O.2   140  ASP140     -0.2867
     88  CB        22.2800   -2.2380    5.5210 C.3   140  ASP140      0.1410
     89  CG        22.4290   -1.4800    6.8140 C.2   140  ASP140      0.3668
     90  OD1       23.4510   -0.7690    6.9750 O.co2 140  ASP140     -0.2456
     91  OD2       21.5050   -1.5730    7.6830 O.co2 140  ASP140     -0.2456
     92  N         12.0580   -2.3640   14.2430 N.3   211  TYR211     -0.1227
     93  CA        13.4930   -2.0880   14.0390 C.3   211  TYR211      0.1736
     94  C         13.7030   -0.5870   14.1930 C.2   211  TYR211      0.2596
     95  O         12.9080    0.2040   13.6820 O.2   211  TYR211     -0.2718
     96  CB        13.9300   -2.5740   12.6460 C.3   211  TYR211      0.0548
     97  CG        13.7950   -4.0830   12.4880 C.ar  211  TYR211     -0.0200
     98  CD1       14.7920   -4.9320   12.9620 C.ar  211  TYR211     -0.0009
     99  CD2       12.6630   -4.6460   11.8930 C.ar  211  TYR211     -0.0009
    100  CE1       14.6680   -6.3330   12.8550 C.ar  211  TYR211      0.0417
    101  CE2       12.5130   -6.0460   11.7800 C.ar  211  TYR211      0.0417
    102  CZ        13.5430   -6.8800   12.2600 C.ar  211  TYR211      0.1957
    103  OH        13.4650   -8.2580   12.1780 O.3   211  TYR211     -0.2866
    104  N         14.8020   -0.2120   14.8650 N.am  212  CYS212     -0.1956
    105  CA        15.0750    1.1860   15.2090 C.3   212  CYS212      0.1843
    106  C         16.5170    1.5860   14.9050 C.2   212  CYS212      0.2626
    107  O         17.3780    0.7260   14.7000 O.2   212  CYS212     -0.2714
    108  CB        14.8020    1.4110   16.7140 C.3   212  CYS212      0.0997
    109  SG        13.0990    0.9620   17.2340 S.3   212  CYS212     -0.0797
    110  N         16.7690    2.8940   14.9180 N.am  213  GLY213     -0.1940
    111  CA        18.1370    3.4340   14.9060 C.3   213  GLY213      0.2014
    112  C         18.7960    3.0970   16.2240 C.2   213  GLY213      0.2638
    113  O         18.1150    2.5990   17.1500 O.2   213  GLY213     -0.2714
    114  N         20.0980    3.3690   16.3400 N.am  214  HIS214     -0.1973
    115  CA        20.8770    2.9070   17.4820 C.3   214  HIS214      0.1656
    116  C         22.1750    3.6790   17.6690 C.2   214  HIS214      0.2291
    117  O         22.7910    4.1770   16.7000 O.2   214  HIS214     -0.2864
    118  CB        21.2300    1.4230   17.2980 C.3   214  HIS214      0.0771
    119  CG        21.9230    1.1440   15.9960 C.ar  214  HIS214      0.0820
    120  ND1       23.2970    1.1360   15.8570 N.ar  214  HIS214     -0.2267
    121  CD2       21.4150    0.9450   14.7570 C.ar  214  HIS214      0.1154
    122  CE1       23.6020    0.9020   14.5900 C.ar  214  HIS214      0.1986
    123  NE2       22.4740    0.8160   13.8980 N.ar  214  HIS214     -0.2212
    124  N         28.4790   -2.1230   17.9660 N.3   220  PHE220     -0.1227
    125  CA        27.7490   -2.0680   16.6860 C.3   220  PHE220      0.1736
    126  C         26.3630   -1.4650   16.9760 C.2   220  PHE220      0.2595
    127  O         25.9230   -0.5060   16.3230 O.2   220  PHE220     -0.2718
    128  CB        27.6790   -3.5000   16.1230 C.3   220  PHE220      0.0547
    129  CG        27.1090   -3.6360   14.7070 C.ar  220  PHE220     -0.0202
    130  CD1       26.5340   -2.5650   14.0130 C.ar  220  PHE220     -0.0042
    131  CD2       27.1550   -4.8930   14.0850 C.ar  220  PHE220     -0.0042
    132  CE1       25.9930   -2.7490   12.7430 C.ar  220  PHE220     -0.0003
    133  CE2       26.6140   -5.0940   12.8130 C.ar  220  PHE220     -0.0003
    134  CZ        26.0400   -4.0220   12.1360 C.ar  220  PHE220     -0.0000
    135  N         25.6880   -1.9960   17.9960 N.am  221  HIS221     -0.1961
    136  CA        24.3700   -1.5000   18.4030 C.3   221  HIS221      0.1787
    137  C         24.3790   -1.2710   19.8960 C.2   221  HIS221      0.2621
    138  O         24.7000   -2.1660   20.6530 O.2   221  HIS221     -0.2715
    139  CB        23.2750   -2.5010   18.0470 C.3   221  HIS221      0.0785
    140  CG        23.2410   -2.8490   16.5960 C.ar  221  HIS221      0.0821
    141  ND1       23.8620   -3.9690   16.0910 N.ar  221  HIS221     -0.2267
    142  CD2       22.6910   -2.2080   15.5370 C.ar  221  HIS221      0.1154
    143  CE1       23.6690   -4.0230   14.7860 C.ar  221  HIS221      0.1986
    144  NE2       22.9680   -2.9660   14.4240 N.ar  221  HIS221     -0.2212
    145  N         24.0390   -0.0590   20.3050 N.am  222  THR222     -0.1937
    146  CA        24.0140    0.2710   21.7310 C.3   222  THR222      0.2028
    147  C         23.0720    1.4470   21.9880 C.2   222  THR222      0.2642
    148  O         22.4310    1.9250   21.0580 O.2   222  THR222     -0.2714
    149  CB        25.4440    0.5210   22.2620 C.3   222  THR222      0.1808
    150  OG1       25.4170    0.5530   23.6950 O.3   222  THR222     -0.2208
    151  CG2       26.0460    1.8260   21.7110 C.3   222  THR222      0.0379
    152  N         22.9370    1.8950   23.2410 N.am  223  ALA223     -0.1977
    153  CA        22.0920    3.0650   23.5450 C.3   223  ALA223      0.1597
    154  C         22.5150    4.3130   22.7500 C.2   223  ALA223      0.2287
    155  O         23.7030    4.5610   22.5910 O.2   223  ALA223     -0.2864
    156  CB        22.1210    3.3710   25.0630 C.3   223  ALA223      0.0319
    157  N         18.3100    3.5560   21.7650 N.3   225  ASN225     -0.1240
    158  CA        17.3620    2.9950   20.8310 C.3   225  ASN225      0.1653
    159  C         16.5930    4.1520   20.2330 C.2   225  ASN225      0.2266
    160  O         16.0440    4.9780   20.9730 O.2   225  ASN225     -0.2867
    161  CB        16.3970    2.0560   21.5450 C.3   225  ASN225      0.1155
    162  CG        15.4940    1.3300   20.5850 C.2   225  ASN225      0.2627
    163  OD1       15.9570    0.5140   19.7820 O.2   225  ASN225     -0.2716
    164  ND2       14.1980    1.6350   20.6380 N.am  225  ASN225     -0.0877
    165  N         17.6790    5.4570   10.7450 N.3   247  GLU247     -0.1245
    166  CA        17.6190    4.4940    9.6320 C.3   247  GLU247      0.1567
    167  C         16.1900    4.0720    9.2750 C.2   247  GLU247      0.2260
    168  O         15.8430    2.8710    9.3650 O.2   247  GLU247     -0.2867
    169  CB        18.5530    3.3120    9.8900 C.3   247  GLU247      0.0388
    170  CG        18.2430    2.5020   11.1560 C.3   247  GLU247      0.1160
    171  CD        19.2760    1.4190   11.3550 C.2   247  GLU247      0.3649
    172  OE1       20.2280    1.7050   12.1180 O.co2 247  GLU247     -0.2457
    173  OE2       19.1420    0.3370   10.7270 O.co2 247  GLU247     -0.2457
    174  N         16.5220  -14.1470   10.0130 N.3   264  TRP264     -0.1241
    175  CA        17.0400  -12.7970    9.7100 C.3   264  TRP264      0.1605
    176  C         16.1520  -11.9230    8.8190 C.2   264  TRP264      0.2264
    177  O         15.9020  -10.7470    9.1420 O.2   264  TRP264     -0.2867
    178  CB        18.4270  -12.8890    9.0680 C.3   264  TRP264      0.0550
    179  CG        19.4850  -13.1910   10.0880 C.ar  264  TRP264      0.0003
    180  CD1       20.2100  -14.3560   10.2260 C.ar  264  TRP264      0.0946
    181  CD2       19.8790  -12.3340   11.1630 C.ar  264  TRP264      0.0152
    182  NE1       21.0570  -14.2450   11.3140 N.ar  264  TRP264     -0.2442
    183  CE2       20.8640  -13.0210   11.9050 C.ar  264  TRP264      0.0810
    184  CE3       19.4950  -11.0430   11.5620 C.ar  264  TRP264      0.0012
    185  CZ2       21.4850  -12.4480   13.0210 C.ar  264  TRP264      0.0191
    186  CZ3       20.1030  -10.4840   12.6900 C.ar  264  TRP264      0.0001
    187  CH2       21.0850  -11.1920   13.3940 C.ar  264  TRP264      0.0015
@<TRIPOS>BOND
     1    71    70    2
     2    70    69    1
     3    84    85    1
     4    69    68    1
     5    69    72    1
     6    85    86    1
     7    85    88    1
     8    86    87    2
     9    72    73    1
    10    88    89    1
    11    76    77    2
    12    76    75    1
    13    67    66   ar
    14    67    65   ar
    15    74    75    1
    16    89    90   ar
    17    89    91   ar
    18    66    64   ar
    19    75    78    1
    20    65    63   ar
    21    64    62   ar
    22    31    30    1
    23    31    32    1
    24    78    79    1
    25    30    27    1
    26    32    26    1
    27    63    62   ar
    28   176   177    2
    29   176   175    1
    30   178   175    1
    31   178   179    1
    32    62    61    1
    33   167   168    2
    34   167   166    1
    35    59    60    2
    36    59    58    1
    37    81    79   ar
    38    81    83   ar
    39    79    80   ar
    40   166   169    1
    41   166   165    1
    42   175   174    1
    43   169   170    1
    44    26    27    1
    45    27    28    1
    46    28    29    2
    47   179   180   ar
    48   179   181   ar
    49   180   182   ar
    50    61    58    1
    51    58    57    1
    52   173   171   ar
    53    83    82   ar
    54    80    82   ar
    55   170   171    1
    56   181   184   ar
    57   181   183   ar
    58   182   183   ar
    59   171   172   ar
    60   184   186   ar
    61   101    99   ar
    62   101   102   ar
    63    99    97   ar
    64   183   185   ar
    65   134   132   ar
    66   134   133   ar
    67   103   102    1
    68   102   100   ar
    69    97    96    1
    70    97    98   ar
    71    96    93    1
    72   186   187   ar
    73   132   130   ar
    74   133   131   ar
    75   100    98   ar
    76   185   187   ar
    77    33    34    1
    78    36    35    2
    79    95    94    2
    80    37    34    1
    81    37    38    1
    82   123   122   ar
    83   123   121   ar
    84   130   129   ar
    85    93    94    1
    86    93    92    1
    87   131   129   ar
    88    34    35    1
    89    94   104   am
    90   144   143   ar
    91   144   142   ar
    92    35    45   am
    93    48    47    2
    94   122   120   ar
    95    40    38   ar
    96    40    42   ar
    97   107   106    2
    98   129   128    1
    99   121   119   ar
   100   143   141   ar
   101    38    39   ar
   102   104   105    1
   103    47    46    1
   104   106   110   am
   105   106   105    1
   106   111   110    1
   107   111   112    1
   108   105   108    1
   109   142   140   ar
   110    45    46    1
   111    42    43   ar
   112   120   119   ar
   113    39    41   ar
   114   119   118    1
   115    46    49    1
   116   141   140   ar
   117   128   125    1
   118   112   114   am
   119   112   113    2
   120   127   126    2
   121   114   115    1
   122    49    50    1
   123   140   139    1
   124   125   126    1
   125   125   124    1
   126   117   116    2
   127   108   109    1
   128    43    41   ar
   129    43    44    1
   130   126   135   am
   131   118   115    1
   132   115   116    1
   133    50    51   ar
   134    50    52   ar
   135    51    53   ar
   136   135   136    1
   137   139   136    1
   138   136   137    1
   139    52    54   ar
   140    53    55   ar
   141     9     7   ar
   142   163   162    2
   143   137   145   am
   144   137   138    2
   145     8     7   ar
   146    54    55   ar
   147    55    56    1
   148     7     6    1
   149   159   158    1
   150   159   160    2
   151   145   146    1
   152   162   164   am
   153   162   161    1
   154   158   161    1
   155   158   157    1
   156   148   147    2
   157     6     5    1
   158   151   149    1
   159   146   147    1
   160   146   149    1
   161   147   152   am
   162   149   150    1
   163   155   154    2
   164     5     2    1
   165   154   153    1
   166   152   153    1
   167   153   156    1
   168     2     1    1
   169     2     3    1
   170     3     4    2
   171    18    17    1
   172    17    16    1
   173    16    15    1
   174    15    14    1
   175    14    11    1
   176    11    10    1
   177    11    12    1
   178    22    21    2
   179    12    13    2
   180    21    20    1
   181    24    23    1
   182    19    20    1
   183    20    23    1
   184    23    25    1
