@<TRIPOS>MOLECULE
tmp/4ikuA00.pdb
 169 168 0 0 0
SMALL
GASTEIGER

@<TRIPOS>ATOM
      1  N         29.1380   -5.8050   24.2640 N.3    39  GLU39      -0.1245
      2  CA        27.7640   -5.3090   24.1490 C.3    39  GLU39       0.1567
      3  C         26.8460   -5.8740   25.2340 C.2    39  GLU39       0.2260
      4  O         26.0960   -5.1270   25.8710 O.2    39  GLU39      -0.2867
      5  CB        27.1840   -5.6100   22.7610 C.3    39  GLU39       0.0388
      6  CG        27.7400   -4.7230   21.6580 C.3    39  GLU39       0.1160
      7  CD        27.1320   -5.0180   20.2950 C.2    39  GLU39       0.3649
      8  OE1       26.2150   -5.8580   20.1920 O.co2  39  GLU39      -0.2457
      9  OE2       27.5800   -4.3880   19.3150 O.co2  39  GLU39      -0.2457
     10  N         29.0190   -6.9320   10.0280 N.3   103  PRO103     -0.2116
     11  CA        27.9420   -7.9360   10.1090 C.3   103  PRO103      0.1372
     12  C         28.4280   -9.3890   10.1370 C.2   103  PRO103      0.2244
     13  O         27.6880  -10.2730   10.5910 O.2   103  PRO103     -0.2868
     14  CB        27.1250   -7.6750    8.8340 C.3   103  PRO103      0.0268
     15  CG        27.4570   -6.2420    8.4530 C.3   103  PRO103      0.0207
     16  CD        28.9160   -6.1300    8.7900 C.3   103  PRO103      0.0892
     17  N         28.2820  -11.6150   13.2240 N.3   106  TYR106     -0.1227
     18  CA        27.5960  -10.9090   14.2830 C.3   106  TYR106      0.1736
     19  C         26.3480  -11.7080   14.6160 C.2   106  TYR106      0.2595
     20  O         25.4010  -11.7650   13.8320 O.2   106  TYR106     -0.2718
     21  CB        27.2430   -9.4970   13.8400 C.3   106  TYR106      0.0548
     22  CG        26.6760   -8.6220   14.9360 C.ar  106  TYR106     -0.0200
     23  CD1       27.4530   -8.2480   16.0330 C.ar  106  TYR106     -0.0009
     24  CD2       25.3710   -8.1590   14.8620 C.ar  106  TYR106     -0.0009
     25  CE1       26.9320   -7.4270   17.0350 C.ar  106  TYR106      0.0417
     26  CE2       24.8450   -7.3420   15.8430 C.ar  106  TYR106      0.0417
     27  CZ        25.6220   -6.9740   16.9260 C.ar  106  TYR106      0.1957
     28  OH        25.0760   -6.1490   17.8880 O.3   106  TYR106     -0.2866
     29  N         26.3720  -12.3600   15.7800 N.am  107  TYR107     -0.1976
     30  CA        25.3180  -13.3150   16.1590 C.3   107  TYR107      0.1639
     31  C         25.0950  -14.3410   15.0480 C.2   107  TYR107      0.2290
     32  O         23.9740  -14.7390   14.7450 O.2   107  TYR107     -0.2864
     33  CB        24.0520  -12.5770   16.6320 C.3   107  TYR107      0.0560
     34  CG        24.3590  -11.8950   17.9360 C.ar  107  TYR107     -0.0198
     35  CD1       25.0120  -10.6680   17.9610 C.ar  107  TYR107     -0.0009
     36  CD2       24.0820  -12.5230   19.1550 C.ar  107  TYR107     -0.0009
     37  CE1       25.3580  -10.0600   19.1550 C.ar  107  TYR107      0.0417
     38  CE2       24.4160  -11.9150   20.3650 C.ar  107  TYR107      0.0417
     39  CZ        25.0490  -10.6840   20.3590 C.ar  107  TYR107      0.1957
     40  OH        25.4030  -10.0790   21.5440 O.3   107  TYR107     -0.2866
     41  N         25.4110  -14.0570   11.9070 N.3   109  PHE109     -0.1241
     42  CA        24.9880  -13.5730   10.6000 C.3   109  PHE109      0.1605
     43  C         26.0290  -14.0470    9.5690 C.2   109  PHE109      0.2264
     44  O         27.2270  -13.9100    9.7990 O.2   109  PHE109     -0.2867
     45  CB        24.8190  -12.0530   10.5980 C.3   109  PHE109      0.0534
     46  CG        24.2560  -11.5330    9.3060 C.ar  109  PHE109     -0.0203
     47  CD1       22.8770  -11.5800    9.0630 C.ar  109  PHE109     -0.0042
     48  CD2       25.1030  -11.0270    8.3180 C.ar  109  PHE109     -0.0042
     49  CE1       22.3510  -11.1290    7.8650 C.ar  109  PHE109     -0.0003
     50  CE2       24.5800  -10.5740    7.1070 C.ar  109  PHE109     -0.0003
     51  CZ        23.2070  -10.6260    6.8810 C.ar  109  PHE109     -0.0000
     52  N         24.1720   -6.5860    4.4670 N.3   114  CYS114     -0.1235
     53  CA        22.7740   -6.9820    4.3350 C.3   114  CYS114      0.1677
     54  C         22.2110   -6.4020    3.0540 C.2   114  CYS114      0.2270
     55  O         22.3850   -5.2160    2.7800 O.2   114  CYS114     -0.2867
     56  CB        21.9410   -6.5040    5.5200 C.3   114  CYS114      0.0956
     57  SG        22.5060   -7.1000    7.1160 S.3   114  CYS114     -0.0801
     58  N         17.9870   -6.7680    6.8910 N.3   123  HIS123     -0.1241
     59  CA        18.6870   -8.0000    7.2430 C.3   123  HIS123      0.1621
     60  C         18.5700   -9.1140    6.2150 C.2   123  HIS123      0.2264
     61  O         18.7670  -10.2820    6.5520 O.2   123  HIS123     -0.2867
     62  CB        18.3290   -8.4630    8.6710 C.3   123  HIS123      0.0745
     63  CG        18.7250   -7.4670    9.7140 C.ar  123  HIS123      0.0817
     64  ND1       18.1740   -7.4140   10.9770 N.ar  123  HIS123     -0.2268
     65  CD2       19.6330   -6.4640    9.6530 C.ar  123  HIS123      0.1154
     66  CE1       18.7290   -6.4180   11.6480 C.ar  123  HIS123      0.1986
     67  NE2       19.6220   -5.8290   10.8690 N.ar  123  HIS123     -0.2212
     68  N         23.1870   -2.4680    3.2910 N.3   140  ASP140     -0.1239
     69  CA        23.5390   -1.9120    4.5900 C.3   140  ASP140      0.1674
     70  C         24.9430   -2.3970    4.9260 C.2   140  ASP140      0.2266
     71  O         25.1950   -3.5950    4.9940 O.2   140  ASP140     -0.2867
     72  CB        22.4980   -2.2800    5.6690 C.3   140  ASP140      0.1410
     73  CG        22.7140   -1.5310    6.9830 C.2   140  ASP140      0.3668
     74  OD1       23.7440   -0.8260    7.1350 O.co2 140  ASP140     -0.2456
     75  OD2       21.8440   -1.6440    7.8750 O.co2 140  ASP140     -0.2456
     76  N          9.5560   -2.4430   14.6420 N.3   210  SER210     -0.1202
     77  CA        10.3380   -3.4670   15.3280 C.3   210  SER210      0.2020
     78  C         11.8520   -3.2480   15.2790 C.2   210  SER210      0.2619
     79  O         12.6040   -3.9330   15.9770 O.2   210  SER210     -0.2717
     80  CB        10.0200   -4.8410   14.7450 C.3   210  SER210      0.2103
     81  OG         8.6410   -5.1310   14.8960 O.3   210  SER210     -0.2182
     82  N         12.2900   -2.3080   14.4470 N.am  211  TYR211     -0.1961
     83  CA        13.7210   -2.0550   14.2250 C.3   211  TYR211      0.1771
     84  C         13.9680   -0.5650   14.3490 C.2   211  TYR211      0.2620
     85  O         13.1570    0.2320   13.8870 O.2   211  TYR211     -0.2715
     86  CB        14.1370   -2.5670   12.8360 C.3   211  TYR211      0.0574
     87  CG        14.0090   -4.0660   12.6810 C.ar  211  TYR211     -0.0198
     88  CD1       15.0120   -4.9170   13.1450 C.ar  211  TYR211     -0.0009
     89  CD2       12.8780   -4.6320   12.0970 C.ar  211  TYR211     -0.0009
     90  CE1       14.8970   -6.3020   13.0210 C.ar  211  TYR211      0.0417
     91  CE2       12.7450   -6.0190   11.9770 C.ar  211  TYR211      0.0417
     92  CZ        13.7650   -6.8420   12.4350 C.ar  211  TYR211      0.1957
     93  OH        13.6530   -8.2120   12.3210 O.3   211  TYR211     -0.2866
     94  N         15.0990   -0.2110   14.9570 N.am  212  CYS212     -0.1954
     95  CA        15.4060    1.1670   15.3430 C.3   212  CYS212      0.1843
     96  C         16.8550    1.5420   15.0440 C.2   212  CYS212      0.2626
     97  O         17.7040    0.6750   14.8150 O.2   212  CYS212     -0.2714
     98  CB        15.1740    1.3320   16.8500 C.3   212  CYS212      0.0997
     99  SG        13.5090    0.9400   17.4380 S.3   212  CYS212     -0.0797
    100  N         17.1330    2.8430   15.0710 N.am  213  GLY213     -0.1940
    101  CA        18.5070    3.3330   15.0600 C.3   213  GLY213      0.2014
    102  C         19.1540    3.0430   16.3990 C.2   213  GLY213      0.2638
    103  O         18.4970    2.5620   17.3310 O.2   213  GLY213     -0.2714
    104  N         20.4450    3.3340   16.4950 N.am  214  HIS214     -0.1973
    105  CA        21.2370    2.8650   17.6210 C.3   214  HIS214      0.1656
    106  C         22.5190    3.6560   17.7910 C.2   214  HIS214      0.2291
    107  O         23.1070    4.1410   16.8220 O.2   214  HIS214     -0.2864
    108  CB        21.6080    1.3920   17.4100 C.3   214  HIS214      0.0771
    109  CG        22.2820    1.1350   16.0990 C.ar  214  HIS214      0.0820
    110  ND1       23.6520    1.1300   15.9500 N.ar  214  HIS214     -0.2267
    111  CD2       21.7650    0.9160   14.8690 C.ar  214  HIS214      0.1154
    112  CE1       23.9500    0.8910   14.6820 C.ar  214  HIS214      0.1986
    113  NE2       22.8230    0.7730   14.0050 N.ar  214  HIS214     -0.2212
    114  N         28.8770   -2.1260   18.0410 N.3   220  PHE220     -0.1227
    115  CA        28.1100   -2.0590   16.7840 C.3   220  PHE220      0.1736
    116  C         26.7240   -1.4840   17.0990 C.2   220  PHE220      0.2595
    117  O         26.3010   -0.5020   16.4850 O.2   220  PHE220     -0.2718
    118  CB        28.0490   -3.4830   16.2060 C.3   220  PHE220      0.0547
    119  CG        27.4690   -3.6140   14.8020 C.ar  220  PHE220     -0.0202
    120  CD1       26.8900   -2.5430   14.1100 C.ar  220  PHE220     -0.0042
    121  CD2       27.4930   -4.8670   14.1810 C.ar  220  PHE220     -0.0042
    122  CE1       26.3440   -2.7300   12.8300 C.ar  220  PHE220     -0.0003
    123  CE2       26.9500   -5.0630   12.9140 C.ar  220  PHE220     -0.0003
    124  CZ        26.3680   -3.9900   12.2310 C.ar  220  PHE220     -0.0000
    125  N         26.0370   -2.0590   18.0870 N.am  221  HIS221     -0.1975
    126  CA        24.7280   -1.5520   18.4990 C.3   221  HIS221      0.1656
    127  C         24.7410   -1.3390   20.0040 C.2   221  HIS221      0.2291
    128  O         25.0410   -2.2640   20.7500 O.2   221  HIS221     -0.2864
    129  CB        23.6090   -2.5310   18.1240 C.3   221  HIS221      0.0771
    130  CG        23.6030   -2.9020   16.6760 C.ar  221  HIS221      0.0820
    131  ND1       24.1770   -4.0600   16.2000 N.ar  221  HIS221     -0.2267
    132  CD2       23.1160   -2.2490   15.5930 C.ar  221  HIS221      0.1154
    133  CE1       24.0340   -4.1100   14.8860 C.ar  221  HIS221      0.1986
    134  NE2       23.3980   -3.0220   14.4930 N.ar  221  HIS221     -0.2212
    135  N         18.7590    3.5730   21.9640 N.3   225  ASN225     -0.1240
    136  CA        17.7980    3.0400   21.0090 C.3   225  ASN225      0.1653
    137  C         17.0270    4.2040   20.4010 C.2   225  ASN225      0.2266
    138  O         16.5400    5.0750   21.1290 O.2   225  ASN225     -0.2867
    139  CB        16.8400    2.0740   21.7010 C.3   225  ASN225      0.1155
    140  CG        15.9570    1.3350   20.7230 C.2   225  ASN225      0.2627
    141  OD1       16.4390    0.5280   19.9250 O.2   225  ASN225     -0.2716
    142  ND2       14.6540    1.6010   20.7750 N.am  225  ASN225     -0.0877
    143  N         17.9610    5.4220   10.8650 N.3   247  GLU247     -0.1245
    144  CA        17.9000    4.4520    9.7650 C.3   247  GLU247      0.1567
    145  C         16.4620    4.0230    9.4580 C.2   247  GLU247      0.2260
    146  O         16.1350    2.8360    9.4990 O.2   247  GLU247     -0.2867
    147  CB        18.8080    3.2510   10.0490 C.3   247  GLU247      0.0388
    148  CG        18.5740    2.5210   11.3690 C.3   247  GLU247      0.1160
    149  CD        19.6170    1.4340   11.5540 C.2   247  GLU247      0.3649
    150  OE1       20.6280    1.6890   12.2550 O.co2 247  GLU247     -0.2457
    151  OE2       19.4580    0.3380   10.9500 O.co2 247  GLU247     -0.2457
    152  N         15.8200  -16.8000   10.1830 N.3   263  GLY263     -0.1210
    153  CA        16.0340  -16.1300   11.4590 C.3   263  GLY263      0.1956
    154  C         16.5160  -14.6890   11.3530 C.2   263  GLY263      0.2611
    155  O         16.7050  -14.0390   12.3790 O.2   263  GLY263     -0.2717
    156  N         16.6870  -14.1900   10.1240 N.am  264  TRP264     -0.1976
    157  CA        17.2540  -12.8620    9.8730 C.3   264  TRP264      0.1640
    158  C         16.3840  -11.9910    8.9910 C.2   264  TRP264      0.2290
    159  O         16.1660  -10.8290    9.3000 O.2   264  TRP264     -0.2864
    160  CB        18.6340  -12.9820    9.2120 C.3   264  TRP264      0.0576
    161  CG        19.6980  -13.4080   10.1710 C.ar  264  TRP264      0.0006
    162  CD1       20.3370  -14.6190   10.2130 C.ar  264  TRP264      0.0946
    163  CD2       20.2230  -12.6340   11.2540 C.ar  264  TRP264      0.0152
    164  NE1       21.2400  -14.6360   11.2530 N.ar  264  TRP264     -0.2442
    165  CE2       21.1910  -13.4320   11.9060 C.ar  264  TRP264      0.0810
    166  CE3       19.9730  -11.3410   11.7370 C.ar  264  TRP264      0.0012
    167  CZ2       21.9150  -12.9740   13.0140 C.ar  264  TRP264      0.0191
    168  CZ3       20.6930  -10.8900   12.8460 C.ar  264  TRP264      0.0001
    169  CH2       21.6530  -11.7070   13.4670 C.ar  264  TRP264      0.0015
@<TRIPOS>BOND
     1    55    54    2
     2    54    53    1
     3    68    69    1
     4    53    52    1
     5    53    56    1
     6    69    70    1
     7    69    72    1
     8    70    71    2
     9    56    57    1
    10    72    73    1
    11    60    61    2
    12    60    59    1
    13    51    50   ar
    14    51    49   ar
    15    58    59    1
    16    73    74   ar
    17    73    75   ar
    18    50    48   ar
    19    59    62    1
    20    49    47   ar
    21    48    46   ar
    22    15    16    1
    23    15    14    1
    24    62    63    1
    25    16    10    1
    26    14    11    1
    27   158   159    2
    28   158   157    1
    29    47    46   ar
    30   160   157    1
    31   160   161    1
    32    46    45    1
    33   145   146    2
    34   145   144    1
    35    43    44    2
    36    43    42    1
    37    65    63   ar
    38    65    67   ar
    39    63    64   ar
    40   144   147    1
    41   144   143    1
    42   157   156    1
    43    10    11    1
    44   147   148    1
    45    11    12    1
    46   156   154   am
    47    12    13    2
    48   161   162   ar
    49   161   163   ar
    50   152   153    1
    51   162   164   ar
    52    45    42    1
    53    42    41    1
    54    67    66   ar
    55   151   149   ar
    56    64    66   ar
    57   164   165   ar
    58   163   166   ar
    59   163   165   ar
    60   154   153    1
    61   154   155    2
    62   148   149    1
    63   149   150   ar
    64   166   168   ar
    65   165   167   ar
    66    91    89   ar
    67    91    92   ar
    68    89    87   ar
    69   124   122   ar
    70   124   123   ar
    71    93    92    1
    72    92    90   ar
    73    87    86    1
    74    87    88   ar
    75   122   120   ar
    76    86    83    1
    77   168   169   ar
    78   123   121   ar
    79   167   169   ar
    80    90    88   ar
    81    17    18    1
    82    20    19    2
    83    21    18    1
    84    21    22    1
    85    85    84    2
    86   113   112   ar
    87   113   111   ar
    88   120   119   ar
    89   121   119   ar
    90    83    84    1
    91    83    82    1
    92    18    19    1
    93    84    94   am
    94    82    78   am
    95   134   133   ar
    96   134   132   ar
    97    19    29   am
    98    76    77    1
    99   112   110   ar
   100    32    31    2
   101    80    81    1
   102    80    77    1
   103   119   118    1
   104    97    96    2
   105    24    22   ar
   106    24    26   ar
   107   111   109   ar
   108   133   131   ar
   109    22    23   ar
   110    94    95    1
   111    96   100   am
   112    96    95    1
   113    31    30    1
   114   101   100    1
   115   101   102    1
   116    78    77    1
   117    78    79    2
   118    95    98    1
   119   132   130   ar
   120    29    30    1
   121    26    27   ar
   122   110   109   ar
   123    23    25   ar
   124   109   108    1
   125    30    33    1
   126   131   130   ar
   127   118   115    1
   128   102   104   am
   129   102   103    2
   130   117   116    2
   131   104   105    1
   132    33    34    1
   133   130   129    1
   134   115   116    1
   135   115   114    1
   136   107   106    2
   137    98    99    1
   138    27    25   ar
   139    27    28    1
   140   116   125   am
   141   108   105    1
   142   105   106    1
   143    34    35   ar
   144    34    36   ar
   145    35    37   ar
   146   125   126    1
   147   129   126    1
   148   126   127    1
   149    37    39   ar
   150    36    38   ar
   151     9     7   ar
   152   141   140    2
   153   127   128    2
   154     8     7   ar
   155     7     6    1
   156    39    38   ar
   157    39    40    1
   158   137   136    1
   159   137   138    2
   160   140   142   am
   161   140   139    1
   162   136   139    1
   163   136   135    1
   164     6     5    1
   165     5     2    1
   166     2     1    1
   167     2     3    1
   168     3     4    2
