@<TRIPOS>MOLECULE
tmp/4ikvA03.pdb
 71 64 0 0 0
SMALL
GASTEIGER

@<TRIPOS>ATOM
      1  N         15.6450   -3.1650   -6.1760 N.3   382  ILE382     -0.1245
      2  CA        15.3120   -4.3370   -6.9760 C.3   382  ILE382      0.1561
      3  C         14.0070   -4.0860   -7.7210 C.2   382  ILE382      0.2260
      4  O         13.8600   -4.4450   -8.8870 O.2   382  ILE382     -0.2867
      5  CB        15.1920   -5.6290   -6.1380 C.3   382  ILE382      0.0252
      6  CG1       16.4990   -5.8990   -5.4020 C.3   382  ILE382      0.0019
      7  CG2       14.8620   -6.8140   -7.0330 C.3   382  ILE382      0.0019
      8  CD1       17.6990   -5.9010   -6.3140 C.3   382  ILE382      0.0001
      9  N         14.3650   -1.7480  -10.9170 N.3   385  LEU385     -0.1245
     10  CA        15.0390   -2.2590  -12.1050 C.3   385  LEU385      0.1561
     11  C         14.1290   -3.1460  -12.9620 C.2   385  LEU385      0.2260
     12  O         14.3910   -3.3390  -14.1500 O.2   385  LEU385     -0.2867
     13  CB        16.3420   -2.9910  -11.7480 C.3   385  LEU385      0.0270
     14  CG        16.2730   -4.3570  -11.0640 C.3   385  LEU385      0.0019
     15  CD1       16.0960   -5.4890  -12.0830 C.3   385  LEU385      0.0001
     16  CD2       17.5310   -4.5910  -10.2670 C.3   385  LEU385      0.0001
     17  N         20.2070   -1.6480  -15.2630 N.3   463  THR463     -0.1203
     18  CA        19.9130   -2.8880  -14.5600 C.3   463  THR463      0.1994
     19  C         21.0540   -3.2630  -13.6110 C.2   463  THR463      0.2617
     20  O         20.8210   -3.5570  -12.4330 O.2   463  THR463     -0.2717
     21  CB        19.6020   -4.0200  -15.5480 C.3   463  THR463      0.1784
     22  OG1       18.5370   -3.6010  -16.4060 O.3   463  THR463     -0.2211
     23  CG2       19.1660   -5.2720  -14.8150 C.3   463  THR463      0.0376
     24  N         22.2860   -3.2140  -14.1060 N.am  464  ALA464     -0.1979
     25  CA        23.4270   -3.5130  -13.2520 C.3   464  ALA464      0.1597
     26  C         23.5710   -2.5010  -12.1090 C.2   464  ALA464      0.2287
     27  O         23.9620   -2.8660  -11.0010 O.2   464  ALA464     -0.2864
     28  CB        24.7140   -3.5890  -14.0700 C.3   464  ALA464      0.0319
     29  N         20.6190   -3.1640   -9.5330 N.3   467  GLY467     -0.1210
     30  CA        20.7530   -4.5080   -8.9900 C.3   467  GLY467      0.1956
     31  C         21.9360   -4.6930   -8.0560 C.2   467  GLY467      0.2612
     32  O         21.8360   -5.3500   -7.0210 O.2   467  GLY467     -0.2717
     33  N         23.0690   -4.1190   -8.4320 N.am  468  THR468     -0.1952
     34  CA        24.2810   -4.2270   -7.6300 C.3   468  THR468      0.1897
     35  C         24.1630   -3.4330   -6.3310 C.2   468  THR468      0.2313
     36  O         24.5860   -3.8820   -5.2680 O.2   468  THR468     -0.2863
     37  CB        25.5190   -3.7510   -8.4210 C.3   468  THR468      0.1794
     38  OG1       25.6790   -4.5680   -9.5890 O.3   468  THR468     -0.2208
     39  CG2       26.7780   -3.8360   -7.5480 C.3   468  THR468      0.0378
     40  N         21.3010   -5.1870   -4.3740 N.3   471  GLY471     -0.1210
     41  CA        21.8390   -6.4400   -3.8580 C.3   471  GLY471      0.1956
     42  C         22.8370   -6.2350   -2.7280 C.2   471  GLY471      0.2611
     43  O         22.8720   -7.0130   -1.7650 O.2   471  GLY471     -0.2717
     44  N         23.6530   -5.1880   -2.8270 N.am  472  ALA472     -0.1979
     45  CA        24.6280   -4.9230   -1.7660 C.3   472  ALA472      0.1597
     46  C         23.9030   -4.5600   -0.4740 C.2   472  ALA472      0.2287
     47  O         24.3080   -4.9680    0.6200 O.2   472  ALA472     -0.2864
     48  CB        25.6060   -3.8280   -2.1640 C.3   472  ALA472      0.0319
     49  N         22.5140   -7.8230    0.9430 N.3   475  VAL475     -0.1231
     50  CA        23.5530   -8.6570    1.5270 C.3   475  VAL475      0.1692
     51  C         24.0030   -8.1040    2.8710 C.2   475  VAL475      0.2591
     52  O         24.1380   -8.8320    3.8530 O.2   475  VAL475     -0.2718
     53  CB        24.7680   -8.7820    0.5900 C.3   475  VAL475      0.0266
     54  CG1       25.9680   -9.3320    1.3590 C.3   475  VAL475      0.0020
     55  CG2       24.4200   -9.6820   -0.6040 C.3   475  VAL475      0.0020
     56  N         24.2180   -6.8010    2.9150 N.am  476  LEU476     -0.1980
     57  CA        24.6330   -6.1760    4.1520 C.3   476  LEU476      0.1596
     58  C         23.5260   -6.2390    5.2020 C.2   476  LEU476      0.2287
     59  O         23.8030   -6.4380    6.3780 O.2   476  LEU476     -0.2864
     60  CB        25.0870   -4.7370    3.8950 C.3   476  LEU476      0.0297
     61  CG        26.6080   -4.6580    3.7900 C.3   476  LEU476      0.0022
     62  CD1       27.0460   -4.0650    2.4690 C.3   476  LEU476      0.0001
     63  CD2       27.1740   -3.8640    4.9650 C.3   476  LEU476      0.0001
     64  N         23.6040   -9.7580    6.7220 N.3   479  ILE479     -0.1245
     65  CA        24.7330   -9.8670    7.6400 C.3   479  ILE479      0.1561
     66  C         24.4930   -9.1140    8.9520 C.2   479  ILE479      0.2260
     67  O         24.8130   -9.6150   10.0340 O.2   479  ILE479     -0.2867
     68  CB        26.0380   -9.3770    6.9840 C.3   479  ILE479      0.0252
     69  CG1       26.4710  -10.3660    5.8970 C.3   479  ILE479      0.0019
     70  CG2       27.1420   -9.2330    8.0290 C.3   479  ILE479      0.0019
     71  CD1       27.5540   -9.8340    4.9670 C.3   479  ILE479      0.0001
@<TRIPOS>BOND
     1    22    21    1
     2    21    23    1
     3    21    18    1
     4    17    18    1
     5    18    19    1
     6    12    11    2
     7    24    19   am
     8    24    25    1
     9    28    25    1
    10    19    20    2
    11    25    26    1
    12    11    10    1
    13    26    27    2
    14    10    13    1
    15    10     9    1
    16    15    14    1
    17    13    14    1
    18    14    16    1
    19    38    37    1
    20    29    30    1
    21    30    31    1
    22     4     3    2
    23    33    31   am
    24    33    34    1
    25    37    34    1
    26    37    39    1
    27    31    32    2
    28     3     2    1
    29    34    35    1
    30     7     5    1
    31     2     1    1
    32     2     5    1
    33    35    36    2
    34     8     6    1
    35     5     6    1
    36    40    41    1
    37    41    42    1
    38    44    42   am
    39    44    45    1
    40    42    43    2
    41    48    45    1
    42    45    46    1
    43    55    53    1
    44    46    47    2
    45    53    54    1
    46    53    50    1
    47    49    50    1
    48    50    51    1
    49    62    61    1
    50    51    56   am
    51    51    52    2
    52    56    57    1
    53    61    60    1
    54    61    63    1
    55    60    57    1
    56    57    58    1
    57    71    69    1
    58    58    59    2
    59    69    68    1
    60    64    65    1
    61    68    65    1
    62    68    70    1
    63    65    66    1
    64    66    67    2
