@<TRIPOS>MOLECULE
tmp/4ikvA08.pdb
 77 74 0 0 0
SMALL
GASTEIGER

@<TRIPOS>ATOM
      1  N          4.5410    3.7140   14.6090 N.3   353  ALA353     -0.1245
      2  CA         4.6370    3.9800   16.0450 C.3   353  ALA353      0.1562
      3  C          3.6620    3.0990   16.8050 C.2   353  ALA353      0.2260
      4  O          3.9820    2.5660   17.8640 O.2   353  ALA353     -0.2867
      5  CB         4.3770    5.4630   16.3570 C.3   353  ALA353      0.0290
      6  N          4.9750   -0.6280   16.8350 N.3   356  TRP356     -0.1227
      7  CA         6.0020   -0.9160   17.8340 C.3   356  TRP356      0.1737
      8  C          5.3790   -1.0670   19.2300 C.2   356  TRP356      0.2595
      9  O          5.7770   -1.9370   20.0160 O.2   356  TRP356     -0.2718
     10  CB         7.0740    0.1770   17.8560 C.3   356  TRP356      0.0564
     11  CG         7.7460    0.4660   16.5110 C.ar  356  TRP356      0.0003
     12  CD1        7.9140    1.6970   15.9330 C.ar  356  TRP356      0.0946
     13  CD2        8.3360   -0.4820   15.6050 C.ar  356  TRP356      0.0152
     14  NE1        8.5730    1.5720   14.7350 N.ar  356  TRP356     -0.2442
     15  CE2        8.8420    0.2490   14.5070 C.ar  356  TRP356      0.0810
     16  CE3        8.4890   -1.8720   15.6130 C.ar  356  TRP356      0.0012
     17  CZ2        9.4850   -0.3650   13.4310 C.ar  356  TRP356      0.0191
     18  CZ3        9.1280   -2.4780   14.5410 C.ar  356  TRP356      0.0001
     19  CH2        9.6220   -1.7280   13.4720 C.ar  356  TRP356      0.0015
     20  N          4.3980   -0.2220   19.5280 N.am  357  VAL357     -0.1980
     21  CA         3.6850   -0.3260   20.7960 C.3   357  VAL357      0.1595
     22  C          2.9960   -1.6790   20.9140 C.2   357  VAL357      0.2287
     23  O          3.0980   -2.3480   21.9450 O.2   357  VAL357     -0.2864
     24  CB         2.6570    0.8090   20.9700 C.3   357  VAL357      0.0276
     25  CG1        1.7390    0.5460   22.1800 C.3   357  VAL357      0.0022
     26  CG2        3.3720    2.1280   21.1210 C.3   357  VAL357      0.0022
     27  N          5.3960   -4.5410   21.4290 N.3   360  GLY360     -0.1225
     28  CA         5.9550   -4.5040   22.7660 C.3   360  GLY360      0.1811
     29  C          7.2910   -5.2130   22.8700 C.2   360  GLY360      0.2280
     30  O          8.2290   -4.9050   22.1340 O.2   360  GLY360     -0.2866
     31  N          9.1290   -6.6510   19.7630 N.3   363  GLN363     -0.1231
     32  CA         9.5660   -5.7870   18.6620 C.3   363  GLN363      0.1683
     33  C         11.0460   -6.0170   18.3750 C.2   363  GLN363      0.2434
     34  O         11.7850   -6.4640   19.2490 O.2   363  GLN363     -0.2733
     35  CB         9.2960   -4.3030   18.9680 C.3   363  GLN363      0.0380
     36  CG        10.2460   -3.7020   19.9970 C.3   363  GLN363      0.0905
     37  CD        10.2090   -2.1790   20.0530 C.2   363  GLN363      0.2608
     38  OE1        9.8810   -1.5110   19.0740 O.2   363  GLN363     -0.2717
     39  NE2       10.5590   -1.6270   21.2080 N.am  363  GLN363     -0.0878
     40  N         11.4800   -5.7390   17.1390 N.am  364  PRO364     -0.2718
     41  CA        12.9040   -5.8750   16.8190 C.3   364  PRO364      0.1535
     42  C         13.7400   -4.9400   17.6910 C.2   364  PRO364      0.2599
     43  O         13.2630   -3.8780   18.0870 O.2   364  PRO364     -0.2715
     44  CB        12.9810   -5.4280   15.3540 C.3   364  PRO364      0.0310
     45  CG        11.6080   -5.6010   14.8140 C.3   364  PRO364      0.0237
     46  CD        10.6710   -5.3640   15.9630 C.3   364  PRO364      0.0939
     47  N         14.9670   -5.3430   17.9980 N.am  365  THR365     -0.1937
     48  CA        15.8990   -4.4730   18.6980 C.3   365  THR365      0.2028
     49  C         16.3780   -3.3620   17.7560 C.2   365  THR365      0.2642
     50  O         16.0360   -3.3400   16.5760 O.2   365  THR365     -0.2714
     51  CB        17.1260   -5.2630   19.1770 C.3   365  THR365      0.1808
     52  OG1       17.8210   -5.7860   18.0360 O.3   365  THR365     -0.2208
     53  CG2       16.7050   -6.4150   20.1070 C.3   365  THR365      0.0379
     54  N         17.1840   -2.4470   18.2800 N.am  366  ILE366     -0.1977
     55  CA        17.7230   -1.3690   17.4670 C.3   366  ILE366      0.1596
     56  C         18.5720   -1.8670   16.2860 C.2   366  ILE366      0.2287
     57  O         18.3240   -1.4630   15.1510 O.2   366  ILE366     -0.2864
     58  CB        18.4560   -0.2890   18.3180 C.3   366  ILE366      0.0276
     59  CG1       17.4550    0.4190   19.2380 C.3   366  ILE366      0.0022
     60  CG2       19.1590    0.7200   17.4080 C.3   366  ILE366      0.0022
     61  CD1       18.0880    1.4090   20.2010 C.3   366  ILE366      0.0001
     62  N         16.3450   -3.2530   13.6770 N.3   369  LYS369     -0.1245
     63  CA        15.6620   -2.1770   12.9490 C.3   369  LYS369      0.1561
     64  C         16.5530   -1.5450   11.8680 C.2   369  LYS369      0.2260
     65  O         16.0830   -1.1980   10.7730 O.2   369  LYS369     -0.2867
     66  CB        15.1240   -1.1170   13.9310 C.3   369  LYS369      0.0271
     67  CG        13.8980   -1.6050   14.7350 C.3   369  LYS369      0.0035
     68  CD        13.4050   -0.5520   15.7330 C.3   369  LYS369      0.0206
     69  CE        12.1220   -1.0150   16.4130 C.3   369  LYS369      0.1093
     70  NZ        11.6770   -0.0650   17.4730 N.3   369  LYS369     -0.1314
     71  N         15.6420    5.2800   15.1620 N.3   418  VAL418     -0.1245
     72  CA        16.5050    4.7480   16.2180 C.3   418  VAL418      0.1561
     73  C         17.9690    5.0680   15.9470 C.2   418  VAL418      0.2260
     74  O         18.8610    4.5540   16.6240 O.2   418  VAL418     -0.2867
     75  CB        16.3380    3.2010   16.4180 C.3   418  VAL418      0.0252
     76  CG1       14.9680    2.8750   16.9880 C.3   418  VAL418      0.0019
     77  CG2       16.5750    2.4440   15.1100 C.3   418  VAL418      0.0019
@<TRIPOS>BOND
     1    65    64    2
     2    64    63    1
     3    63    62    1
     4    63    66    1
     5    17    19   ar
     6    17    15   ar
     7    19    18   ar
     8    66    67    1
     9    15    14   ar
    10    15    13   ar
    11    18    16   ar
    12     1     2    1
    13    67    68    1
    14    14    12   ar
    15    45    44    1
    16    45    46    1
    17    77    75    1
    18    57    56    2
    19    71    72    1
    20    44    41    1
    21    13    16   ar
    22    13    11   ar
    23    68    69    1
    24    12    11   ar
    25    73    72    1
    26    73    74    2
    27    46    40    1
    28     2     5    1
    29     2     3    1
    30    72    75    1
    31    56    55    1
    32    69    70    1
    33    75    76    1
    34    11    10    1
    35    50    49    2
    36     3     4    2
    37    41    40    1
    38    41    42    1
    39     6     7    1
    40    40    33   am
    41    60    58    1
    42    55    54    1
    43    55    58    1
    44    42    47   am
    45    42    43    2
    46    49    54   am
    47    49    48    1
    48     7    10    1
    49     7     8    1
    50    47    48    1
    51    52    51    1
    52    58    59    1
    53    33    32    1
    54    33    34    2
    55    32    35    1
    56    32    31    1
    57    48    51    1
    58    35    36    1
    59    38    37    2
    60    51    53    1
    61     8    20   am
    62     8     9    2
    63    59    61    1
    64    20    21    1
    65    36    37    1
    66    37    39   am
    67    21    22    1
    68    21    24    1
    69    22    23    2
    70    24    26    1
    71    24    25    1
    72    27    28    1
    73    30    29    2
    74    28    29    1
