@<TRIPOS>MOLECULE
tmp/4ikwA10.pdb
 136 130 0 0 0
SMALL
GASTEIGER

@<TRIPOS>ATOM
      1  N         29.2600   23.8940   15.2340 N.3    85  TRP85      -0.1227
      2  CA        30.4130   24.3910   15.9850 C.3    85  TRP85       0.1737
      3  C         30.4610   25.9210   16.0040 C.2    85  TRP85       0.2595
      4  O         30.8170   26.5220   17.0180 O.2    85  TRP85      -0.2718
      5  CB        31.6990   23.8260   15.3780 C.3    85  TRP85       0.0564
      6  CG        32.9390   24.1520   16.1230 C.ar   85  TRP85       0.0003
      7  CD1       33.5290   23.4030   17.1090 C.ar   85  TRP85       0.0946
      8  CD2       33.7750   25.3010   15.9390 C.ar   85  TRP85       0.0152
      9  NE1       34.6720   24.0240   17.5520 N.ar   85  TRP85      -0.2442
     10  CE2       34.8450   25.1900   16.8500 C.ar   85  TRP85       0.0810
     11  CE3       33.7220   26.4130   15.0940 C.ar   85  TRP85       0.0012
     12  CZ2       35.8510   26.1490   16.9360 C.ar   85  TRP85       0.0191
     13  CZ3       34.7200   27.3620   15.1840 C.ar   85  TRP85       0.0001
     14  CH2       35.7700   27.2250   16.0950 C.ar   85  TRP85       0.0015
     15  N         30.0960   26.5510   14.8820 N.am   86  LEU86      -0.1980
     16  CA        30.1200   28.0170   14.7810 C.3    86  LEU86       0.1596
     17  C         29.0710   28.6820   15.6720 C.2    86  LEU86       0.2287
     18  O         29.3230   29.7310   16.2720 O.2    86  LEU86      -0.2864
     19  CB        29.9460   28.4770   13.3310 C.3    86  LEU86       0.0297
     20  CG        31.1600   28.4060   12.4010 C.3    86  LEU86       0.0022
     21  CD1       30.7400   28.6400   10.9500 C.3    86  LEU86       0.0001
     22  CD2       32.2090   29.4170   12.8020 C.3    86  LEU86       0.0001
     23  N         30.3870   27.9390   19.4490 N.3    89  ARG89      -0.1231
     24  CA        31.6440   28.5180   19.9090 C.3    89  ARG89       0.1694
     25  C         31.9180   29.9510   19.4540 C.2    89  ARG89       0.2592
     26  O         32.8310   30.5910   19.9710 O.2    89  ARG89      -0.2718
     27  CB        32.8250   27.6280   19.5130 C.3    89  ARG89       0.0321
     28  CG        32.7770   26.2160   20.0660 C.3    89  ARG89       0.0489
     29  CD        34.1360   25.7930   20.5930 C.3    89  ARG89       0.2205
     30  NE        34.4850   26.5110   21.8190 N.pl3  89  ARG89      -0.0865
     31  CZ        35.6650   26.4320   22.4260 C.cat  89  ARG89       0.5346
     32  NH1       36.6270   25.6710   21.9210 N.pl3  89  ARG89       0.1354
     33  NH2       35.8870   27.1200   23.5380 N.pl3  89  ARG89       0.1354
     34  N         31.1540   30.4620   18.4920 N.am   90  VAL90      -0.1966
     35  CA        31.4160   31.8260   18.0200 C.3    90  VAL90       0.1727
     36  C         30.1940   32.7500   17.8150 C.2    90  VAL90       0.2616
     37  O         30.2670   33.9360   18.1370 O.2    90  VAL90      -0.2715
     38  CB        32.4230   31.8570   16.8050 C.3    90  VAL90       0.0290
     39  CG1       32.6100   30.4780   16.1880 C.3    90  VAL90       0.0023
     40  CG2       32.0360   32.8950   15.7600 C.3    90  VAL90       0.0023
     41  N         29.0740   32.2230   17.3210 N.am   91  PHE91      -0.1974
     42  CA        27.9300   33.0850   16.9970 C.3    91  PHE91       0.1639
     43  C         26.7560   33.0170   17.9670 C.2    91  PHE91       0.2290
     44  O         26.0040   33.9870   18.1150 O.2    91  PHE91      -0.2864
     45  CB        27.4060   32.7650   15.5910 C.3    91  PHE91       0.0560
     46  CG        28.3540   33.1340   14.4930 C.ar   91  PHE91      -0.0200
     47  CD1       28.5050   32.3170   13.3940 C.ar   91  PHE91      -0.0042
     48  CD2       29.0860   34.3040   14.5560 C.ar   91  PHE91      -0.0042
     49  CE1       29.3740   32.6540   12.3740 C.ar   91  PHE91      -0.0003
     50  CE2       29.9610   34.6440   13.5370 C.ar   91  PHE91      -0.0003
     51  CZ        30.1040   33.8150   12.4480 C.ar   91  PHE91      -0.0000
     52  N         22.4080   34.7010    9.8040 N.3    99  TYR99      -0.1241
     53  CA        23.4290   34.7480    8.7560 C.3    99  TYR99       0.1605
     54  C         23.2440   33.6130    7.7570 C.2    99  TYR99       0.2264
     55  O         23.4000   33.8110    6.5520 O.2    99  TYR99      -0.2867
     56  CB        24.8390   34.7280    9.3540 C.3    99  TYR99       0.0534
     57  CG        25.1700   36.0000   10.0960 C.ar   99  TYR99      -0.0201
     58  CD1       24.9840   37.2400    9.5000 C.ar   99  TYR99      -0.0009
     59  CD2       25.6390   35.9670   11.3990 C.ar   99  TYR99      -0.0009
     60  CE1       25.2700   38.4100   10.1790 C.ar   99  TYR99       0.0417
     61  CE2       25.9270   37.1320   12.0870 C.ar   99  TYR99       0.0417
     62  CZ        25.7370   38.3490   11.4730 C.ar   99  TYR99       0.1957
     63  OH        26.0290   39.5100   12.1540 O.3    99  TYR99      -0.2866
     64  N         22.6830   34.0000    3.6790 N.3   103  LEU103     -0.1245
     65  CA        23.5250   33.2690    2.7370 C.3   103  LEU103      0.1561
     66  C         22.7140   32.3660    1.8170 C.2   103  LEU103      0.2260
     67  O         23.0090   32.2550    0.6320 O.2   103  LEU103     -0.2867
     68  CB        24.5620   32.4360    3.4920 C.3   103  LEU103      0.0270
     69  CG        25.6310   33.3000    4.1460 C.3   103  LEU103      0.0019
     70  CD1       26.6400   32.4350    4.8690 C.3   103  LEU103      0.0001
     71  CD2       26.3030   34.1670    3.0810 C.3   103  LEU103      0.0001
     72  N         27.1470   26.6110    2.7570 N.3   129  LEU129     -0.1245
     73  CA        27.5340   27.3850    3.9320 C.3   129  LEU129      0.1561
     74  C         26.3250   27.7830    4.7980 C.2   129  LEU129      0.2260
     75  O         26.3300   27.5750    6.0170 O.2   129  LEU129     -0.2867
     76  CB        28.2870   28.6370    3.4970 C.3   129  LEU129      0.0270
     77  CG        29.4520   29.1260    4.3670 C.3   129  LEU129      0.0019
     78  CD1       29.7140   30.6010    4.0970 C.3   129  LEU129      0.0001
     79  CD2       29.2520   28.8740    5.8670 C.3   129  LEU129      0.0001
     80  N         24.7120   26.7180    8.6440 N.3   133  LEU133     -0.1245
     81  CA        24.5230   27.6510    9.7440 C.3   133  LEU133      0.1561
     82  C         23.0920   27.6500   10.2690 C.2   133  LEU133      0.2260
     83  O         22.8680   27.7370   11.4830 O.2   133  LEU133     -0.2867
     84  CB        24.9320   29.0700    9.3260 C.3   133  LEU133      0.0270
     85  CG        26.4420   29.3500    9.3630 C.3   133  LEU133      0.0019
     86  CD1       26.8040   30.6050    8.5600 C.3   133  LEU133      0.0001
     87  CD2       26.9400   29.4620   10.8180 C.3   133  LEU133      0.0001
     88  N         26.7370   33.0010   23.3790 N.3   217  VAL217     -0.1245
     89  CA        27.6770   31.9900   22.8960 C.3   217  VAL217      0.1561
     90  C         27.9530   30.9500   23.9850 C.2   217  VAL217      0.2260
     91  O         28.7170   31.2160   24.9090 O.2   217  VAL217     -0.2867
     92  CB        29.0140   32.6270   22.4470 C.3   217  VAL217      0.0252
     93  CG1       29.9070   31.5880   21.7700 C.3   217  VAL217      0.0019
     94  CG2       28.7630   33.8110   21.5330 C.3   217  VAL217      0.0019
     95  N         32.2480   29.7320   24.2580 N.3   220  PRO220     -0.2102
     96  CA        33.1170   30.6910   23.5650 C.3   220  PRO220      0.1504
     97  C         34.5960   30.2950   23.5530 C.2   220  PRO220      0.2575
     98  O         35.0820   29.6690   24.4990 O.2   220  PRO220     -0.2718
     99  CB        32.9270   31.9770   24.3790 C.3   220  PRO220      0.0282
    100  CG        32.5170   31.5030   25.7400 C.3   220  PRO220      0.0208
    101  CD        31.6860   30.2870   25.5040 C.3   220  PRO220      0.0893
    102  N         35.3010   30.6660   22.4880 N.am  221  LEU221     -0.1980
    103  CA        36.7500   30.5090   22.4370 C.3   221  LEU221      0.1596
    104  C         37.3870   31.4960   23.4060 C.2   221  LEU221      0.2287
    105  O         36.8950   32.6150   23.5600 O.2   221  LEU221     -0.2864
    106  CB        37.2810   30.7900   21.0250 C.3   221  LEU221      0.0297
    107  CG        37.3170   29.7290   19.9180 C.3   221  LEU221      0.0022
    108  CD1       36.1430   28.7830   19.9790 C.3   221  LEU221      0.0001
    109  CD2       37.3860   30.4000   18.5540 C.3   221  LEU221      0.0001
    110  N         40.9340   32.5110   19.9720 N.3   226  LYS226     -0.1245
    111  CA        40.4910   33.4430   18.9310 C.3   226  LYS226      0.1561
    112  C         41.6300   33.8330   17.9980 C.2   226  LYS226      0.2260
    113  O         41.4370   33.9720   16.7940 O.2   226  LYS226     -0.2867
    114  CB        39.8990   34.7060   19.5510 C.3   226  LYS226      0.0271
    115  CG        38.6260   34.4950   20.3480 C.3   226  LYS226      0.0035
    116  CD        38.2640   35.7740   21.0820 C.3   226  LYS226      0.0206
    117  CE        36.7630   36.0230   21.0960 C.3   226  LYS226      0.1093
    118  NZ        36.0370   35.1720   22.0790 N.3   226  LYS226     -0.1314
    119  N         42.5410   30.4770   15.9690 N.3   229  ALA229     -0.1231
    120  CA        41.5590   30.2750   14.9060 C.3   229  ALA229      0.1694
    121  C         41.7530   31.2600   13.7550 C.2   229  ALA229      0.2591
    122  O         41.6990   30.8740   12.5880 O.2   229  ALA229     -0.2718
    123  CB        40.1500   30.3840   15.4620 C.3   229  ALA229      0.0304
    124  N         41.9820   32.5280   14.0900 N.am  230  ALA230     -0.1980
    125  CA        42.1560   33.5690   13.0800 C.3   230  ALA230      0.1597
    126  C         43.3470   33.2660   12.1800 C.2   230  ALA230      0.2287
    127  O         43.2610   33.4040   10.9580 O.2   230  ALA230     -0.2864
    128  CB        42.3150   34.9370   13.7370 C.3   230  ALA230      0.0319
    129  N         42.6630   30.1010    9.9540 N.3   233  MET233     -0.1245
    130  CA        41.7430   30.4740    8.8840 C.3   233  MET233      0.1570
    131  C         42.4430   31.2470    7.7700 C.2   233  MET233      0.2261
    132  O         42.3430   30.8830    6.5960 O.2   233  MET233     -0.2867
    133  CB        40.6000   31.3160    9.4420 C.3   233  MET233      0.0387
    134  CG        39.5920   30.5350   10.2510 C.3   233  MET233      0.0595
    135  SD        38.7080   31.6100   11.3920 S.3   233  MET233     -0.1393
    136  CE        38.1350   32.8890   10.2760 C.3   233  MET233      0.0692
@<TRIPOS>BOND
     1    67    66    2
     2    66    65    1
     3    65    68    1
     4    65    64    1
     5    72    73    1
     6    71    69    1
     7    68    69    1
     8    76    73    1
     9    76    77    1
    10    73    74    1
    11    78    77    1
    12    69    70    1
    13    77    79    1
    14    74    75    2
    15    55    54    2
    16   132   131    2
    17    54    53    1
    18   131   130    1
    19    86    85    1
    20    80    81    1
    21    53    56    1
    22    53    52    1
    23   130   133    1
    24   130   129    1
    25    84    85    1
    26    84    81    1
    27    56    57    1
    28    85    87    1
    29   133   134    1
    30    58    57   ar
    31    58    60   ar
    32    81    82    1
    33    57    59   ar
    34    60    62   ar
    35   134   135    1
    36    82    83    2
    37   136   135    1
    38    21    20    1
    39   127   126    2
    40    59    61   ar
    41    62    61   ar
    42    62    63    1
    43   126   125    1
    44    49    51   ar
    45    49    47   ar
    46    20    22    1
    47    20    19    1
    48    51    50   ar
    49   122   121    2
    50   125   128    1
    51   125   124    1
    52    19    16    1
    53    47    46   ar
    54    50    48   ar
    55   121   124   am
    56   121   120    1
    57    46    48   ar
    58    46    45    1
    59    16    15    1
    60    16    17    1
    61    15     3   am
    62   120   123    1
    63   120   119    1
    64    11    13   ar
    65    11     8   ar
    66    13    14   ar
    67     1     2    1
    68     5     2    1
    69     5     6    1
    70    45    42    1
    71    17    18    2
    72    40    38    1
    73     8     6   ar
    74     8    10   ar
    75     2     3    1
    76     3     4    2
    77    14    12   ar
    78     6     7   ar
    79    39    38    1
    80   113   112    2
    81    38    35    1
    82    10    12   ar
    83    10     9   ar
    84    42    41    1
    85    42    43    1
    86     7     9   ar
    87    41    36   am
    88    36    35    1
    89    36    37    2
    90    43    44    2
    91   112   111    1
    92    35    34    1
    93    34    25   am
    94   109   107    1
    95   111   114    1
    96   111   110    1
    97    23    24    1
    98    25    24    1
    99    25    26    2
   100    27    24    1
   101    27    28    1
   102   114   115    1
   103   107   108    1
   104   107   106    1
   105    28    29    1
   106   115   116    1
   107    29    30    1
   108   106   103    1
   109   116   117    1
   110   117   118    1
   111    94    92    1
   112    93    92    1
   113    30    31    2
   114    32    31    1
   115    31    33    1
   116   103   102    1
   117   103   104    1
   118    92    89    1
   119   102    97   am
   120    89    88    1
   121    89    90    1
   122   104   105    2
   123    97    96    1
   124    97    98    2
   125    96    95    1
   126    96    99    1
   127    90    91    2
   128    95   101    1
   129    99   100    1
   130   101   100    1
