@<TRIPOS>MOLECULE
tmp/4ikwA09.pdb
 113 110 0 0 0
SMALL
GASTEIGER

@<TRIPOS>ATOM
      1  N          7.1990   18.1810    0.9400 N.3   169  PHE169     -0.1241
      2  CA         6.0730   17.6960    0.1450 C.3   169  PHE169      0.1605
      3  C          5.5540   18.7500   -0.8330 C.2   169  PHE169      0.2264
      4  O          5.2770   18.4400   -1.9940 O.2   169  PHE169     -0.2867
      5  CB         4.9300   17.2210    1.0390 C.3   169  PHE169      0.0534
      6  CG         3.6640   16.9220    0.2850 C.ar  169  PHE169     -0.0203
      7  CD1        3.5220   15.7340   -0.4140 C.ar  169  PHE169     -0.0042
      8  CD2        2.6240   17.8350    0.2630 C.ar  169  PHE169     -0.0042
      9  CE1        2.3690   15.4580   -1.1140 C.ar  169  PHE169     -0.0003
     10  CE2        1.4610   17.5660   -0.4320 C.ar  169  PHE169     -0.0003
     11  CZ         1.3340   16.3770   -1.1270 C.ar  169  PHE169     -0.0000
     12  N          5.7790   20.4910   -5.7540 N.3   173  LEU173     -0.1245
     13  CA         4.5080   20.7630   -6.4100 C.3   173  LEU173      0.1561
     14  C          4.4030   22.2310   -6.7990 C.2   173  LEU173      0.2260
     15  O          3.6890   22.5780   -7.7400 O.2   173  LEU173     -0.2867
     16  CB         3.3340   20.3590   -5.5180 C.3   173  LEU173      0.0270
     17  CG         3.3320   18.8960   -5.0580 C.3   173  LEU173      0.0019
     18  CD1        2.1150   18.5810   -4.1820 C.3   173  LEU173      0.0001
     19  CD2        3.3870   17.9630   -6.2490 C.3   173  LEU173      0.0001
     20  N          0.3030    9.9750  -18.8280 N.3   327  VAL327     -0.1245
     21  CA        -0.7370    9.0230  -18.4660 C.3   327  VAL327      0.1561
     22  C         -2.0100    9.7530  -18.0760 C.2   327  VAL327      0.2260
     23  O         -1.9660   10.9300  -17.7070 O.2   327  VAL327     -0.2867
     24  CB        -0.3190    8.1200  -17.2910 C.3   327  VAL327      0.0252
     25  CG1        0.7940    7.1770  -17.7080 C.3   327  VAL327      0.0019
     26  CG2        0.0930    8.9590  -16.0900 C.3   327  VAL327      0.0019
     27  N          2.6250   14.3630  -16.3080 N.3   332  LEU332     -0.1245
     28  CA         3.2220   14.4810  -14.9820 C.3   332  LEU332      0.1561
     29  C          4.5400   15.2260  -15.0670 C.2   332  LEU332      0.2260
     30  O          5.3240   14.9900  -15.9760 O.2   332  LEU332     -0.2867
     31  CB         3.4970   13.0990  -14.4020 C.3   332  LEU332      0.0270
     32  CG         2.3320   12.1570  -14.1090 C.3   332  LEU332      0.0019
     33  CD1        2.8720   10.7840  -13.7580 C.3   332  LEU332      0.0001
     34  CD2        1.4650   12.7100  -12.9940 C.3   332  LEU332      0.0001
     35  N          7.7340   16.1250   -9.6580 N.3   336  TRP336     -0.1227
     36  CA         6.6840   15.7690   -8.7040 C.3   336  TRP336      0.1737
     37  C          6.9860   14.5060   -7.9110 C.2   336  TRP336      0.2595
     38  O          6.4310   14.3100   -6.8300 O.2   336  TRP336     -0.2718
     39  CB         5.3380   15.6060   -9.4090 C.3   336  TRP336      0.0564
     40  CG         4.8050   16.8720   -9.9730 C.ar  336  TRP336      0.0003
     41  CD1        5.3270   18.1220   -9.8140 C.ar  336  TRP336      0.0946
     42  CD2        3.6410   17.0230  -10.7910 C.ar  336  TRP336      0.0152
     43  NE1        4.5570   19.0420  -10.4830 N.ar  336  TRP336     -0.2442
     44  CE2        3.5140   18.3910  -11.0890 C.ar  336  TRP336      0.0810
     45  CE3        2.6940   16.1300  -11.3050 C.ar  336  TRP336      0.0012
     46  CZ2        2.4780   18.8920  -11.8780 C.ar  336  TRP336      0.0191
     47  CZ3        1.6670   16.6290  -12.0820 C.ar  336  TRP336      0.0001
     48  CH2        1.5670   17.9970  -12.3610 C.ar  336  TRP336      0.0015
     49  N          7.8430   13.6390   -8.4410 N.am  337  PHE337     -0.1976
     50  CA         8.1570   12.3990   -7.7250 C.3   337  PHE337      0.1639
     51  C          8.9230   12.6760   -6.4190 C.2   337  PHE337      0.2290
     52  O          8.8870   11.8810   -5.4740 O.2   337  PHE337     -0.2864
     53  CB         8.8950   11.4080   -8.6380 C.3   337  PHE337      0.0560
     54  CG         8.0160   10.8110   -9.7110 C.ar  337  PHE337     -0.0200
     55  CD1        7.3770    9.5940   -9.5090 C.ar  337  PHE337     -0.0042
     56  CD2        7.8060   11.4760  -10.9090 C.ar  337  PHE337     -0.0042
     57  CE1        6.5560    9.0480  -10.4880 C.ar  337  PHE337     -0.0003
     58  CE2        6.9910   10.9370  -11.8830 C.ar  337  PHE337     -0.0003
     59  CZ         6.3640    9.7170  -11.6710 C.ar  337  PHE337     -0.0000
     60  N          8.0110   14.5670   -4.2820 N.3   339  SER339     -0.1202
     61  CA         7.0160   14.7220   -3.2230 C.3   339  SER339      0.2020
     62  C          6.6340   13.3730   -2.5850 C.2   339  SER339      0.2618
     63  O          5.9720   13.3270   -1.5510 O.2   339  SER339     -0.2717
     64  CB         5.7670   15.4400   -3.7490 C.3   339  SER339      0.2103
     65  OG         5.9920   16.8310   -3.9350 O.3   339  SER339     -0.2182
     66  N          7.0600   12.2730   -3.1950 N.am  340  LEU340     -0.1979
     67  CA         6.6120   10.9490   -2.7420 C.3   340  LEU340      0.1596
     68  C          7.2150   10.5190   -1.3970 C.2   340  LEU340      0.2287
     69  O          6.5000   10.0540   -0.5060 O.2   340  LEU340     -0.2864
     70  CB         6.8450    9.8860   -3.8310 C.3   340  LEU340      0.0297
     71  CG         5.9650    9.9860   -5.0820 C.3   340  LEU340      0.0022
     72  CD1        6.3980    8.9890   -6.1520 C.3   340  LEU340      0.0001
     73  CD2        4.4790    9.7990   -4.7280 C.3   340  LEU340      0.0001
     74  N          5.6260   12.4790    1.4650 N.3   343  LEU343     -0.1245
     75  CA         4.2120   12.1190    1.5510 C.3   343  LEU343      0.1561
     76  C          4.0420   10.8220    2.3360 C.2   343  LEU343      0.2260
     77  O          3.2510   10.7410    3.2830 O.2   343  LEU343     -0.2867
     78  CB         3.6040   11.9390    0.1550 C.3   343  LEU343      0.0270
     79  CG         2.1800   11.3650    0.1610 C.3   343  LEU343      0.0019
     80  CD1        1.2420   12.2880    0.9190 C.3   343  LEU343      0.0001
     81  CD2        1.6530   11.1090   -1.2570 C.3   343  LEU343      0.0001
     82  N          5.8840    2.2420  -16.8960 N.3   397  HIS397     -0.1227
     83  CA         4.7700    2.8350  -16.1390 C.3   397  HIS397      0.1737
     84  C          5.2640    3.4700  -14.8310 C.2   397  HIS397      0.2438
     85  O          6.0750    2.8820  -14.1290 O.2   397  HIS397     -0.2733
     86  CB         3.7060    1.7680  -15.8310 C.3   397  HIS397      0.0758
     87  CG         2.3810    2.3310  -15.4000 C.ar  397  HIS397      0.0818
     88  ND1        2.1720    2.8910  -14.1560 N.ar  397  HIS397     -0.2268
     89  CD2        1.1940    2.4150  -16.0500 C.ar  397  HIS397      0.1154
     90  CE1        0.9200    3.2970  -14.0590 C.ar  397  HIS397      0.1986
     91  NE2        0.3030    3.0230  -15.1970 N.ar  397  HIS397     -0.2212
     92  N          4.7640    4.6710  -14.4940 N.am  398  PRO398     -0.2718
     93  CA         5.2030    5.3640  -13.2710 C.3   398  PRO398      0.1535
     94  C          4.9130    4.6180  -11.9630 C.2   398  PRO398      0.2598
     95  O          5.5560    4.9170  -10.9570 O.2   398  PRO398     -0.2715
     96  CB         4.4090    6.6770  -13.3090 C.3   398  PRO398      0.0310
     97  CG         3.2270    6.3830  -14.2030 C.3   398  PRO398      0.0237
     98  CD         3.7800    5.4650  -15.2500 C.3   398  PRO398      0.0939
     99  N          3.9770    3.6720  -11.9720 N.am  399  ILE399     -0.1978
    100  CA         3.6260    2.9200  -10.7610 C.3   399  ILE399      0.1596
    101  C          4.8330    2.2150  -10.1340 C.2   399  ILE399      0.2287
    102  O          4.8830    2.0080   -8.9160 O.2   399  ILE399     -0.2864
    103  CB         2.4860    1.8870  -11.0180 C.3   399  ILE399      0.0276
    104  CG1        1.9230    1.3670   -9.6980 C.3   399  ILE399      0.0022
    105  CG2        2.9700    0.7190  -11.8930 C.3   399  ILE399      0.0022
    106  CD1        1.4590    2.4660   -8.7790 C.3   399  ILE399      0.0001
    107  N          6.8150    4.8440   -8.1210 N.3   402  VAL402     -0.1245
    108  CA         6.0390    5.0470   -6.9010 C.3   402  VAL402      0.1561
    109  C          6.2960    3.9200   -5.8940 C.2   402  VAL402      0.2260
    110  O          6.5540    4.1740   -4.7180 O.2   402  VAL402     -0.2867
    111  CB         4.5270    5.1110   -7.1870 C.3   402  VAL402      0.0252
    112  CG1        3.7440    5.2460   -5.8770 C.3   402  VAL402      0.0019
    113  CG2        4.2060    6.2700   -8.1100 C.3   402  VAL402      0.0019
@<TRIPOS>BOND
     1    20    21    1
     2    21    22    1
     3    21    24    1
     4    22    23    2
     5    25    24    1
     6    24    26    1
     7    82    83    1
     8    27    28    1
     9    83    86    1
    10    83    84    1
    11    89    87   ar
    12    89    91   ar
    13    30    29    2
    14    86    87    1
    15    87    88   ar
    16    98    92    1
    17    98    97    1
    18    91    90   ar
    19    29    28    1
    20    28    31    1
    21    84    92   am
    22    84    85    2
    23    92    93    1
    24    31    32    1
    25    97    96    1
    26    88    90   ar
    27    32    33    1
    28    32    34    1
    29    96    93    1
    30    93    94    1
    31    48    47   ar
    32    48    46   ar
    33    47    45   ar
    34    99    94   am
    35    99   100    1
    36    94    95    2
    37   105   103    1
    38    58    59   ar
    39    58    56   ar
    40    46    44   ar
    41    59    57   ar
    42    45    42   ar
    43    44    42   ar
    44    44    43   ar
    45   103   100    1
    46   103   104    1
    47    56    54   ar
    48    42    40   ar
    49   100   101    1
    50    57    55   ar
    51    43    41   ar
    52   101   102    2
    53    40    41   ar
    54    40    39    1
    55    54    55   ar
    56    54    53    1
    57   104   106    1
    58    35    36    1
    59    39    36    1
    60    36    37    1
    61    53    50    1
    62    49    37   am
    63    49    50    1
    64   107   108    1
    65   113   111    1
    66    37    38    2
    67    15    14    2
    68    50    51    1
    69   111   108    1
    70   111   112    1
    71   108   109    1
    72    14    13    1
    73    51    52    2
    74    13    12    1
    75    13    16    1
    76    19    17    1
    77    72    71    1
    78   109   110    2
    79    16    17    1
    80    71    73    1
    81    71    70    1
    82    17    18    1
    83    60    61    1
    84    65    64    1
    85    70    67    1
    86    64    61    1
    87    61    62    1
    88    66    67    1
    89    66    62   am
    90    67    68    1
    91    62    63    2
    92     4     3    2
    93    68    69    2
    94    81    79    1
    95    11     9   ar
    96    11    10   ar
    97     9     7   ar
    98     3     2    1
    99    10     8   ar
   100     7     6   ar
   101     2     1    1
   102     2     5    1
   103    78    79    1
   104    78    75    1
   105    79    80    1
   106     8     6   ar
   107     6     5    1
   108    74    75    1
   109    75    76    1
   110    76    77    2
