@<TRIPOS>MOLECULE
tmp/4ikyA05.pdb
 100 97 0 0 0
SMALL
GASTEIGER

@<TRIPOS>ATOM
      1  N         29.2610    8.7120   15.2070 N.3    85  TRP85      -0.1227
      2  CA        30.4200    9.1370   15.9780 C.3    85  TRP85       0.1737
      3  C         30.5100   10.6600   16.0230 C.2    85  TRP85       0.2595
      4  O         30.8750   11.2350   17.0480 O.2    85  TRP85      -0.2718
      5  CB        31.6950    8.5470   15.3740 C.3    85  TRP85       0.0564
      6  CG        32.9420    8.8720   16.1340 C.ar   85  TRP85       0.0003
      7  CD1       33.5060    8.1360   17.1360 C.ar   85  TRP85       0.0946
      8  CD2       33.7870   10.0120   15.9500 C.ar   85  TRP85       0.0152
      9  NE1       34.6470    8.7500   17.5900 N.ar   85  TRP85      -0.2442
     10  CE2       34.8420    9.9040   16.8770 C.ar   85  TRP85       0.0810
     11  CE3       33.7530   11.1140   15.0900 C.ar   85  TRP85       0.0012
     12  CZ2       35.8550   10.8570   16.9700 C.ar   85  TRP85       0.0191
     13  CZ3       34.7590   12.0610   15.1850 C.ar   85  TRP85       0.0001
     14  CH2       35.7950   11.9260   16.1170 C.ar   85  TRP85       0.0015
     15  N         30.1670   11.3060   14.9110 N.am   86  LEU86      -0.1980
     16  CA        30.2420   12.7630   14.8040 C.3    86  LEU86       0.1596
     17  C         29.2480   13.4860   15.7110 C.2    86  LEU86       0.2287
     18  O         29.5640   14.5270   16.2830 O.2    86  LEU86      -0.2864
     19  CB        30.0470   13.2130   13.3530 C.3    86  LEU86       0.0297
     20  CG        31.2590   13.0920   12.4260 C.3    86  LEU86       0.0022
     21  CD1       30.8720   13.4070   10.9890 C.3    86  LEU86       0.0001
     22  CD2       32.3780   14.0110   12.8920 C.3    86  LEU86       0.0001
     23  N         30.3410   12.8060   19.5050 N.3    89  ARG89      -0.1231
     24  CA        31.6170   13.3530   19.9570 C.3    89  ARG89       0.1694
     25  C         31.8780   14.8080   19.5800 C.2    89  ARG89       0.2592
     26  O         32.7550   15.4450   20.1590 O.2    89  ARG89      -0.2718
     27  CB        32.7760   12.4840   19.4660 C.3    89  ARG89       0.0321
     28  CG        32.7510   11.0610   19.9910 C.3    89  ARG89       0.0489
     29  CD        34.1100   10.6630   20.5410 C.3    89  ARG89       0.2205
     30  NE        34.4380   11.4040   21.7570 N.pl3  89  ARG89      -0.0865
     31  CZ        35.6060   11.3340   22.3880 C.cat  89  ARG89       0.5346
     32  NH1       36.5760   10.5610   21.9190 N.pl3  89  ARG89       0.1354
     33  NH2       35.8080   12.0440   23.4890 N.pl3  89  ARG89       0.1354
     34  N         31.1390   15.3380   18.6120 N.am   90  VAL90      -0.1966
     35  CA        31.3910   16.7150   18.1870 C.3    90  VAL90       0.1727
     36  C         30.1520   17.5790   17.9180 C.2    90  VAL90       0.2616
     37  O         30.0690   18.7050   18.4040 O.2    90  VAL90      -0.2715
     38  CB        32.4100   16.7880   17.0030 C.3    90  VAL90       0.0290
     39  CG1       32.5290   15.4510   16.2800 C.3    90  VAL90       0.0023
     40  CG2       32.0660   17.9220   16.0460 C.3    90  VAL90       0.0023
     41  N         29.1870   17.0540   17.1710 N.am   91  PHE91      -0.1974
     42  CA        28.0340   17.8520   16.7600 C.3    91  PHE91       0.1639
     43  C         26.8610   17.8470   17.7450 C.2    91  PHE91       0.2290
     44  O         26.2770   18.8940   18.0290 O.2    91  PHE91      -0.2864
     45  CB        27.5380   17.3940   15.3870 C.3    91  PHE91       0.0560
     46  CG        28.4430   17.7780   14.2550 C.ar   91  PHE91      -0.0200
     47  CD1       28.5740   16.9550   13.1500 C.ar   91  PHE91      -0.0042
     48  CD2       29.1520   18.9660   14.2880 C.ar   91  PHE91      -0.0042
     49  CE1       29.4010   17.3050   12.1040 C.ar   91  PHE91      -0.0003
     50  CE2       29.9820   19.3190   13.2430 C.ar   91  PHE91      -0.0003
     51  CZ        30.1050   18.4870   12.1500 C.ar   91  PHE91      -0.0000
     52  N         26.6150   17.6900   23.4920 N.3   217  VAL217     -0.1245
     53  CA        27.5940   16.7030   23.0540 C.3   217  VAL217      0.1561
     54  C         27.8590   15.6960   24.1690 C.2   217  VAL217      0.2260
     55  O         28.5310   16.0170   25.1470 O.2   217  VAL217     -0.2867
     56  CB        28.9240   17.3680   22.6600 C.3   217  VAL217      0.0252
     57  CG1       29.8390   16.3570   21.9870 C.3   217  VAL217      0.0019
     58  CG2       28.6720   18.5590   21.7460 C.3   217  VAL217      0.0019
     59  N         32.2590   14.6310   24.3020 N.3   220  PRO220     -0.2102
     60  CA        33.1050   15.6080   23.6040 C.3   220  PRO220      0.1504
     61  C         34.5920   15.2640   23.6780 C.2   220  PRO220      0.2575
     62  O         35.0320   14.6390   24.6410 O.2   220  PRO220     -0.2718
     63  CB        32.8250   16.9090   24.3620 C.3   220  PRO220      0.0282
     64  CG        32.4550   16.4640   25.7340 C.3   220  PRO220      0.0208
     65  CD        31.6950   15.1810   25.5480 C.3   220  PRO220      0.0893
     66  N         35.3520   15.6730   22.6660 N.am  221  LEU221     -0.1980
     67  CA        36.7920   15.4360   22.6370 C.3   221  LEU221      0.1596
     68  C         37.5190   16.3220   23.6430 C.2   221  LEU221      0.2287
     69  O         37.0840   17.4380   23.9260 O.2   221  LEU221     -0.2864
     70  CB        37.3580   15.7020   21.2390 C.3   221  LEU221      0.0297
     71  CG        37.4610   14.5550   20.2310 C.3   221  LEU221      0.0022
     72  CD1       36.1180   13.8790   20.0150 C.3   221  LEU221      0.0001
     73  CD2       38.0260   15.0650   18.9110 C.3   221  LEU221      0.0001
     74  N         41.1740   17.2670   20.0610 N.3   226  LYS226     -0.1245
     75  CA        40.7360   18.1730   19.0040 C.3   226  LYS226      0.1561
     76  C         41.8640   18.4760   18.0220 C.2   226  LYS226      0.2260
     77  O         41.6630   18.4400   16.8080 O.2   226  LYS226     -0.2867
     78  CB        40.1950   19.4780   19.5960 C.3   226  LYS226      0.0271
     79  CG        38.8640   19.3410   20.3240 C.3   226  LYS226      0.0035
     80  CD        38.3290   20.7040   20.7410 C.3   226  LYS226      0.0206
     81  CE        36.8920   20.6160   21.2350 C.3   226  LYS226      0.1093
     82  NZ        36.7580   19.7340   22.4280 N.3   226  LYS226     -0.1314
     83  N         42.8330   15.0680   16.2840 N.3   229  ALA229     -0.1231
     84  CA        41.8600   14.7150   15.2580 C.3   229  ALA229      0.1694
     85  C         42.0220   15.5790   14.0140 C.2   229  ALA229      0.2591
     86  O         42.2210   15.0590   12.9180 O.2   229  ALA229     -0.2718
     87  CB        40.4430   14.8300   15.8020 C.3   229  ALA229      0.0304
     88  N         41.9480   16.8950   14.1990 N.am  230  ALA230     -0.1980
     89  CA        42.0000   17.8580   13.0980 C.3   230  ALA230      0.1597
     90  C         43.2000   17.6720   12.1690 C.2   230  ALA230      0.2287
     91  O         43.0680   17.7760   10.9500 O.2   230  ALA230     -0.2864
     92  CB        41.9690   19.2800   13.6410 C.3   230  ALA230      0.0319
     93  N         42.7780   14.4680    9.7400 N.3   233  MET233     -0.1245
     94  CA        41.9170   14.7300    8.5910 C.3   233  MET233      0.1570
     95  C         42.5750   15.7170    7.6280 C.2   233  MET233      0.2261
     96  O         42.4970   15.5480    6.4120 O.2   233  MET233     -0.2867
     97  CB        40.5310   15.2220    9.0300 C.3   233  MET233      0.0387
     98  CG        40.4580   15.6870   10.4740 C.3   233  MET233      0.0595
     99  SD        38.8000   16.1480   11.0130 S.3   233  MET233     -0.1393
    100  CE        38.5250   17.6340   10.0510 C.3   233  MET233      0.0692
@<TRIPOS>BOND
     1    96    95    2
     2    95    94    1
     3    94    97    1
     4    94    93    1
     5    97    98    1
     6   100    99    1
     7    98    99    1
     8    91    90    2
     9    21    20    1
    10    49    51   ar
    11    49    47   ar
    12    51    50   ar
    13    90    89    1
    14    20    22    1
    15    20    19    1
    16    86    85    2
    17    89    92    1
    18    89    88    1
    19    47    46   ar
    20    50    48   ar
    21    19    16    1
    22    85    88   am
    23    85    84    1
    24    46    48   ar
    25    46    45    1
    26    16    15    1
    27    16    17    1
    28    15     3   am
    29    11    13   ar
    30    11     8   ar
    31    13    14   ar
    32     1     2    1
    33    84    87    1
    34    84    83    1
    35     5     2    1
    36     5     6    1
    37    45    42    1
    38    17    18    2
    39     8     6   ar
    40     8    10   ar
    41     2     3    1
    42     3     4    2
    43    40    38    1
    44    14    12   ar
    45     6     7   ar
    46    39    38    1
    47    42    41    1
    48    42    43    1
    49    77    76    2
    50    10    12   ar
    51    10     9   ar
    52    38    35    1
    53     7     9   ar
    54    41    36   am
    55    43    44    2
    56    36    35    1
    57    36    37    2
    58    76    75    1
    59    35    34    1
    60    34    25   am
    61    73    71    1
    62    75    78    1
    63    75    74    1
    64    27    24    1
    65    27    28    1
    66    23    24    1
    67    25    24    1
    68    25    26    2
    69    78    79    1
    70    28    29    1
    71    72    71    1
    72    71    70    1
    73    79    80    1
    74    29    30    1
    75    80    81    1
    76    81    82    1
    77    70    67    1
    78    58    56    1
    79    30    31    2
    80    32    31    1
    81    57    56    1
    82    31    33    1
    83    67    66    1
    84    67    68    1
    85    56    53    1
    86    66    61   am
    87    53    52    1
    88    53    54    1
    89    60    61    1
    90    60    59    1
    91    60    63    1
    92    68    69    2
    93    61    62    2
    94    54    55    2
    95    59    65    1
    96    63    64    1
    97    65    64    1
