@<TRIPOS>MOLECULE
tmp/4ikyA04.pdb
 103 99 0 0 0
SMALL
GASTEIGER

@<TRIPOS>ATOM
      1  N          7.2190    2.8970    0.8990 N.3   169  PHE169     -0.1241
      2  CA         6.0880    2.4340    0.1050 C.3   169  PHE169      0.1605
      3  C          5.5920    3.5060   -0.8610 C.2   169  PHE169      0.2264
      4  O          5.3520    3.2280   -2.0350 O.2   169  PHE169     -0.2867
      5  CB         4.9450    1.9740    1.0150 C.3   169  PHE169      0.0534
      6  CG         3.6480    1.7410    0.2910 C.ar  169  PHE169     -0.0203
      7  CD1        3.4610    0.6050   -0.4800 C.ar  169  PHE169     -0.0042
      8  CD2        2.6140    2.6560    0.3880 C.ar  169  PHE169     -0.0042
      9  CE1        2.2670    0.3900   -1.1450 C.ar  169  PHE169     -0.0003
     10  CE2        1.4180    2.4470   -0.2740 C.ar  169  PHE169     -0.0003
     11  CZ         1.2440    1.3120   -1.0400 C.ar  169  PHE169     -0.0000
     12  N          5.8430    5.2360   -5.7970 N.3   173  LEU173     -0.1245
     13  CA         4.5550    5.4840   -6.4330 C.3   173  LEU173      0.1561
     14  C          4.4130    6.9440   -6.8430 C.2   173  LEU173      0.2260
     15  O          3.7090    7.2610   -7.8020 O.2   173  LEU173     -0.2867
     16  CB         3.4020    5.0850   -5.5110 C.3   173  LEU173      0.0270
     17  CG         3.3430    3.6170   -5.0920 C.3   173  LEU173      0.0019
     18  CD1        2.0630    3.3410   -4.3140 C.3   173  LEU173      0.0001
     19  CD2        3.4430    2.7080   -6.3040 C.3   173  LEU173      0.0001
     20  N          0.3190   -5.2720  -18.7660 N.3   327  VAL327     -0.1245
     21  CA        -0.7110   -6.2340  -18.3840 C.3   327  VAL327      0.1561
     22  C         -2.0180   -5.5250  -18.0340 C.2   327  VAL327      0.2260
     23  O         -2.0060   -4.3770  -17.5910 O.2   327  VAL327     -0.2867
     24  CB        -0.2680   -7.1070  -17.1900 C.3   327  VAL327      0.0252
     25  CG1        0.9280   -7.9630  -17.5700 C.3   327  VAL327      0.0019
     26  CG2        0.0500   -6.2400  -15.9790 C.3   327  VAL327      0.0019
     27  N          2.5490   -0.9810  -16.3040 N.3   332  LEU332     -0.1245
     28  CA         3.1440   -0.8670  -14.9780 C.3   332  LEU332      0.1561
     29  C          4.5070   -0.1950  -15.0650 C.2   332  LEU332      0.2260
     30  O          5.2690   -0.4380  -16.0000 O.2   332  LEU332     -0.2867
     31  CB         3.2900   -2.2460  -14.3300 C.3   332  LEU332      0.0270
     32  CG         2.0100   -3.0130  -13.9910 C.3   332  LEU332      0.0019
     33  CD1        2.3430   -4.4260  -13.5370 C.3   332  LEU332      0.0001
     34  CD2        1.2100   -2.2820  -12.9260 C.3   332  LEU332      0.0001
     35  N          7.7760    0.8550   -9.5890 N.3   336  TRP336     -0.1227
     36  CA         6.7280    0.5120   -8.6310 C.3   336  TRP336      0.1737
     37  C          7.0450   -0.7540   -7.8390 C.2   336  TRP336      0.2595
     38  O          6.5480   -0.9370   -6.7300 O.2   336  TRP336     -0.2718
     39  CB         5.3750    0.3700   -9.3310 C.3   336  TRP336      0.0564
     40  CG         4.8490    1.6570   -9.8800 C.ar  336  TRP336      0.0003
     41  CD1        5.3560    2.9060   -9.6700 C.ar  336  TRP336      0.0946
     42  CD2        3.7140    1.8230  -10.7350 C.ar  336  TRP336      0.0152
     43  NE1        4.6050    3.8400  -10.3390 N.ar  336  TRP336     -0.2442
     44  CE2        3.5910    3.2010  -11.0010 C.ar  336  TRP336      0.0810
     45  CE3        2.7890    0.9400  -11.3000 C.ar  336  TRP336      0.0012
     46  CZ2        2.5800    3.7170  -11.8100 C.ar  336  TRP336      0.0191
     47  CZ3        1.7850    1.4540  -12.1030 C.ar  336  TRP336      0.0001
     48  CH2        1.6880    2.8290  -12.3500 C.ar  336  TRP336      0.0015
     49  N          7.8770   -1.6220   -8.4070 N.am  337  PHE337     -0.1976
     50  CA         8.2430   -2.8710   -7.7430 C.3   337  PHE337      0.1639
     51  C          9.0540   -2.6430   -6.4680 C.2   337  PHE337      0.2290
     52  O          9.1630   -3.5350   -5.6270 O.2   337  PHE337     -0.2864
     53  CB         8.9980   -3.7960   -8.7020 C.3   337  PHE337      0.0560
     54  CG         8.1180   -4.4430   -9.7290 C.ar  337  PHE337     -0.0200
     55  CD1        7.5750   -5.6970   -9.5030 C.ar  337  PHE337     -0.0042
     56  CD2        7.8200   -3.7900  -10.9130 C.ar  337  PHE337     -0.0042
     57  CE1        6.7560   -6.2920  -10.4460 C.ar  337  PHE337     -0.0003
     58  CE2        7.0030   -4.3780  -11.8570 C.ar  337  PHE337     -0.0003
     59  CZ         6.4720   -5.6310  -11.6240 C.ar  337  PHE337     -0.0000
     60  N          8.1210   -0.7220   -4.2110 N.3   339  SER339     -0.1202
     61  CA         7.1240   -0.5340   -3.1610 C.3   339  SER339      0.2020
     62  C          6.6930   -1.8710   -2.5670 C.2   339  SER339      0.2618
     63  O          6.0340   -1.9150   -1.5270 O.2   339  SER339     -0.2717
     64  CB         5.9000    0.2060   -3.7050 C.3   339  SER339      0.2103
     65  OG         6.2220    1.5310   -4.0860 O.3   339  SER339     -0.2182
     66  N          7.0680   -2.9590   -3.2310 N.am  340  LEU340     -0.1979
     67  CA         6.6320   -4.2890   -2.8210 C.3   340  LEU340      0.1596
     68  C          7.1970   -4.7130   -1.4640 C.2   340  LEU340      0.2287
     69  O          6.4510   -5.1680   -0.5970 O.2   340  LEU340     -0.2864
     70  CB         6.9590   -5.3280   -3.9000 C.3   340  LEU340      0.0297
     71  CG         6.1050   -5.2820   -5.1720 C.3   340  LEU340      0.0022
     72  CD1        6.5340   -6.3660   -6.1460 C.3   340  LEU340      0.0001
     73  CD2        4.6260   -5.4190   -4.8360 C.3   340  LEU340      0.0001
     74  N          5.6500   -2.7220    1.4870 N.3   343  LEU343     -0.1245
     75  CA         4.2340   -3.0790    1.5750 C.3   343  LEU343      0.1561
     76  C          4.0270   -4.4050    2.2990 C.2   343  LEU343      0.2260
     77  O          3.2140   -4.5010    3.2200 O.2   343  LEU343     -0.2867
     78  CB         3.6070   -3.1590    0.1800 C.3   343  LEU343      0.0270
     79  CG         2.2170   -3.8010    0.1020 C.3   343  LEU343      0.0019
     80  CD1        1.1850   -2.9810    0.8640 C.3   343  LEU343      0.0001
     81  CD2        1.7870   -3.9990   -1.3480 C.3   343  LEU343      0.0001
     82  N          4.6290  -10.5770  -14.4190 N.3   398  PRO398     -0.2102
     83  CA         5.0020   -9.8220  -13.2150 C.3   398  PRO398      0.1504
     84  C          4.7210  -10.5510  -11.9010 C.2   398  PRO398      0.2575
     85  O          5.2490  -10.1440  -10.8670 O.2   398  PRO398     -0.2718
     86  CB         4.1360   -8.5580  -13.3110 C.3   398  PRO398      0.0282
     87  CG         3.0240   -8.9160  -14.2530 C.3   398  PRO398      0.0208
     88  CD         3.6570   -9.8410  -15.2430 C.3   398  PRO398      0.0893
     89  N          3.9120  -11.6060  -11.9380 N.am  399  ILE399     -0.1980
     90  CA         3.5780  -12.3490  -10.7250 C.3   399  ILE399      0.1595
     91  C          4.8010  -13.0610  -10.1400 C.2   399  ILE399      0.2287
     92  O          4.8730  -13.2970   -8.9350 O.2   399  ILE399     -0.2864
     93  CB         2.4380  -13.3720  -10.9660 C.3   399  ILE399      0.0276
     94  CG1        1.8720  -13.8790   -9.6370 C.3   399  ILE399      0.0022
     95  CG2        2.9170  -14.5340  -11.8230 C.3   399  ILE399      0.0022
     96  CD1        1.3310  -12.7840   -8.7520 C.3   399  ILE399      0.0001
     97  N          6.8430  -10.3850   -8.1310 N.3   402  VAL402     -0.1245
     98  CA         6.0720  -10.1180   -6.9220 C.3   402  VAL402      0.1561
     99  C          6.2610  -11.2340   -5.8940 C.2   402  VAL402      0.2260
    100  O          6.5100  -10.9700   -4.7180 O.2   402  VAL402     -0.2867
    101  CB         4.5680   -9.9590   -7.2350 C.3   402  VAL402      0.0252
    102  CG1        3.7520   -9.9100   -5.9510 C.3   402  VAL402      0.0019
    103  CG2        4.3270   -8.7110   -8.0770 C.3   402  VAL402      0.0019
@<TRIPOS>BOND
     1    20    21    1
     2    21    22    1
     3    21    24    1
     4    22    23    2
     5    25    24    1
     6    24    26    1
     7    27    28    1
     8    30    29    2
     9    88    82    1
    10    88    87    1
    11    29    28    1
    12    28    31    1
    13    82    83    1
    14    31    32    1
    15    87    86    1
    16    32    33    1
    17    32    34    1
    18    86    83    1
    19    83    84    1
    20    48    47   ar
    21    48    46   ar
    22    47    45   ar
    23    89    84   am
    24    89    90    1
    25    84    85    2
    26    58    59   ar
    27    58    56   ar
    28    95    93    1
    29    46    44   ar
    30    59    57   ar
    31    45    42   ar
    32    44    42   ar
    33    44    43   ar
    34    93    90    1
    35    93    94    1
    36    56    54   ar
    37    42    40   ar
    38    90    91    1
    39    57    55   ar
    40    43    41   ar
    41    91    92    2
    42    40    41   ar
    43    40    39    1
    44    54    55   ar
    45    54    53    1
    46    94    96    1
    47    35    36    1
    48    39    36    1
    49    53    50    1
    50    36    37    1
    51    49    37   am
    52    49    50    1
    53    97    98    1
    54   103   101    1
    55    37    38    2
    56    15    14    2
    57    50    51    1
    58   101    98    1
    59   101   102    1
    60    98    99    1
    61    14    13    1
    62    51    52    2
    63    13    12    1
    64    13    16    1
    65    19    17    1
    66    72    71    1
    67    99   100    2
    68    16    17    1
    69    71    73    1
    70    71    70    1
    71    17    18    1
    72    60    61    1
    73    65    64    1
    74    70    67    1
    75    64    61    1
    76    66    67    1
    77    66    62   am
    78    61    62    1
    79    67    68    1
    80    62    63    2
    81     4     3    2
    82    68    69    2
    83    81    79    1
    84     9    11   ar
    85     9     7   ar
    86    11    10   ar
    87     3     2    1
    88     7     6   ar
    89    10     8   ar
    90    79    78    1
    91    79    80    1
    92     2     1    1
    93     2     5    1
    94    78    75    1
    95     6     8   ar
    96     6     5    1
    97    74    75    1
    98    75    76    1
    99    76    77    2
