@<TRIPOS>MOLECULE
tmp/4ikyA03.pdb
 92 88 0 0 0
SMALL
GASTEIGER

@<TRIPOS>ATOM
      1  N          3.5690  -11.9750   11.8660 N.3   352  PHE352     -0.1241
      2  CA         4.7430  -12.6550   12.4020 C.3   352  PHE352      0.1605
      3  C          4.8500  -12.4850   13.9160 C.2   352  PHE352      0.2264
      4  O          5.1740  -13.4330   14.6290 O.2   352  PHE352     -0.2867
      5  CB         6.0160  -12.1450   11.7210 C.3   352  PHE352      0.0534
      6  CG         6.3880  -12.9070   10.4800 C.ar  352  PHE352     -0.0203
      7  CD1        7.4840  -13.7540   10.4790 C.ar  352  PHE352     -0.0042
      8  CD2        5.6430  -12.7820    9.3180 C.ar  352  PHE352     -0.0042
      9  CE1        7.8360  -14.4570    9.3420 C.ar  352  PHE352     -0.0003
     10  CE2        5.9890  -13.4840    8.1770 C.ar  352  PHE352     -0.0003
     11  CZ         7.0870  -14.3240    8.1900 C.ar  352  PHE352     -0.0000
     12  N          2.5120  -14.6480   15.5700 N.3   355  MET355     -0.1230
     13  CA         2.9830  -16.0220   15.4450 C.3   355  MET355      0.1702
     14  C          4.0080  -16.3620   16.5250 C.2   355  MET355      0.2592
     15  O          3.9270  -17.4200   17.1500 O.2   355  MET355     -0.2718
     16  CB         3.5670  -16.2760   14.0520 C.3   355  MET355      0.0401
     17  CG         4.1480  -17.6710   13.8750 C.3   355  MET355      0.0596
     18  SD         4.7500  -17.9760   12.2020 S.3   355  MET355     -0.1393
     19  CE         5.9020  -16.6190   12.0030 C.3   355  MET355      0.0692
     20  N          4.9660  -15.4640   16.7450 N.am  356  TRP356     -0.1976
     21  CA         5.9860  -15.6840   17.7650 C.3   356  TRP356      0.1640
     22  C          5.3600  -15.7720   19.1560 C.2   356  TRP356      0.2290
     23  O          5.7610  -16.5990   19.9760 O.2   356  TRP356     -0.2864
     24  CB         7.0480  -14.5810   17.7370 C.3   356  TRP356      0.0576
     25  CG         7.7260  -14.3740   16.4030 C.ar  356  TRP356      0.0006
     26  CD1        7.9310  -13.1810   15.7730 C.ar  356  TRP356      0.0946
     27  CD2        8.2920  -15.3790   15.5470 C.ar  356  TRP356      0.0152
     28  NE1        8.5850  -13.3780   14.5820 N.ar  356  TRP356     -0.2442
     29  CE2        8.8170  -14.7180   14.4200 C.ar  356  TRP356      0.0810
     30  CE3        8.4030  -16.7720   15.6250 C.ar  356  TRP356      0.0012
     31  CZ2        9.4410  -15.4000   13.3780 C.ar  356  TRP356      0.0191
     32  CZ3        9.0230  -17.4450   14.5890 C.ar  356  TRP356      0.0001
     33  CH2        9.5350  -16.7600   13.4820 C.ar  356  TRP356      0.0015
     34  N          3.5180  -19.0690   19.4160 N.3   359  LEU359     -0.1245
     35  CA         4.4740  -20.1650   19.5250 C.3   359  LEU359      0.1561
     36  C          5.0440  -20.2540   20.9350 C.2   359  LEU359      0.2260
     37  O          5.2040  -21.3450   21.4820 O.2   359  LEU359     -0.2867
     38  CB         5.6040  -20.0010   18.5050 C.3   359  LEU359      0.0270
     39  CG         5.2860  -20.3760   17.0560 C.3   359  LEU359      0.0019
     40  CD1        6.4170  -19.9580   16.1300 C.3   359  LEU359      0.0001
     41  CD2        5.0160  -21.8700   16.9340 C.3   359  LEU359      0.0001
     42  N          7.8570  -22.7000   22.0470 N.3   362  ARG362     -0.1245
     43  CA         8.0860  -23.5450   20.8790 C.3   362  ARG362      0.1563
     44  C          8.6290  -22.7630   19.6850 C.2   362  ARG362      0.2260
     45  O          8.9190  -23.3430   18.6380 O.2   362  ARG362     -0.2867
     46  CB         6.8000  -24.2830   20.5010 C.3   362  ARG362      0.0307
     47  CG         6.3900  -25.3260   21.5250 C.3   362  ARG362      0.0489
     48  CD         4.8820  -25.4750   21.6240 C.3   362  ARG362      0.2205
     49  NE         4.5230  -26.3920   22.7020 N.pl3 362  ARG362     -0.0865
     50  CZ         4.3320  -26.0240   23.9650 C.cat 362  ARG362      0.5346
     51  NH1        4.0160  -26.9310   24.8790 N.pl3 362  ARG362      0.1354
     52  NH2        4.4550  -24.7500   24.3150 N.pl3 362  ARG362      0.1354
     53  N         11.2020  -20.7290   17.2580 N.3   364  PRO364     -0.2116
     54  CA        12.6050  -20.9670   16.9050 C.3   364  PRO364      0.1372
     55  C         13.5290  -20.0210   17.6580 C.2   364  PRO364      0.2244
     56  O         13.1160  -18.9200   18.0230 O.2   364  PRO364     -0.2868
     57  CB        12.6500  -20.6420   15.4090 C.3   364  PRO364      0.0268
     58  CG        11.2510  -20.7970   14.9370 C.3   364  PRO364      0.0207
     59  CD        10.3910  -20.3660   16.0830 C.3   364  PRO364      0.0892
     60  N         16.3310  -19.5850    8.9350 N.3   372  LEU372     -0.1245
     61  CA        15.0580  -19.4810    8.2290 C.3   372  LEU372      0.1561
     62  C         15.0710  -18.3240    7.2350 C.2   372  LEU372      0.2260
     63  O         14.6150  -18.4660    6.1020 O.2   372  LEU372     -0.2867
     64  CB        13.9020  -19.3090    9.2160 C.3   372  LEU372      0.0270
     65  CG        13.4750  -20.5470   10.0070 C.3   372  LEU372      0.0019
     66  CD1       12.3690  -20.2000   10.9910 C.3   372  LEU372      0.0001
     67  CD2       13.0270  -21.6510    9.0630 C.3   372  LEU372      0.0001
     68  N         14.6730  -18.7220    3.0720 N.3   376  PHE376     -0.1241
     69  CA        13.6710  -18.0110    2.2840 C.3   376  PHE376      0.1605
     70  C         14.3160  -17.1420    1.2070 C.2   376  PHE376      0.2264
     71  O         13.8450  -17.0990    0.0700 O.2   376  PHE376     -0.2867
     72  CB        12.7640  -17.1610    3.1780 C.3   376  PHE376      0.0534
     73  CG        11.6830  -17.9430    3.8710 C.ar  376  PHE376     -0.0203
     74  CD1       10.6660  -18.5390    3.1450 C.ar  376  PHE376     -0.0042
     75  CD2       11.6720  -18.0640    5.2500 C.ar  376  PHE376     -0.0042
     76  CE1        9.6660  -19.2530    3.7800 C.ar  376  PHE376     -0.0003
     77  CE2       10.6730  -18.7770    5.8920 C.ar  376  PHE376     -0.0003
     78  CZ         9.6710  -19.3720    5.1560 C.ar  376  PHE376     -0.0000
     79  N          9.3760  -12.7790    3.8890 N.3   410  LEU410     -0.1245
     80  CA         9.2000  -13.8550    4.8590 C.3   410  LEU410      0.1561
     81  C         10.5220  -14.1590    5.5580 C.2   410  LEU410      0.2260
     82  O         10.5560  -14.4250    6.7590 O.2   410  LEU410     -0.2867
     83  CB         8.6650  -15.1150    4.1790 C.3   410  LEU410      0.0270
     84  CG         7.2730  -15.0240    3.5520 C.3   410  LEU410      0.0019
     85  CD1        6.9010  -16.3390    2.8850 C.3   410  LEU410      0.0001
     86  CD2        6.2410  -14.6440    4.6020 C.3   410  LEU410      0.0001
     87  N         12.0900  -12.9310    9.6720 N.3   414  CYS414     -0.1235
     88  CA        12.6920  -13.9380   10.5330 C.3   414  CYS414      0.1677
     89  C         14.0400  -13.4680   11.0770 C.2   414  CYS414      0.2270
     90  O         14.2940  -13.5520   12.2800 O.2   414  CYS414     -0.2867
     91  CB        12.8560  -15.2690    9.7930 C.3   414  CYS414      0.0956
     92  SG        11.3100  -16.1390    9.4510 S.3   414  CYS414     -0.0801
@<TRIPOS>BOND
     1    71    70    2
     2    70    69    1
     3    69    68    1
     4    69    72    1
     5    85    84    1
     6    74    76   ar
     7    74    73   ar
     8    72    73    1
     9    84    83    1
    10    84    86    1
    11    76    78   ar
    12    73    75   ar
    13    79    80    1
    14    83    80    1
    15    80    81    1
    16    78    77   ar
    17    75    77   ar
    18    81    82    2
    19    63    62    2
    20    62    61    1
    21    10    11   ar
    22    10     8   ar
    23    11     9   ar
    24    61    60    1
    25    61    64    1
    26    67    65    1
    27    64    65    1
    28     8     6   ar
    29     9     7   ar
    30    92    91    1
    31    87    88    1
    32    91    88    1
    33    65    66    1
    34     7     6   ar
    35     6     5    1
    36    88    89    1
    37    89    90    2
    38     5     2    1
    39     1     2    1
    40    19    18    1
    41    18    17    1
    42     2     3    1
    43    31    33   ar
    44    31    29   ar
    45    33    32   ar
    46    17    16    1
    47     3     4    2
    48    16    13    1
    49    29    28   ar
    50    29    27   ar
    51    28    26   ar
    52    32    30   ar
    53    58    57    1
    54    58    59    1
    55    57    54    1
    56    13    12    1
    57    13    14    1
    58    27    30   ar
    59    27    25   ar
    60    26    25   ar
    61    59    53    1
    62    40    39    1
    63    25    24    1
    64    14    20   am
    65    14    15    2
    66    20    21    1
    67    54    53    1
    68    54    55    1
    69    41    39    1
    70    39    38    1
    71    55    56    2
    72    24    21    1
    73    21    22    1
    74    38    35    1
    75    45    44    2
    76    22    23    2
    77    34    35    1
    78    35    36    1
    79    44    43    1
    80    46    43    1
    81    46    47    1
    82    43    42    1
    83    36    37    2
    84    47    48    1
    85    48    49    1
    86    49    50    2
    87    50    52    1
    88    50    51    1
