@<TRIPOS>MOLECULE
tmp/4ikyA06.pdb
 110 100 0 0 0
SMALL
GASTEIGER

@<TRIPOS>ATOM
      1  N         28.0380  -14.0740    8.8050 N.3   299  VAL299     -0.1245
      2  CA        28.0760  -14.5790    7.4380 C.3   299  VAL299      0.1561
      3  C         26.6650  -14.7820    6.8860 C.2   299  VAL299      0.2260
      4  O         26.3780  -14.4270    5.7410 O.2   299  VAL299     -0.2867
      5  CB        28.8710  -15.9010    7.3430 C.3   299  VAL299      0.0252
      6  CG1       28.7210  -16.5230    5.9600 C.3   299  VAL299      0.0019
      7  CG2       30.3380  -15.6640    7.6690 C.3   299  VAL299      0.0019
      8  N         25.1350  -11.4010    6.1090 N.3   302  ALA302     -0.1231
      9  CA        25.7050  -10.8940    4.8650 C.3   302  ALA302      0.1694
     10  C         25.1250  -11.5920    3.6360 C.2   302  ALA302      0.2591
     11  O         24.8070  -10.9400    2.6420 O.2   302  ALA302     -0.2718
     12  CB        27.2220  -11.0190    4.8830 C.3   302  ALA302      0.0304
     13  N         24.9870  -12.9130    3.7020 N.am  303  MET303     -0.1979
     14  CA        24.4250  -13.6660    2.5840 C.3   303  MET303      0.1605
     15  C         22.9690  -13.2730    2.3640 C.2   303  MET303      0.2287
     16  O         22.5270  -13.0990    1.2270 O.2   303  MET303     -0.2864
     17  CB        24.5410  -15.1750    2.8210 C.3   303  MET303      0.0413
     18  CG        23.9250  -16.0380    1.7230 C.3   303  MET303      0.0598
     19  SD        24.8000  -15.9940    0.1450 S.3   303  MET303     -0.1393
     20  CE        26.2930  -16.8950    0.5490 C.3   303  MET303      0.0692
     21  N         22.6330   -9.7180    0.9840 N.3   306  ALA306     -0.1245
     22  CA        23.1150   -9.6930   -0.3890 C.3   306  ALA306      0.1562
     23  C         21.9380   -9.8820   -1.3360 C.2   306  ALA306      0.2260
     24  O         21.7560   -9.1200   -2.2820 O.2   306  ALA306     -0.2867
     25  CB        24.1450  -10.7840   -0.6060 C.3   306  ALA306      0.0290
     26  N         27.5830   -6.8690    2.5460 N.3   446  ALA446     -0.1245
     27  CA        26.7670   -7.6110    1.5950 C.3   446  ALA446      0.1562
     28  C         26.6140   -6.8320    0.2980 C.2   446  ALA446      0.2260
     29  O         26.7390   -7.3850   -0.7950 O.2   446  ALA446     -0.2867
     30  CB        25.4040   -7.8980    2.1960 C.3   446  ALA446      0.0290
     31  N         29.8410   -6.4650   -1.6970 N.3   449  ILE449     -0.1245
     32  CA        30.0900   -7.6940   -2.4390 C.3   449  ILE449      0.1561
     33  C         29.1790   -7.7820   -3.6660 C.2   449  ILE449      0.2260
     34  O         29.6240   -8.1710   -4.7470 O.2   449  ILE449     -0.2867
     35  CB        29.9270   -8.9410   -1.5390 C.3   449  ILE449      0.0252
     36  CG1       31.0520   -8.9870   -0.5030 C.3   449  ILE449      0.0019
     37  CG2       29.9420  -10.2150   -2.3660 C.3   449  ILE449      0.0019
     38  CD1       30.9100  -10.0920    0.5250 C.3   449  ILE449      0.0001
     39  N         29.4700   -8.8000   -8.0540 N.3   453  LEU453     -0.1245
     40  CA        28.7150   -9.9130   -8.6160 C.3   453  LEU453      0.1561
     41  C         27.9150   -9.4830   -9.8440 C.2   453  LEU453      0.2260
     42  O         27.3390  -10.3170  -10.5420 O.2   453  LEU453     -0.2867
     43  CB        27.7740  -10.5000   -7.5570 C.3   453  LEU453      0.0270
     44  CG        28.2700  -11.6030   -6.6130 C.3   453  LEU453      0.0019
     45  CD1       29.6200  -11.2810   -5.9910 C.3   453  LEU453      0.0001
     46  CD2       27.2360  -11.8560   -5.5250 C.3   453  LEU453      0.0001
     47  N         28.4090  -10.9310  -13.4480 N.3   456  PHE456     -0.1241
     48  CA        27.8810  -12.2730  -13.6790 C.3   456  PHE456      0.1605
     49  C         26.4150  -12.2480  -14.1080 C.2   456  PHE456      0.2264
     50  O         25.8980  -13.2350  -14.6290 O.2   456  PHE456     -0.2867
     51  CB        28.0370  -13.1410  -12.4270 C.3   456  PHE456      0.0534
     52  CG        29.4640  -13.3690  -12.0170 C.ar  456  PHE456     -0.0203
     53  CD1       30.2140  -14.3790  -12.5960 C.ar  456  PHE456     -0.0042
     54  CD2       30.0530  -12.5780  -11.0430 C.ar  456  PHE456     -0.0042
     55  CE1       31.5280  -14.5920  -12.2160 C.ar  456  PHE456     -0.0003
     56  CE2       31.3650  -12.7860  -10.6600 C.ar  456  PHE456     -0.0003
     57  CZ        32.1030  -13.7940  -11.2460 C.ar  456  PHE456     -0.0000
     58  N         23.6120  -16.1460  -18.7840 N.3   461  ASN461     -0.1240
     59  CA        23.7820  -16.9520  -17.5760 C.3   461  ASN461      0.1653
     60  C         22.9030  -16.4730  -16.4260 C.2   461  ASN461      0.2266
     61  O         23.2700  -16.5850  -15.2580 O.2   461  ASN461     -0.2867
     62  CB        25.2470  -16.9910  -17.1390 C.3   461  ASN461      0.1155
     63  CG        25.7410  -15.6510  -16.6430 C.2   461  ASN461      0.2627
     64  OD1       25.3730  -14.6070  -17.1780 O.2   461  ASN461     -0.2716
     65  ND2       26.5760  -15.6720  -15.6090 N.am  461  ASN461     -0.0877
     66  N         22.1540  -19.2530  -14.1430 N.3   464  ALA464     -0.1231
     67  CA        23.3470  -19.5560  -13.3620 C.3   464  ALA464      0.1694
     68  C         23.5400  -18.5430  -12.2410 C.2   464  ALA464      0.2592
     69  O         23.9560  -18.8960  -11.1390 O.2   464  ALA464     -0.2718
     70  CB        24.5730  -19.5870  -14.2600 C.3   464  ALA464      0.0304
     71  N         23.2410  -17.2810  -12.5280 N.am  465  TYR465     -0.1976
     72  CA        23.4070  -16.2220  -11.5410 C.3   465  TYR465      0.1639
     73  C         22.4630  -16.4180  -10.3580 C.2   465  TYR465      0.2290
     74  O         22.9020  -16.5050   -9.2110 O.2   465  TYR465     -0.2864
     75  CB        23.1920  -14.8460  -12.1770 C.3   465  TYR465      0.0560
     76  CG        23.3400  -13.7000  -11.2020 C.ar  465  TYR465     -0.0198
     77  CD1       24.5930  -13.2030  -10.8650 C.ar  465  TYR465     -0.0009
     78  CD2       22.2250  -13.1150  -10.6180 C.ar  465  TYR465     -0.0009
     79  CE1       24.7280  -12.1560   -9.9720 C.ar  465  TYR465      0.0417
     80  CE2       22.3500  -12.0710   -9.7240 C.ar  465  TYR465      0.0417
     81  CZ        23.6020  -11.5950   -9.4050 C.ar  465  TYR465      0.1957
     82  OH        23.7250  -10.5560   -8.5130 O.3   465  TYR465     -0.2866
     83  N         23.1250  -20.0090   -8.5330 N.3   468  THR468     -0.1203
     84  CA        24.3170  -20.1460   -7.7050 C.3   468  THR468      0.1994
     85  C         24.1880  -19.3650   -6.4000 C.2   468  THR468      0.2617
     86  O         24.5200  -19.8700   -5.3290 O.2   468  THR468     -0.2717
     87  CB        25.5820  -19.7000   -8.4600 C.3   468  THR468      0.1784
     88  OG1       25.7120  -20.4660   -9.6650 O.3   468  THR468     -0.2211
     89  CG2       26.8200  -19.9070   -7.5990 C.3   468  THR468      0.0376
     90  N         23.6960  -18.1340   -6.4930 N.am  469  ILE469     -0.1979
     91  CA        23.4990  -17.3080   -5.3100 C.3   469  ILE469      0.1595
     92  C         22.4060  -17.8820   -4.4130 C.2   469  ILE469      0.2287
     93  O         22.5990  -18.0290   -3.2070 O.2   469  ILE469     -0.2864
     94  CB        23.1660  -15.8540   -5.6840 C.3   469  ILE469      0.0276
     95  CG1       24.3470  -15.2190   -6.4210 C.3   469  ILE469      0.0022
     96  CG2       22.8170  -15.0510   -4.4420 C.3   469  ILE469      0.0022
     97  CD1       24.1100  -13.7870   -6.8400 C.3   469  ILE469      0.0001
     98  N         23.6610  -21.0830   -2.8480 N.3   472  ALA472     -0.1245
     99  CA        24.6230  -20.7960   -1.7910 C.3   472  ALA472      0.1562
    100  C         23.9210  -20.4360   -0.4890 C.2   472  ALA472      0.2260
    101  O         24.3630  -20.8200    0.5930 O.2   472  ALA472     -0.2867
    102  CB        25.5530  -19.6690   -2.2170 C.3   472  ALA472      0.0290
    103  N         24.1300  -22.6260    3.0120 N.3   476  LEU476     -0.1245
    104  CA        24.4930  -21.9690    4.2620 C.3   476  LEU476      0.1561
    105  C         23.3550  -22.0410    5.2740 C.2   476  LEU476      0.2260
    106  O         23.5890  -22.2210    6.4680 O.2   476  LEU476     -0.2867
    107  CB        24.8930  -20.5130    4.0130 C.3   476  LEU476      0.0270
    108  CG        26.3870  -20.2360    3.8360 C.3   476  LEU476      0.0019
    109  CD1       26.9500  -20.9660    2.6260 C.3   476  LEU476      0.0001
    110  CD2       26.6440  -18.7410    3.7320 C.3   476  LEU476      0.0001
@<TRIPOS>BOND
     1    58    59    1
     2    59    62    1
     3    59    60    1
     4    64    63    2
     5    62    63    1
     6    63    65   am
     7    60    61    2
     8    50    49    2
     9    70    67    1
    10    66    67    1
    11    49    48    1
    12    48    47    1
    13    48    51    1
    14    67    68    1
    15    53    55   ar
    16    53    52   ar
    17    71    68   am
    18    71    72    1
    19    51    52    1
    20    68    69    2
    21    55    57   ar
    22    75    72    1
    23    75    76    1
    24    52    54   ar
    25    72    73    1
    26    57    56   ar
    27    76    77   ar
    28    76    78   ar
    29    54    56   ar
    30    77    79   ar
    31    78    80   ar
    32    42    41    2
    33    73    74    2
    34    79    81   ar
    35    41    40    1
    36    80    81   ar
    37    88    87    1
    38    81    82    1
    39    40    39    1
    40    40    43    1
    41    83    84    1
    42    87    84    1
    43    87    89    1
    44    84    85    1
    45    43    44    1
    46    97    95    1
    47    44    45    1
    48    44    46    1
    49    90    85   am
    50    90    91    1
    51    95    94    1
    52    85    86    2
    53    94    91    1
    54    94    96    1
    55    91    92    1
    56    34    33    2
    57    92    93    2
    58    33    32    1
    59    98    99    1
    60    32    31    1
    61    32    35    1
    62    37    35    1
    63    24    23    2
    64   102    99    1
    65    99   100    1
    66    35    36    1
    67    23    22    1
    68    29    28    2
    69    25    22    1
    70    36    38    1
    71   100   101    2
    72    22    21    1
    73    19    20    1
    74    19    18    1
    75    28    27    1
    76    16    15    2
    77    27    30    1
    78    27    26    1
    79    18    17    1
    80    15    14    1
    81    14    17    1
    82    14    13    1
    83   109   108    1
    84    11    10    2
    85   103   104    1
    86    10    13   am
    87    10     9    1
    88   110   108    1
    89   108   107    1
    90   107   104    1
    91   104   105    1
    92     9    12    1
    93     9     8    1
    94   105   106    2
    95     4     3    2
    96     6     5    1
    97     3     2    1
    98     5     2    1
    99     5     7    1
   100     2     1    1
