@<TRIPOS>MOLECULE
tmp/4ikzA00.pdb
 161 154 0 0 0
SMALL
GASTEIGER

@<TRIPOS>ATOM
      1  N         14.0250   25.1440    4.2280 N.3    34  ARG34      -0.1245
      2  CA        13.8560   23.8040    3.6780 C.3    34  ARG34       0.1563
      3  C         13.1120   23.8670    2.3510 C.2    34  ARG34       0.2260
      4  O         13.4460   23.1500    1.4080 O.2    34  ARG34      -0.2867
      5  CB        13.0880   22.9120    4.6550 C.3    34  ARG34       0.0307
      6  CG        13.8880   22.4230    5.8500 C.3    34  ARG34       0.0489
      7  CD        14.9090   21.3610    5.4620 C.3    34  ARG34       0.2205
      8  NE        16.1790   21.9350    5.0260 N.pl3  34  ARG34      -0.0865
      9  CZ        17.2050   21.2190    4.5770 C.cat  34  ARG34       0.5346
     10  NH1       18.3240   21.8240    4.2030 N.pl3  34  ARG34       0.1354
     11  NH2       17.1120   19.8980    4.5000 N.pl3  34  ARG34       0.1354
     12  N         15.4630   25.1450   -0.3650 N.3    37  TYR37      -0.1227
     13  CA        16.4900   24.1350   -0.6130 C.3    37  TYR37       0.1736
     14  C         15.9670   22.9610   -1.4330 C.2    37  TYR37       0.2595
     15  O         16.5870   22.5570   -2.4160 O.2    37  TYR37      -0.2718
     16  CB        17.0730   23.6160    0.7040 C.3    37  TYR37       0.0548
     17  CG        18.1130   22.5320    0.5220 C.ar   37  TYR37      -0.0200
     18  CD1       19.4280   22.8520    0.2080 C.ar   37  TYR37      -0.0009
     19  CD2       17.7820   21.1890    0.6680 C.ar   37  TYR37      -0.0009
     20  CE1       20.3840   21.8660    0.0410 C.ar   37  TYR37       0.0417
     21  CE2       18.7320   20.1970    0.5010 C.ar   37  TYR37       0.0417
     22  CZ        20.0300   20.5410    0.1890 C.ar   37  TYR37       0.1957
     23  OH        20.9770   19.5530    0.0250 O.3    37  TYR37      -0.2866
     24  N         14.8300   22.4140   -1.0170 N.am   38  TYR38      -0.1976
     25  CA        14.2490   21.2510   -1.6790 C.3    38  TYR38       0.1639
     26  C         13.6520   21.6040   -3.0360 C.2    38  TYR38       0.2290
     27  O         13.6600   20.7860   -3.9550 O.2    38  TYR38      -0.2864
     28  CB        13.1950   20.6000   -0.7830 C.3    38  TYR38       0.0560
     29  CG        13.7810   19.8550    0.3940 C.ar   38  TYR38      -0.0198
     30  CD1       14.8710   19.0130    0.2330 C.ar   38  TYR38      -0.0009
     31  CD2       13.2520   20.0030    1.6690 C.ar   38  TYR38      -0.0009
     32  CE1       15.4130   18.3310    1.3060 C.ar   38  TYR38       0.0417
     33  CE2       13.7850   19.3240    2.7480 C.ar   38  TYR38       0.0417
     34  CZ        14.8660   18.4900    2.5610 C.ar   38  TYR38       0.1957
     35  OH        15.4020   17.8150    3.6330 O.3    38  TYR38      -0.2866
     36  N         16.6030   22.1190   -5.2820 N.3    41  ARG41      -0.1245
     37  CA        17.2020   20.8100   -5.5240 C.3    41  ARG41       0.1563
     38  C         16.3490   19.9760   -6.4780 C.2    41  ARG41       0.2260
     39  O         16.8570   19.1010   -7.1800 O.2    41  ARG41      -0.2867
     40  CB        17.3900   20.0570   -4.2040 C.3    41  ARG41       0.0307
     41  CG        18.2690   18.8210   -4.3100 C.3    41  ARG41       0.0489
     42  CD        18.3060   18.0380   -3.0040 C.3    41  ARG41       0.2205
     43  NE        17.1340   17.1820   -2.8350 N.pl3  41  ARG41      -0.0865
     44  CZ        16.9780   16.3210   -1.8350 C.cat  41  ARG41       0.5346
     45  NH1       17.9190   16.1980   -0.9080 N.pl3  41  ARG41       0.1354
     46  NH2       15.8820   15.5790   -1.7590 N.pl3  41  ARG41       0.1354
     47  N         25.7610   18.3790    4.4400 N.3    76  TYR76      -0.1241
     48  CA        25.7530   17.6430    5.7000 C.3    76  TYR76       0.1605
     49  C         26.9860   17.9490    6.5440 C.2    76  TYR76       0.2264
     50  O         26.8820   18.2060    7.7450 O.2    76  TYR76      -0.2867
     51  CB        25.6630   16.1370    5.4380 C.3    76  TYR76       0.0534
     52  CG        24.2510   15.5960    5.4080 C.ar   76  TYR76      -0.0201
     53  CD1       23.7540   14.8430    6.4630 C.ar   76  TYR76      -0.0009
     54  CD2       23.4140   15.8420    4.3270 C.ar   76  TYR76      -0.0009
     55  CE1       22.4630   14.3450    6.4420 C.ar   76  TYR76       0.0417
     56  CE2       22.1210   15.3500    4.2960 C.ar   76  TYR76       0.0417
     57  CZ        21.6510   14.6010    5.3570 C.ar   76  TYR76       0.1957
     58  OH        20.3660   14.1090    5.3320 O.3    76  TYR76      -0.2866
     59  N         20.9680   25.5230    9.3680 N.3   134  LYS134     -0.1245
     60  CA        20.3380   24.2270    9.6480 C.3   134  LYS134      0.1561
     61  C         20.5940   23.6200   11.0380 C.2   134  LYS134      0.2260
     62  O         19.6450   23.2460   11.7260 O.2   134  LYS134     -0.2867
     63  CB        20.6820   23.2120    8.5490 C.3   134  LYS134      0.0271
     64  CG        20.0060   21.8640    8.7110 C.3   134  LYS134      0.0035
     65  CD        18.5240   21.9550    8.3980 C.3   134  LYS134      0.0206
     66  CE        17.8170   20.6350    8.6650 C.3   134  LYS134      0.1093
     67  NZ        18.3910   19.5160    7.8630 N.3   134  LYS134     -0.1314
     68  N         10.0960   20.5980    8.1980 N.3   163  ILE163     -0.1231
     69  CA        11.0400   20.0260    7.2440 C.3   163  ILE163      0.1692
     70  C         10.3110   19.2170    6.1760 C.2   163  ILE163      0.2592
     71  O         10.4260   19.5000    4.9830 O.2   163  ILE163     -0.2718
     72  CB        12.0670   19.1100    7.9380 C.3   163  ILE163      0.0266
     73  CG1       12.8720   19.8910    8.9790 C.3   163  ILE163      0.0019
     74  CG2       12.9950   18.4760    6.9120 C.3   163  ILE163      0.0020
     75  CD1       13.9120   19.0530    9.6970 C.3   163  ILE163      0.0001
     76  N          9.5670   18.2080    6.6200 N.am  164  ASN164     -0.1974
     77  CA         8.7950   17.3520    5.7250 C.3   164  ASN164      0.1688
     78  C          7.8150   18.1450    4.8710 C.2   164  ASN164      0.2292
     79  O          7.6540   17.8720    3.6820 O.2   164  ASN164     -0.2864
     80  CB         8.0320   16.2960    6.5280 C.3   164  ASN164      0.1181
     81  CG         8.9500   15.3710    7.3000 C.2   164  ASN164      0.2629
     82  OD1        9.9380   14.8690    6.7660 O.2   164  ASN164     -0.2716
     83  ND2        8.6280   15.1430    8.5690 N.am  164  ASN164     -0.0877
     84  N          9.6010   19.7860    2.1440 N.3   167  ALA167     -0.1245
     85  CA        10.0410   18.7660    1.1970 C.3   167  ALA167      0.1562
     86  C          8.9150   18.2880    0.2850 C.2   167  ALA167      0.2260
     87  O          9.1580   17.8890   -0.8550 O.2   167  ALA167     -0.2867
     88  CB        10.6610   17.5910    1.9380 C.3   167  ALA167      0.0290
     89  N         21.5410    4.9000    3.2780 N.3   297  TRP297     -0.1241
     90  CA        21.4720    6.2720    2.7820 C.3   297  TRP297      0.1605
     91  C         21.9750    6.3800    1.3470 C.2   297  TRP297      0.2264
     92  O         21.5360    7.2490    0.5930 O.2   297  TRP297     -0.2867
     93  CB        22.2560    7.2260    3.6880 C.3   297  TRP297      0.0550
     94  CG        21.6640    7.3900    5.0560 C.ar  297  TRP297      0.0003
     95  CD1       22.2350    7.0330    6.2420 C.ar  297  TRP297      0.0946
     96  CD2       20.3850    7.9510    5.3800 C.ar  297  TRP297      0.0152
     97  NE1       21.3930    7.3360    7.2840 N.ar  297  TRP297     -0.2442
     98  CE2       20.2500    7.9010    6.7810 C.ar  297  TRP297      0.0810
     99  CE3       19.3420    8.4900    4.6210 C.ar  297  TRP297      0.0012
    100  CZ2       19.1150    8.3700    7.4400 C.ar  297  TRP297      0.0191
    101  CZ3       18.2150    8.9560    5.2770 C.ar  297  TRP297      0.0001
    102  CH2       18.1110    8.8920    6.6720 C.ar  297  TRP297      0.0015
    103  N         18.9810    5.5270   -0.4470 N.3   300  GLN300     -0.1231
    104  CA        17.9700    6.5310   -0.1260 C.3   300  GLN300      0.1698
    105  C         18.2320    7.8560   -0.8420 C.2   300  GLN300      0.2592
    106  O         17.3300    8.4250   -1.4570 O.2   300  GLN300     -0.2718
    107  CB        17.8920    6.7530    1.3910 C.3   300  GLN300      0.0381
    108  CG        16.6710    7.5440    1.8640 C.3   300  GLN300      0.0905
    109  CD        16.8160    9.0440    1.6690 C.2   300  GLN300      0.2608
    110  OE1       15.8500    9.7360    1.3480 O.2   300  GLN300     -0.2717
    111  NE2       18.0270    9.5530    1.8660 N.am  300  GLN300     -0.0878
    112  N         19.4680    8.3410   -0.7570 N.am  301  GLN301     -0.1979
    113  CA        19.8240    9.6340   -1.3380 C.3   301  GLN301      0.1601
    114  C         19.8630    9.6150   -2.8660 C.2   301  GLN301      0.2287
    115  O         19.8070   10.6660   -3.5060 O.2   301  GLN301     -0.2864
    116  CB        21.1570   10.1370   -0.7740 C.3   301  GLN301      0.0394
    117  CG        21.1240   10.5010    0.7090 C.3   301  GLN301      0.0908
    118  CD        20.2980   11.7440    1.0010 C.2   301  GLN301      0.2608
    119  OE1       19.0800   11.7550    0.8200 O.2   301  GLN301     -0.2717
    120  NE2       20.9610   12.7980    1.4600 N.am  301  GLN301     -0.0878
    121  N          9.8670   13.9720   -6.4410 N.3   330  GLN330     -0.1245
    122  CA        10.6300   14.2550   -5.2300 C.3   330  GLN330      0.1566
    123  C          9.7100   14.4620   -4.0310 C.2   330  GLN330      0.2260
    124  O         10.1410   14.3690   -2.8820 O.2   330  GLN330     -0.2867
    125  CB        11.5160   15.4860   -5.4340 C.3   330  GLN330      0.0367
    126  CG        12.6060   15.2950   -6.4750 C.3   330  GLN330      0.0905
    127  CD        13.6200   14.2500   -6.0590 C.2   330  GLN330      0.2608
    128  OE1       14.3390   14.4260   -5.0760 O.2   330  GLN330     -0.2717
    129  NE2       13.6760   13.1500   -6.8000 N.am  330  GLN330     -0.0878
    130  N          8.8040   11.0040   -1.2560 N.3   333  ASN333     -0.1226
    131  CA         9.4570   10.6220   -0.0050 C.3   333  ASN333      0.1770
    132  C          8.8580   11.2610    1.2580 C.2   333  ASN333      0.2439
    133  O          8.4910   10.5440    2.1880 O.2   333  ASN333     -0.2733
    134  CB        10.9750   10.8470   -0.0660 C.3   333  ASN333      0.1168
    135  CG        11.6490   10.6500    1.2830 C.2   333  ASN333      0.2627
    136  OD1       11.7470   11.5810    2.0830 O.2   333  ASN333     -0.2716
    137  ND2       12.1140    9.4320    1.5410 N.am  333  ASN333     -0.0877
    138  N          8.7560   12.6050    1.3010 N.am  334  PRO334     -0.2729
    139  CA         8.2280   13.2040    2.5320 C.3   334  PRO334      0.1401
    140  C          6.7390   12.9330    2.7110 C.2   334  PRO334      0.2269
    141  O          6.2600   12.8780    3.8440 O.2   334  PRO334     -0.2865
    142  CB         8.4660   14.7000    2.3190 C.3   334  PRO334      0.0296
    143  CG         8.4440   14.8700    0.8470 C.3   334  PRO334      0.0237
    144  CD         9.0770   13.6320    0.2920 C.3   334  PRO334      0.0939
    145  N          6.4060    9.6950    4.4160 N.3   337  ILE337     -0.1245
    146  CA         6.8720    9.8730    5.7850 C.3   337  ILE337      0.1561
    147  C          5.7690   10.4790    6.6470 C.2   337  ILE337      0.2260
    148  O          5.4670    9.9700    7.7230 O.2   337  ILE337     -0.2867
    149  CB         8.1250   10.7670    5.8500 C.3   337  ILE337      0.0252
    150  CG1        9.3240   10.0550    5.2200 C.3   337  ILE337      0.0019
    151  CG2        8.4350   11.1430    7.2910 C.3   337  ILE337      0.0019
    152  CD1       10.5850   10.8940    5.1950 C.3   337  ILE337      0.0001
    153  N         13.1820    3.4900    5.8510 N.3   404  GLU404     -0.1245
    154  CA        13.6040    4.7150    6.5200 C.3   404  GLU404      0.1567
    155  C         12.9750    4.8670    7.9010 C.2   404  GLU404      0.2260
    156  O         13.6580    5.2110    8.8630 O.2   404  GLU404     -0.2867
    157  CB        13.3050    5.9430    5.6540 C.3   404  GLU404      0.0388
    158  CG        13.8900    7.2400    6.1980 C.3   404  GLU404      0.1160
    159  CD        13.6280    8.4260    5.2890 C.2   404  GLU404      0.3649
    160  OE1       13.4840    8.2200    4.0650 O.co2 404  GLU404     -0.2457
    161  OE2       13.5620    9.5650    5.8000 O.co2 404  GLU404     -0.2457
@<TRIPOS>BOND
     1    39    38    2
     2   129   127   am
     3    38    37    1
     4   126   127    1
     5   126   125    1
     6   121   122    1
     7   127   128    2
     8    37    36    1
     9    37    40    1
    10   125   122    1
    11   122   123    1
    12    41    40    1
    13    41    42    1
    14   123   124    2
    15    27    26    2
    16   115   114    2
    17    26    25    1
    18    42    43    1
    19   114   113    1
    20    43    44    2
    21    15    14    2
    22    44    46    1
    23    44    45    1
    24    25    24    1
    25    25    28    1
    26   106   105    2
    27    14    24   am
    28    14    13    1
    29   113   116    1
    30   113   112    1
    31   130   131    1
    32    87    86    2
    33   105   112   am
    34   105   104    1
    35    28    29    1
    36   116   117    1
    37    13    12    1
    38    13    16    1
    39   103   104    1
    40   104   107    1
    41   134   131    1
    42   134   135    1
    43   131   132    1
    44    23    22    1
    45    20    22   ar
    46    20    18   ar
    47    22    21   ar
    48    18    17   ar
    49    30    29   ar
    50    30    32   ar
    51    86    85    1
    52   144   143    1
    53   144   138    1
    54    29    31   ar
    55    21    19   ar
    56    17    19   ar
    57    17    16    1
    58    92    91    2
    59   117   118    1
    60   119   118    2
    61   143   142    1
    62   118   120   am
    63    85    88    1
    64    85    84    1
    65   132   138   am
    66   132   133    2
    67   135   137   am
    68   135   136    2
    69   138   139    1
    70    32    34   ar
    71    91    90    1
    72   110   109    2
    73   107   108    1
    74     4     3    2
    75    31    33   ar
    76   109   108    1
    77   109   111   am
    78   142   139    1
    79     3     2    1
    80   139   140    1
    81    34    33   ar
    82    34    35    1
    83   140   141    2
    84    90    89    1
    85    90    93    1
    86     2     1    1
    87     2     5    1
    88    79    78    2
    89    93    94    1
    90   160   159   ar
    91    10     9    1
    92    56    54   ar
    93    56    57   ar
    94    54    52   ar
    95   145   146    1
    96    47    48    1
    97    11     9    1
    98     9     8    2
    99    99   101   ar
   100    99    96   ar
   101     5     6    1
   102    78    77    1
   103    71    70    2
   104     8     7    1
   105    94    96   ar
   106    94    95   ar
   107   152   150    1
   108   150   149    1
   109   101   102   ar
   110   159   161   ar
   111   159   158    1
   112    58    57    1
   113    57    55   ar
   114    96    98   ar
   115    52    51    1
   116    52    53   ar
   117    51    48    1
   118     7     6    1
   119   157   158    1
   120   157   154    1
   121    48    49    1
   122    77    80    1
   123    77    76    1
   124   146   149    1
   125   146   147    1
   126   149   151    1
   127   153   154    1
   128    70    76   am
   129    70    69    1
   130    95    97   ar
   131    55    53   ar
   132   154   155    1
   133    80    81    1
   134    49    50    2
   135   147   148    2
   136   102   100   ar
   137    82    81    2
   138    98    97   ar
   139    98   100   ar
   140    74    72    1
   141    69    72    1
   142    69    68    1
   143    81    83   am
   144    67    66    1
   145   155   156    2
   146    72    73    1
   147    65    66    1
   148    65    64    1
   149    63    64    1
   150    63    60    1
   151    73    75    1
   152    59    60    1
   153    60    61    1
   154    61    62    2
