@<TRIPOS>MOLECULE
tmp/4il5A00.pdb
 80 76 0 0 0
SMALL
GASTEIGER

@<TRIPOS>ATOM
      1  N         41.4910   11.7610   73.2760 N.3    83  THR83      -0.1203
      2  CA        40.6910   11.7780   72.0630 C.3    83  THR83       0.1994
      3  C         39.5740   10.7880   72.2950 C.2    83  THR83       0.2619
      4  O         39.8010    9.7460   72.8890 O.2    83  THR83      -0.2717
      5  CB        41.5210   11.2920   70.8410 C.3    83  THR83       0.1784
      6  OG1       40.6450   11.0370   69.7390 O.3    83  THR83      -0.2211
      7  CG2       42.2470    9.9940   71.1680 C.3    83  THR83       0.0376
      8  N         38.3780   11.0860   71.8170 N.am   84  SER84      -0.1937
      9  CA        37.3000   10.1050   71.9140 C.3    84  SER84       0.2055
     10  C         36.8140    9.7540   70.5110 C.2    84  SER84       0.2644
     11  O         35.8020    9.0770   70.3440 O.2    84  SER84      -0.2714
     12  CB        36.1580   10.6130   72.8040 C.3    84  SER84       0.2130
     13  OG        35.5030   11.7020   72.1910 O.3    84  SER84      -0.2179
     14  N         37.5600   10.2150   69.5080 N.am   85  GLY85      -0.1939
     15  CA        37.2570    9.9110   68.1080 C.3    85  GLY85       0.2014
     16  C         38.1060    8.8170   67.4710 C.2    85  GLY85       0.2639
     17  O         38.5960    7.8760   68.1270 O.2    85  GLY85      -0.2714
     18  N         38.2900    8.9600   66.1690 N.am   86  ASN86      -0.1958
     19  CA        38.9900    7.9710   65.3800 C.3    86  ASN86       0.1819
     20  C         40.4950    7.9450   65.6280 C.2    86  ASN86       0.2621
     21  O         41.1710    6.9460   65.3740 O.2    86  ASN86      -0.2715
     22  CB        38.7020    8.2520   63.9080 C.3    86  ASN86       0.1195
     23  CG        37.2570    7.9620   63.5500 C.2    86  ASN86       0.2630
     24  OD1       36.7030    6.9380   63.9700 O.2    86  ASN86      -0.2716
     25  ND2       36.6390    8.8610   62.7930 N.am   86  ASN86      -0.0877
     26  N         41.0340    9.0520   66.0860 N.am   87  THR87      -0.1951
     27  CA        42.4850    9.1100   66.3220 C.3    87  THR87       0.1897
     28  C         42.8730    8.0890   67.3730 C.2    87  THR87       0.2313
     29  O         43.8720    7.4080   67.2130 O.2    87  THR87      -0.2863
     30  CB        42.9230   10.5070   66.7100 C.3    87  THR87       0.1794
     31  OG1       42.6980   11.3370   65.5860 O.3    87  THR87      -0.2208
     32  CG2       44.4500   10.5520   67.0490 C.3    87  THR87       0.0378
     33  N         47.5540   15.4740   68.1870 N.3   157  GLN157     -0.1231
     34  CA        47.0470   15.4650   66.8090 C.3   157  GLN157      0.1698
     35  C         46.7690   16.8410   66.1920 C.2   157  GLN157      0.2592
     36  O         46.8850   16.9930   64.9850 O.2   157  GLN157     -0.2718
     37  CB        45.7960   14.5860   66.7360 C.3   157  GLN157      0.0381
     38  CG        44.6100   15.1140   67.5130 C.3   157  GLN157      0.0905
     39  CD        43.3490   14.3210   67.2360 C.2   157  GLN157      0.2608
     40  OE1       43.1930   13.7670   66.1470 O.2   157  GLN157     -0.2717
     41  NE2       42.4550   14.2360   68.2320 N.am  157  GLN157     -0.0878
     42  N         46.3980   17.8210   67.0230 N.am  158  PHE158     -0.1976
     43  CA        46.1010   19.1770   66.5630 C.3   158  PHE158      0.1639
     44  C         47.3520   19.9950   66.3220 C.2   158  PHE158      0.2290
     45  O         47.3080   20.9940   65.6020 O.2   158  PHE158     -0.2864
     46  CB        45.1540   19.9130   67.5420 C.3   158  PHE158      0.0560
     47  CG        43.7630   19.3520   67.5550 C.ar  158  PHE158     -0.0200
     48  CD1       42.8280   19.7570   66.5960 C.ar  158  PHE158     -0.0042
     49  CD2       43.3910   18.4080   68.5170 C.ar  158  PHE158     -0.0042
     50  CE1       41.5400   19.2180   66.5830 C.ar  158  PHE158     -0.0003
     51  CE2       42.1050   17.8720   68.5180 C.ar  158  PHE158     -0.0003
     52  CZ        41.1840   18.2730   67.5440 C.ar  158  PHE158     -0.0000
     53  N         38.8170   18.8630   60.8500 N.3   190  GLY190     -0.1210
     54  CA        38.9140   18.5420   62.2760 C.3   190  GLY190      0.1956
     55  C         40.2140   19.1110   62.8210 C.2   190  GLY190      0.2612
     56  O         40.2630   20.2410   63.3340 O.2   190  GLY190     -0.2717
     57  N         41.2770   18.3320   62.6740 N.am  191  THR191     -0.1952
     58  CA        42.6490   18.7730   62.9490 C.3   191  THR191      0.1897
     59  C         43.2030   19.6820   61.8550 C.2   191  THR191      0.2313
     60  O         44.1640   20.4240   62.0930 O.2   191  THR191     -0.2863
     61  CB        43.6160   17.5610   63.1490 C.3   191  THR191      0.1794
     62  OG1       43.8430   16.8810   61.8960 O.3   191  THR191     -0.2208
     63  CG2       43.0650   16.5990   64.1570 C.3   191  THR191      0.0378
     64  N         33.3780   14.7520   64.3640 N.3   234  GLY234     -0.1210
     65  CA        34.6770   14.6480   63.7180 C.3   234  GLY234      0.1956
     66  C         35.2020   15.9730   63.1990 C.2   234  GLY234      0.2611
     67  O         36.3870   16.0730   62.8390 O.2   234  GLY234     -0.2717
     68  N         34.3280   16.9790   63.0830 N.am  235  ILE235     -0.1979
     69  CA        34.8120   18.3070   62.6890 C.3   235  ILE235      0.1595
     70  C         34.4010   19.3750   63.7120 C.2   235  ILE235      0.2287
     71  O         33.8380   19.0610   64.7640 O.2   235  ILE235     -0.2864
     72  CB        34.4490   18.7220   61.2310 C.3   235  ILE235      0.0276
     73  CG1       32.9330   18.9190   61.0630 C.3   235  ILE235      0.0022
     74  CG2       35.0360   17.7220   60.2120 C.3   235  ILE235      0.0022
     75  CD1       32.5440   19.6480   59.7810 C.3   235  ILE235      0.0001
     76  N         36.2180   21.6990   65.6770 N.3   237  ALA237     -0.1245
     77  CA        36.8820   21.5140   66.9660 C.3   237  ALA237      0.1562
     78  C         36.6210   22.6500   67.9500 C.2   237  ALA237      0.2260
     79  O         36.8140   22.4710   69.1460 O.2   237  ALA237     -0.2867
     80  CB        38.3930   21.2890   66.8040 C.3   237  ALA237      0.0290
@<TRIPOS>BOND
     1    75    73    1
     2    74    72    1
     3    53    54    1
     4    73    72    1
     5    72    69    1
     6    59    60    2
     7    59    58    1
     8    62    61    1
     9    54    55    1
    10    57    55   am
    11    57    58    1
    12    69    68    1
    13    69    70    1
    14    25    23   am
    15    55    56    2
    16    67    66    2
    17    58    61    1
    18    68    66   am
    19    61    63    1
    20    66    65    1
    21    23    22    1
    22    23    24    2
    23    70    71    2
    24    65    64    1
    25    22    19    1
    26    36    35    2
    27    21    20    2
    28    19    20    1
    29    19    18    1
    30    31    30    1
    31    45    44    2
    32    20    26   am
    33    76    77    1
    34    26    27    1
    35    40    39    2
    36    18    16   am
    37    35    34    1
    38    35    42   am
    39    27    30    1
    40    27    28    1
    41    44    43    1
    42    43    42    1
    43    43    46    1
    44    50    48   ar
    45    50    52   ar
    46    48    47   ar
    47    30    32    1
    48    37    34    1
    49    37    38    1
    50    80    77    1
    51    34    33    1
    52    77    78    1
    53    29    28    2
    54    39    38    1
    55    39    41   am
    56    16    15    1
    57    16    17    2
    58    46    47    1
    59    52    51   ar
    60    47    49   ar
    61    78    79    2
    62    15    14    1
    63    49    51   ar
    64    14    10   am
    65     6     5    1
    66    11    10    2
    67    10     9    1
    68     5     7    1
    69     5     2    1
    70     8     9    1
    71     8     3   am
    72     9    12    1
    73     2     3    1
    74     2     1    1
    75    13    12    1
    76     3     4    2
