@<TRIPOS>MOLECULE
tmp/4ilxA00.pdb
 133 130 0 0 0
SMALL
GASTEIGER

@<TRIPOS>ATOM
      1  N          8.5720    6.0290   11.3390 N.3    89  GLN89      -0.1245
      2  CA         8.8320    4.8730   10.4890 C.3    89  GLN89       0.1566
      3  C          8.5670    3.5910   11.2340 C.2    89  GLN89       0.2260
      4  O          8.5700    3.5780   12.4630 O.2    89  GLN89      -0.2867
      5  CB        10.2790    4.8610    9.9840 C.3    89  GLN89       0.0367
      6  CG        11.3170    5.0090   11.0940 C.3    89  GLN89       0.0905
      7  CD        12.1130    3.7470   11.3260 C.2    89  GLN89       0.2608
      8  OE1       11.5970    2.6320   11.1960 O.2    89  GLN89      -0.2717
      9  NE2       13.3820    3.9170   11.6820 N.am   89  GLN89      -0.0878
     10  N          9.9270   -0.7330   10.9350 N.3    91  HIS91      -0.1241
     11  CA        10.8390   -1.6660   10.3080 C.3    91  HIS91       0.1621
     12  C         10.8070   -2.9440   11.1130 C.2    91  HIS91       0.2264
     13  O         10.1470   -3.0200   12.1610 O.2    91  HIS91      -0.2867
     14  CB        12.2620   -1.1130   10.2860 C.3    91  HIS91       0.0745
     15  CG        12.8330   -0.8850   11.6450 C.ar   91  HIS91       0.0817
     16  ND1       12.7640    0.3380   12.2810 N.ar   91  HIS91      -0.2268
     17  CD2       13.4530   -1.7220   12.5070 C.ar   91  HIS91       0.1154
     18  CE1       13.3300    0.2450   13.4700 C.ar   91  HIS91       0.1986
     19  NE2       13.7590   -1.0000   13.6310 N.ar   91  HIS91      -0.2212
     20  N         13.1660   -6.6390   12.4230 N.3    93  HIS93      -0.1241
     21  CA        14.3820   -7.4310   12.5330 C.3    93  HIS93       0.1621
     22  C         13.9640   -8.8850   12.4330 C.2    93  HIS93       0.2264
     23  O         12.9230   -9.2650   12.9670 O.2    93  HIS93      -0.2867
     24  CB        15.0550   -7.1800   13.8840 C.3    93  HIS93       0.0745
     25  CG        15.3180   -5.7280   14.1570 C.ar   93  HIS93       0.0817
     26  ND1       16.5540   -5.1500   13.9640 N.ar   93  HIS93      -0.2268
     27  CD2       14.4920   -4.7410   14.5750 C.ar   93  HIS93       0.1154
     28  CE1       16.4790   -3.8600   14.2690 C.ar   93  HIS93       0.1986
     29  NE2       15.2390   -3.5870   14.6380 N.ar   93  HIS93      -0.2212
     30  N          9.2140   -2.9140   14.8120 N.3   116  HIS116     -0.1241
     31  CA         9.4310   -1.6980   15.5920 C.3   116  HIS116      0.1621
     32  C          8.7510   -0.5290   14.9400 C.2   116  HIS116      0.2264
     33  O          9.1230   -0.1270   13.8330 O.2   116  HIS116     -0.2867
     34  CB        10.9250   -1.4010   15.6880 C.3   116  HIS116      0.0745
     35  CG        11.6480   -2.3610   16.5700 C.ar  116  HIS116      0.0817
     36  ND1       13.0170   -2.5600   16.5060 N.ar  116  HIS116     -0.2268
     37  CD2       11.1930   -3.1910   17.5360 C.ar  116  HIS116      0.1154
     38  CE1       13.3630   -3.4660   17.4030 C.ar  116  HIS116      0.1986
     39  NE2       12.2710   -3.8690   18.0380 N.ar  116  HIS116     -0.2212
     40  N          8.4460    3.2390   15.2710 N.3   118  VAL118     -0.1245
     41  CA         9.2930    4.2520   15.9070 C.3   118  VAL118      0.1561
     42  C          8.5850    5.6010   15.9640 C.2   118  VAL118      0.2260
     43  O          8.1210    6.0960   14.9370 O.2   118  VAL118     -0.2867
     44  CB        10.6050    4.4070   15.1250 C.3   118  VAL118      0.0252
     45  CG1       11.5130    5.4450   15.7860 C.3   118  VAL118      0.0019
     46  CG2       11.3170    3.0650   14.9870 C.3   118  VAL118      0.0019
     47  N         13.1360   14.6860   14.8150 N.3   127  PHE127     -0.1227
     48  CA        13.6680   13.3850   15.2150 C.3   127  PHE127      0.1736
     49  C         15.1270   13.4670   15.6510 C.2   127  PHE127      0.2596
     50  O         15.5210   12.8330   16.6420 O.2   127  PHE127     -0.2718
     51  CB        13.4980   12.3880   14.0660 C.3   127  PHE127      0.0547
     52  CG        13.8800   10.9760   14.4170 C.ar  127  PHE127     -0.0202
     53  CD1       13.0620   10.2030   15.2270 C.ar  127  PHE127     -0.0042
     54  CD2       15.0460   10.4110   13.9210 C.ar  127  PHE127     -0.0042
     55  CE1       13.4010    8.9030   15.5530 C.ar  127  PHE127     -0.0003
     56  CE2       15.3920    9.1050   14.2450 C.ar  127  PHE127     -0.0003
     57  CZ        14.5650    8.3490   15.0560 C.ar  127  PHE127     -0.0000
     58  N         15.9320   14.2460   14.9250 N.am  128  GLY128     -0.1957
     59  CA        17.3360   14.4020   15.2730 C.3   128  GLY128      0.1869
     60  C         17.5580   14.9950   16.6570 C.2   128  GLY128      0.2309
     61  O         18.5260   14.6500   17.3370 O.2   128  GLY128     -0.2863
     62  N         16.4030   12.1770   19.4920 N.3   131  VAL131     -0.1245
     63  CA        17.3080   11.0790   19.8520 C.3   131  VAL131      0.1561
     64  C         18.3890   11.4940   20.8520 C.2   131  VAL131      0.2260
     65  O         19.1050   10.6470   21.3810 O.2   131  VAL131     -0.2867
     66  CB        17.9670   10.3940   18.6250 C.3   131  VAL131      0.0252
     67  CG1       16.9040    9.7990   17.7130 C.3   131  VAL131      0.0019
     68  CG2       18.8680   11.3680   17.8560 C.3   131  VAL131      0.0019
     69  N          9.3440    3.4600   21.1480 N.3   139  VAL139     -0.1245
     70  CA         9.2790    2.4390   20.1150 C.3   139  VAL139      0.1561
     71  C          8.3260    1.3570   20.5820 C.2   139  VAL139      0.2260
     72  O          8.4730    0.7970   21.6780 O.2   139  VAL139     -0.2867
     73  CB        10.6590    1.8590   19.7610 C.3   139  VAL139      0.0252
     74  CG1       10.5280    0.8510   18.6240 C.3   139  VAL139      0.0019
     75  CG2       11.6030    2.9560   19.3390 C.3   139  VAL139      0.0019
     76  N         18.2600    2.8300   21.2150 N.3   194  LEU194     -0.1231
     77  CA        18.2650    2.3130   19.8480 C.3   194  LEU194      0.1693
     78  C         19.0090    0.9910   19.8630 C.2   194  LEU194      0.2593
     79  O         20.0060    0.8280   20.5830 O.2   194  LEU194     -0.2718
     80  CB        18.9780    3.2840   18.9080 C.3   194  LEU194      0.0284
     81  CG        18.4450    4.7100   18.8650 C.3   194  LEU194      0.0019
     82  CD1       19.2630    5.5310   17.8790 C.3   194  LEU194      0.0001
     83  CD2       16.9680    4.7560   18.5020 C.3   194  LEU194      0.0001
     84  N         18.5470    0.0310   19.0710 N.am  195  THR195     -0.1939
     85  CA        19.1970   -1.2780   19.0730 C.3   195  THR195      0.2028
     86  C         20.2440   -1.4350   17.9730 C.2   195  THR195      0.2643
     87  O         20.8130   -2.5150   17.8160 O.2   195  THR195     -0.2714
     88  CB        18.1920   -2.4270   18.9200 C.3   195  THR195      0.1808
     89  OG1       17.5930   -2.3500   17.6240 O.3   195  THR195     -0.2208
     90  CG2       17.1120   -2.3860   20.0090 C.3   195  THR195      0.0379
     91  N         20.4770   -0.3750   17.2010 N.am  196  THR196     -0.1937
     92  CA        21.5980   -0.3460   16.2630 C.3   196  THR196      0.2013
     93  C         22.3890    0.9120   16.5480 C.2   196  THR196      0.2484
     94  O         21.8660    1.8470   17.1700 O.2   196  THR196     -0.2729
     95  CB        21.1470   -0.3150   14.7760 C.3   196  THR196      0.1807
     96  OG1       20.7260    1.0100   14.4260 O.3   196  THR196     -0.2208
     97  CG2       20.0330   -1.2970   14.5080 C.3   196  THR196      0.0379
     98  N         23.6560    0.9470   16.1100 N.am  197  PRO197     -0.2715
     99  CA        24.4050    2.2010   16.1970 C.3   197  PRO197      0.1521
    100  C         23.5650    3.3350   15.6240 C.2   197  PRO197      0.2440
    101  O         22.9000    3.1360   14.5970 O.2   197  PRO197     -0.2731
    102  CB        25.6160    1.9180   15.3120 C.3   197  PRO197      0.0310
    103  CG        25.8780    0.4490   15.5460 C.3   197  PRO197      0.0237
    104  CD        24.4790   -0.1480   15.5540 C.3   197  PRO197      0.0939
    105  N         23.5970    4.5190   16.2520 N.am  198  PRO198     -0.2727
    106  CA        24.4740    4.9450   17.3540 C.3   198  PRO198      0.1402
    107  C         24.0880    4.5040   18.7770 C.2   198  PRO198      0.2269
    108  O         24.7250    4.9780   19.7270 O.2   198  PRO198     -0.2865
    109  CB        24.4290    6.4720   17.2480 C.3   198  PRO198      0.0296
    110  CG        23.0870    6.7650   16.6770 C.3   198  PRO198      0.0237
    111  CD        22.7730    5.6330   15.7390 C.3   198  PRO198      0.0939
    112  N         21.8510    5.1760   20.8600 N.3   200  LEU200     -0.1245
    113  CA        21.5210    6.2710   21.7690 C.3   200  LEU200      0.1561
    114  C         20.4630    5.8790   22.8000 C.2   200  LEU200      0.2260
    115  O         19.4810    5.1890   22.4760 O.2   200  LEU200     -0.2867
    116  CB        21.0690    7.4920   20.9600 C.3   200  LEU200      0.0270
    117  CG        22.1570    8.0470   20.0410 C.3   200  LEU200      0.0019
    118  CD1       21.5900    9.1510   19.1510 C.3   200  LEU200      0.0001
    119  CD2       23.3310    8.5840   20.8610 C.3   200  LEU200      0.0001
    120  N         10.7970    1.9490   25.6770 N.3   205  TRP205     -0.1241
    121  CA        10.3530    0.7470   24.9860 C.3   205  TRP205      0.1605
    122  C          9.0010    0.3000   25.4950 C.2   205  TRP205      0.2264
    123  O          8.7700    0.2200   26.7010 O.2   205  TRP205     -0.2867
    124  CB        11.3890   -0.3810   25.1500 C.3   205  TRP205      0.0550
    125  CG        12.4710   -0.2490   24.1340 C.ar  205  TRP205      0.0003
    126  CD1       13.6940    0.3320   24.3040 C.ar  205  TRP205      0.0946
    127  CD2       12.4030   -0.6570   22.7600 C.ar  205  TRP205      0.0152
    128  NE1       14.3960    0.3070   23.1150 N.ar  205  TRP205     -0.2442
    129  CE2       13.6270   -0.3050   22.1560 C.ar  205  TRP205      0.0810
    130  CE3       11.4240   -1.2980   21.9860 C.ar  205  TRP205      0.0012
    131  CZ2       13.8970   -0.5680   20.8100 C.ar  205  TRP205      0.0191
    132  CZ3       11.6950   -1.5690   20.6570 C.ar  205  TRP205      0.0001
    133  CH2       12.9210   -1.2020   20.0810 C.ar  205  TRP205      0.0015
@<TRIPOS>BOND
     1     5     2    1
     2     5     6    1
     3    14    11    1
     4    14    15    1
     5    11    10    1
     6    11    12    1
     7     2     3    1
     8     2     1    1
     9     6     7    1
    10    12    13    2
    11     8     7    2
    12     3     4    2
    13     7     9   am
    14    15    16   ar
    15    15    17   ar
    16    16    18   ar
    17    20    21    1
    18    22    21    1
    19    22    23    2
    20    17    19   ar
    21    21    24    1
    22    18    19   ar
    23    33    32    2
    24    24    25    1
    25    54    56   ar
    26    54    52   ar
    27    26    25   ar
    28    26    28   ar
    29    51    52    1
    30    51    48    1
    31    25    27   ar
    32    56    57   ar
    33    28    29   ar
    34    52    53   ar
    35    96    95    1
    36    97    95    1
    37    27    29   ar
    38   101   100    2
    39    95    92    1
    40    30    31    1
    41    47    48    1
    42    58    59    1
    43    58    49   am
    44    43    42    2
    45    32    31    1
    46    46    44    1
    47    57    55   ar
    48    44    45    1
    49    44    41    1
    50    48    49    1
    51    53    55   ar
    52    40    41    1
    53    59    60    1
    54   102   103    1
    55   102    99    1
    56   103   104    1
    57   104    98    1
    58    31    34    1
    59   100    99    1
    60   100   105   am
    61    49    50    2
    62    34    35    1
    63   111   105    1
    64   111   110    1
    65    41    42    1
    66    98    99    1
    67    98    93   am
    68   105   106    1
    69    92    93    1
    70    92    91    1
    71    36    35   ar
    72    36    38   ar
    73    93    94    2
    74    35    37   ar
    75    60    61    2
    76   110   109    1
    77    91    86   am
    78   109   106    1
    79   106   107    1
    80    38    39   ar
    81    37    39   ar
    82    89    88    1
    83    67    66    1
    84    87    86    2
    85    68    66    1
    86    82    81    1
    87    86    85    1
    88    83    81    1
    89    74    73    1
    90    66    63    1
    91   107   108    2
    92    81    80    1
    93    80    77    1
    94    88    85    1
    95    88    90    1
    96    84    85    1
    97    84    78   am
    98   118   117    1
    99    75    73    1
   100    62    63    1
   101    73    70    1
   102    77    78    1
   103    77    76    1
   104    63    64    1
   105    78    79    2
   106   117   119    1
   107   117   116    1
   108   133   132   ar
   109   133   131   ar
   110    70    71    1
   111    70    69    1
   112    71    72    2
   113   132   130   ar
   114   131   129   ar
   115    64    65    2
   116   112   113    1
   117   116   113    1
   118   113   114    1
   119   130   127   ar
   120   129   127   ar
   121   129   128   ar
   122   115   114    2
   123   127   125   ar
   124   128   126   ar
   125   125   126   ar
   126   125   124    1
   127   121   124    1
   128   121   122    1
   129   121   120    1
   130   122   123    2
