@<TRIPOS>MOLECULE
tmp/4im3A00.pdb
 176 168 0 0 0
SMALL
GASTEIGER

@<TRIPOS>ATOM
      1  N        118.6860   13.0190  -25.0450 N.3    17  LEU17      -0.1231
      2  CA       117.7730   14.1350  -24.8380 C.3    17  LEU17       0.1693
      3  C        116.3670   13.6170  -24.5640 C.2    17  LEU17       0.2593
      4  O        115.5770   14.2670  -23.8680 O.2    17  LEU17      -0.2718
      5  CB       117.7510   15.0510  -26.0620 C.3    17  LEU17       0.0284
      6  CG       119.0550   15.7070  -26.5000 C.3    17  LEU17       0.0019
      7  CD1      118.8540   16.3610  -27.8610 C.3    17  LEU17       0.0001
      8  CD2      119.5350   16.7240  -25.4640 C.3    17  LEU17       0.0001
      9  N        116.0510   12.4560  -25.1350 N.am   18  GLY18      -0.1942
     10  CA       114.7170   11.8980  -25.0270 C.3    18  GLY18       0.2014
     11  C        114.6990   10.4190  -25.3530 C.2    18  GLY18       0.2639
     12  O        115.5630    9.9230  -26.0750 O.2    18  GLY18      -0.2714
     13  N        113.7040    9.7160  -24.8250 N.am   19  GLN19      -0.1963
     14  CA       113.6150    8.2670  -24.9780 C.3    19  GLN19       0.1733
     15  C        112.1680    7.8270  -25.1590 C.2    19  GLN19       0.2616
     16  O        111.3280    8.0750  -24.2940 O.2    19  GLN19      -0.2715
     17  CB       114.2240    7.5600  -23.7660 C.3    19  GLN19       0.0408
     18  CG       113.8160    6.0880  -23.6920 C.3    19  GLN19       0.0908
     19  CD       114.8110    5.2180  -22.9510 C.2    19  GLN19       0.2608
     20  OE1      115.3910    5.6350  -21.9490 O.2    19  GLN19      -0.2717
     21  NE2      114.9990    3.9910  -23.4310 N.am   19  GLN19      -0.0878
     22  N        111.8720    7.1910  -26.2870 N.am   20  GLY20      -0.1955
     23  CA       110.5380    6.6690  -26.5200 C.3    20  GLY20       0.1869
     24  C        110.5980    5.1780  -26.7860 C.2    20  GLY20       0.2309
     25  O        111.6790    4.6160  -26.9730 O.2    20  GLY20      -0.2863
     26  N        109.6690    3.7400  -29.3950 N.3    22  THR22      -0.1203
     27  CA       109.9840    3.5200  -30.8000 C.3    22  THR22       0.1994
     28  C        111.4320    3.9210  -31.0400 C.2    22  THR22       0.2617
     29  O        112.1530    3.2650  -31.7970 O.2    22  THR22      -0.2717
     30  CB       109.0680    4.3460  -31.7250 C.3    22  THR22       0.1784
     31  OG1      107.6950    4.0560  -31.4350 O.3    22  THR22      -0.2211
     32  CG2      109.3550    4.0270  -33.1870 C.3    22  THR22       0.0376
     33  N        111.8570    4.9950  -30.3790 N.am   23  ALA23      -0.1979
     34  CA       113.1640    5.5760  -30.6570 C.3    23  ALA23       0.1597
     35  C        113.7530    6.3170  -29.4630 C.2    23  ALA23       0.2287
     36  O        113.0540    6.6460  -28.5080 O.2    23  ALA23      -0.2864
     37  CB       113.0760    6.5100  -31.8580 C.3    23  ALA23       0.0319
     38  N        116.3560    9.7920  -28.5570 N.3    25  VAL25      -0.1245
     39  CA       116.8790   11.0260  -29.1310 C.3    25  VAL25       0.1561
     40  C        118.1250   11.5120  -28.3880 C.2    25  VAL25       0.2260
     41  O        118.0800   11.7720  -27.1840 O.2    25  VAL25      -0.2867
     42  CB       115.8160   12.1380  -29.1610 C.3    25  VAL25       0.0252
     43  CG1      116.4600   13.4740  -29.5070 C.3    25  VAL25       0.0019
     44  CG2      114.7240   11.7930  -30.1650 C.3    25  VAL25       0.0019
     45  N        119.9220   17.5820  -33.1240 N.3    38  ALA38      -0.1245
     46  CA       119.2260   16.5180  -32.4180 C.3    38  ALA38       0.1562
     47  C        119.1850   15.2770  -33.2850 C.2    38  ALA38       0.2260
     48  O        118.7550   15.3130  -34.4390 O.2    38  ALA38      -0.2867
     49  CB       117.8420   16.9490  -32.0670 C.3    38  ALA38       0.0290
     50  N        117.6550   11.5960  -33.8280 N.3    40  LYS40      -0.1245
     51  CA       116.5500   10.7200  -33.4700 C.3    40  LYS40       0.1561
     52  C        116.8400    9.3390  -34.0410 C.2    40  LYS40       0.2260
     53  O        116.8290    9.1610  -35.2570 O.2    40  LYS40      -0.2867
     54  CB       115.2240   11.2640  -33.9970 C.3    40  LYS40       0.0271
     55  CG       114.0160   10.4360  -33.6040 C.3    40  LYS40       0.0035
     56  CD       112.7280   11.2130  -33.7960 C.3    40  LYS40       0.0206
     57  CE       111.5510   10.4910  -33.1610 C.3    40  LYS40       0.1093
     58  NZ       110.3540   11.3740  -33.0360 N.3    40  LYS40      -0.1314
     59  N        109.8210   22.3530  -35.2460 N.3    66  VAL66      -0.1245
     60  CA       111.2210   21.9370  -35.2080 C.3    66  VAL66       0.1561
     61  C        111.6170   21.4210  -36.5890 C.2    66  VAL66       0.2260
     62  O        110.9270   20.5790  -37.1640 O.2    66  VAL66      -0.2867
     63  CB       111.4760   20.8290  -34.1560 C.3    66  VAL66       0.0252
     64  CG1      112.9080   20.3390  -34.2400 C.3    66  VAL66       0.0019
     65  CG2      111.1680   21.3280  -32.7550 C.3    66  VAL66       0.0019
     66  N        117.6100   16.2710  -36.5660 N.3    84  MET84      -0.1230
     67  CA       116.6120   17.3090  -36.3420 C.3    84  MET84       0.1702
     68  C        117.2360   18.5270  -35.6720 C.2    84  MET84       0.2592
     69  O        118.3400   18.4540  -35.1300 O.2    84  MET84      -0.2718
     70  CB       115.4820   16.7520  -35.4680 C.3    84  MET84       0.0401
     71  CG       114.8730   15.4720  -36.0350 C.3    84  MET84       0.0596
     72  SD       113.1080   15.5580  -36.4080 S.3    84  MET84      -0.1393
     73  CE       112.3870   15.4890  -34.7710 C.3    84  MET84       0.0692
     74  N        116.5280   19.6500  -35.7270 N.am   85  GLU85      -0.1966
     75  CA       116.9890   20.8830  -35.1010 C.3    85  GLU85       0.1733
     76  C        117.1060   20.6680  -33.5950 C.2    85  GLU85       0.2616
     77  O        116.1430   20.2590  -32.9480 O.2    85  GLU85      -0.2715
     78  CB       116.0120   22.0170  -35.4140 C.3    85  GLU85       0.0429
     79  CG       116.2490   23.2990  -34.6410 C.3    85  GLU85       0.1163
     80  CD       115.1410   24.3200  -34.8590 C.2    85  GLU85       0.3649
     81  OE1      115.0950   25.3180  -34.1110 O.co2  85  GLU85      -0.2457
     82  OE2      114.3140   24.1230  -35.7760 O.co2  85  GLU85      -0.2457
     83  N        118.2780   20.9500  -33.0350 N.am   86  PHE86      -0.1960
     84  CA       118.4730   20.8440  -31.5920 C.3    86  PHE86       0.1771
     85  C        117.9880   22.0870  -30.8510 C.2    86  PHE86       0.2620
     86  O        118.3310   23.2140  -31.2280 O.2    86  PHE86      -0.2715
     87  CB       119.9350   20.5690  -31.2610 C.3    86  PHE86       0.0574
     88  CG       120.2460   20.6210  -29.7950 C.ar   86  PHE86      -0.0200
     89  CD1      119.6230   19.7470  -28.9100 C.ar   86  PHE86      -0.0042
     90  CD2      121.1770   21.5210  -29.3010 C.ar   86  PHE86      -0.0042
     91  CE1      119.9120   19.7780  -27.5560 C.ar   86  PHE86      -0.0003
     92  CE2      121.4750   21.5570  -27.9480 C.ar   86  PHE86      -0.0003
     93  CZ       120.8400   20.6840  -27.0740 C.ar   86  PHE86      -0.0000
     94  N        117.2230   21.8730  -29.7780 N.am   87  CYS87      -0.1954
     95  CA       116.6890   22.9730  -28.9800 C.3    87  CYS87       0.1828
     96  C        117.3590   22.9690  -27.6070 C.2    87  CYS87       0.2467
     97  O        116.9610   22.2220  -26.7150 O.2    87  CYS87      -0.2730
     98  CB       115.1700   22.8390  -28.8390 C.3    87  CYS87       0.0996
     99  SG       114.2780   22.7410  -30.4210 S.3    87  CYS87      -0.0797
    100  N        118.3870   23.8120  -27.4470 N.am   88  PRO88      -0.2715
    101  CA       119.2900   23.8930  -26.2900 C.3    88  PRO88       0.1536
    102  C        118.5860   24.1310  -24.9570 C.2    88  PRO88       0.2599
    103  O        119.0630   23.6440  -23.9250 O.2    88  PRO88      -0.2715
    104  CB       120.1690   25.1030  -26.6240 C.3    88  PRO88       0.0310
    105  CG       120.1450   25.1890  -28.1090 C.3    88  PRO88       0.0237
    106  CD       118.7660   24.7590  -28.5090 C.3    88  PRO88       0.0939
    107  N        117.4520   24.8260  -24.9890 N.am   89  CYS89      -0.1954
    108  CA       116.7420   25.2200  -23.7720 C.3    89  CYS89       0.1843
    109  C        115.9150   24.0660  -23.2010 C.2    89  CYS89       0.2626
    110  O        115.6770   23.9810  -21.9940 O.2    89  CYS89      -0.2714
    111  CB       115.8660   26.4440  -24.0330 C.3    89  CYS89       0.0997
    112  SG       116.8020   27.9110  -24.4910 S.3    89  CYS89      -0.0797
    113  N        115.4850   23.1780  -24.0830 N.am   90  GLY90      -0.1940
    114  CA       114.6600   22.0560  -23.7010 C.3    90  GLY90       0.2014
    115  C        113.2170   22.2090  -24.0930 C.2    90  GLY90       0.2639
    116  O        112.9150   22.7380  -25.1650 O.2    90  GLY90      -0.2714
    117  N        112.3210   21.7780  -23.2130 N.am   91  SER91      -0.1949
    118  CA       110.9080   21.7630  -23.5490 C.3    91  SER91       0.1924
    119  C        110.0650   22.5730  -22.5820 C.2    91  SER91       0.2314
    120  O        110.5570   23.0670  -21.5710 O.2    91  SER91      -0.2863
    121  CB       110.4090   20.3150  -23.5800 C.3    91  SER91       0.2116
    122  OG       110.3780   19.7640  -22.2750 O.3    91  SER91      -0.2180
    123  N        107.9680   21.3980  -20.6430 N.3    93  TYR93      -0.1227
    124  CA       108.0700   20.6370  -19.4040 C.3    93  TYR93       0.1736
    125  C        109.2300   21.1330  -18.5460 C.2    93  TYR93       0.2596
    126  O        109.0710   21.3580  -17.3450 O.2    93  TYR93      -0.2718
    127  CB       108.2560   19.1510  -19.7120 C.3    93  TYR93       0.0548
    128  CG       108.3810   18.2900  -18.4760 C.ar   93  TYR93      -0.0200
    129  CD1      109.6230   18.0310  -17.9010 C.ar   93  TYR93      -0.0009
    130  CD2      107.2510   17.7580  -17.8660 C.ar   93  TYR93      -0.0009
    131  CE1      109.7340   17.2500  -16.7620 C.ar   93  TYR93       0.0417
    132  CE2      107.3510   16.9770  -16.7280 C.ar   93  TYR93       0.0417
    133  CZ       108.5940   16.7240  -16.1780 C.ar   93  TYR93       0.1957
    134  OH       108.6910   15.9430  -15.0440 O.3    93  TYR93      -0.2866
    135  N        110.4030   21.2390  -19.1680 N.am   94  THR94      -0.1953
    136  CA       111.6050   21.7790  -18.5360 C.3    94  THR94       0.1897
    137  C        111.2570   23.0910  -17.8460 C.2    94  THR94       0.2313
    138  O        111.5100   23.2620  -16.6520 O.2    94  THR94      -0.2863
    139  CB       112.7050   22.0580  -19.5760 C.3    94  THR94       0.1794
    140  OG1      113.0110   20.8490  -20.2880 O.3    94  THR94      -0.2208
    141  CG2      113.9670   22.5730  -18.8930 C.3    94  THR94       0.0378
    142  N        105.8410   17.9780  -23.0880 N.3   137  GLY137     -0.1210
    143  CA       107.0460   17.2670  -23.4710 C.3   137  GLY137      0.1956
    144  C        107.3170   17.3340  -24.9630 C.2   137  GLY137      0.2611
    145  O        108.4540   17.1470  -25.3890 O.2   137  GLY137     -0.2717
    146  N        106.2670   17.5650  -25.7520 N.am  138  ASN138     -0.1974
    147  CA       106.3820   17.7290  -27.1990 C.3   138  ASN138      0.1688
    148  C        106.8030   19.1360  -27.5900 C.2   138  ASN138      0.2292
    149  O        107.2130   19.3640  -28.7260 O.2   138  ASN138     -0.2864
    150  CB       105.0330   17.4370  -27.8600 C.3   138  ASN138      0.1181
    151  CG       104.8200   15.9570  -28.1340 C.2   138  ASN138      0.2629
    152  OD1      104.2400   15.5830  -29.1530 O.2   138  ASN138     -0.2716
    153  ND2      105.3020   15.1070  -27.2330 N.am  138  ASN138     -0.0877
    154  N        109.0690   22.3090  -27.6050 N.3   140  MET140     -0.1245
    155  CA       110.4460   22.7430  -27.3810 C.3   140  MET140      0.1570
    156  C        110.5690   24.2440  -27.3250 C.2   140  MET140      0.2261
    157  O        109.8440   24.9650  -28.0060 O.2   140  MET140     -0.2867
    158  CB       111.3840   22.2070  -28.4720 C.3   140  MET140      0.0387
    159  CG       111.3560   20.7130  -28.7230 C.3   140  MET140      0.0595
    160  SD       111.5130   19.8410  -27.1510 S.3   140  MET140     -0.1393
    161  CE       110.0240   18.8920  -27.1520 C.3   140  MET140      0.0692
    162  N        107.3110   19.2710  -31.9790 N.3   154  THR154     -0.1203
    163  CA       108.0120   18.0770  -32.4290 C.3   154  THR154      0.1994
    164  C        107.3230   16.7920  -31.9590 C.2   154  THR154      0.2617
    165  O        106.3640   16.8420  -31.1880 O.2   154  THR154     -0.2717
    166  CB       109.4660   18.0770  -31.9520 C.3   154  THR154      0.1784
    167  OG1      110.1980   17.0810  -32.6750 O.3   154  THR154     -0.2211
    168  CG2      109.5270   17.7640  -30.4800 C.3   154  THR154      0.0376
    169  N        107.8100   15.6560  -32.4580 N.am  155  ASP155     -0.1973
    170  CA       107.3400   14.3220  -32.0720 C.3   155  ASP155      0.1709
    171  C        105.8530   14.0340  -32.3790 C.2   155  ASP155      0.2293
    172  O        105.0690   13.6720  -31.4940 O.2   155  ASP155     -0.2864
    173  CB       107.6170   14.1140  -30.5700 C.3   155  ASP155      0.1436
    174  CG       107.2990   12.7000  -30.0900 C.2   155  ASP155      0.3671
    175  OD1      107.4880   11.7400  -30.8720 O.co2 155  ASP155     -0.2456
    176  OD2      106.8380   12.5600  -28.9330 O.co2 155  ASP155     -0.2456
@<TRIPOS>BOND
     1    62    61    2
     2    61    60    1
     3    66    67    1
     4    72    71    1
     5    72    73    1
     6    67    68    1
     7    67    70    1
     8    71    70    1
     9    82    80   ar
    10    74    68   am
    11    74    75    1
    12    68    69    2
    13    78    75    1
    14    78    79    1
    15    53    52    2
    16    59    60    1
    17    60    63    1
    18    75    76    1
    19    80    79    1
    20    80    81   ar
    21    48    47    2
    22    64    63    1
    23    63    65    1
    24    52    51    1
    25    54    55    1
    26    54    51    1
    27    50    51    1
    28    56    55    1
    29    56    57    1
    30    76    83   am
    31    76    77    2
    32    47    46    1
    33    32    30    1
    34    57    58    1
    35    45    46    1
    36    83    84    1
    37   167   166    1
    38   169   170    1
    39   169   164   am
    40   163   162    1
    41   163   164    1
    42   163   166    1
    43    46    49    1
    44   171   170    1
    45   171   172    2
    46   170   173    1
    47   164   165    2
    48   166   168    1
    49    37    34    1
    50    29    28    2
    51    30    31    1
    52    30    27    1
    53    84    87    1
    54    84    85    1
    55    87    88    1
    56    86    85    2
    57    28    27    1
    58    28    33   am
    59   175   174   ar
    60    85    94   am
    61    27    26    1
    62    34    33    1
    63    34    35    1
    64   173   174    1
    65    99    98    1
    66    44    42    1
    67   174   176   ar
    68    88    90   ar
    69    88    89   ar
    70    94    95    1
    71    43    42    1
    72    35    36    2
    73    90    92   ar
    74    42    39    1
    75   152   151    2
    76    39    38    1
    77    39    40    1
    78    95    98    1
    79    95    96    1
    80    89    91   ar
    81   149   148    2
    82   159   158    1
    83   159   160    1
    84   106   105    1
    85   106   100    1
    86   158   155    1
    87    40    41    2
    88   151   150    1
    89   151   153   am
    90   105   104    1
    91   157   156    2
    92    92    93   ar
    93     7     6    1
    94   150   147    1
    95    96   100   am
    96    96    97    2
    97   154   155    1
    98   148   147    1
    99    91    93   ar
   100   100   101    1
   101   155   156    1
   102   147   146    1
   103   161   160    1
   104    25    24    2
   105    24    23    1
   106   104   101    1
   107    23    22    1
   108     6     5    1
   109     6     8    1
   110   101   102    1
   111    22    15   am
   112    12    11    2
   113     5     2    1
   114   146   144   am
   115   145   144    2
   116    11    10    1
   117    11    13   am
   118   116   115    2
   119    15    14    1
   120    15    16    2
   121     9    10    1
   122     9     3   am
   123     1     2    1
   124   107   102   am
   125   107   108    1
   126    14    13    1
   127    14    17    1
   128   144   143    1
   129   102   103    2
   130     2     3    1
   131     3     4    2
   132   112   111    1
   133   115   114    1
   134   115   117   am
   135   113   114    1
   136   113   109   am
   137   111   108    1
   138   108   109    1
   139    17    18    1
   140    18    19    1
   141   121   118    1
   142   121   122    1
   143   118   117    1
   144   118   119    1
   145   143   142    1
   146    21    19   am
   147   109   110    2
   148    19    20    2
   149   119   120    2
   150   123   124    1
   151   140   139    1
   152   127   124    1
   153   127   128    1
   154   139   141    1
   155   139   136    1
   156   124   125    1
   157   135   125   am
   158   135   136    1
   159   125   126    2
   160   136   137    1
   161   128   129   ar
   162   128   130   ar
   163   129   131   ar
   164   130   132   ar
   165   137   138    2
   166   131   133   ar
   167   132   133   ar
   168   133   134    1
