@<TRIPOS>MOLECULE
tmp/4im7A00.pdb
 142 135 0 0 0
SMALL
GASTEIGER

@<TRIPOS>ATOM
      1  N         33.8490    7.2540   14.9010 N.3    29  PHE29      -0.1241
      2  CA        34.4720    7.9020   16.0480 C.3    29  PHE29       0.1605
      3  C         33.9180    7.3800   17.3760 C.2    29  PHE29       0.2264
      4  O         34.6840    6.9910   18.2620 O.2    29  PHE29      -0.2867
      5  CB        34.3460    9.4250   15.9790 C.3    29  PHE29       0.0534
      6  CG        34.9290   10.1100   17.1790 C.ar   29  PHE29      -0.0203
      7  CD1       36.3040   10.1420   17.3660 C.ar   29  PHE29      -0.0042
      8  CD2       34.1100   10.6620   18.1500 C.ar   29  PHE29      -0.0042
      9  CE1       36.8520   10.7330   18.4880 C.ar   29  PHE29      -0.0003
     10  CE2       34.6580   11.2620   19.2760 C.ar   29  PHE29      -0.0003
     11  CZ        36.0240   11.3040   19.4370 C.ar   29  PHE29      -0.0000
     12  N         32.4120   18.1360   17.6400 N.3   181  ASN181     -0.1240
     13  CA        33.5320   19.1000   17.6500 C.3   181  ASN181      0.1653
     14  C         33.1770   20.5770   17.5540 C.2   181  ASN181      0.2266
     15  O         33.5900   21.2570   16.6090 O.2   181  ASN181     -0.2867
     16  CB        34.4880   18.7920   16.5020 C.3   181  ASN181      0.1155
     17  CG        35.5210   17.7710   16.8730 C.2   181  ASN181      0.2627
     18  OD1       35.9800   17.7250   18.0170 O.2   181  ASN181     -0.2716
     19  ND2       35.8970   16.9310   15.9080 N.am  181  ASN181     -0.0877
     20  N         36.5580   16.1010   22.7920 N.3   219  VAL219     -0.1231
     21  CA        36.8890   14.7340   22.4000 C.3   219  VAL219      0.1692
     22  C         38.0340   14.7460   21.4000 C.2   219  VAL219      0.2592
     23  O         38.0930   15.6120   20.5220 O.2   219  VAL219     -0.2718
     24  CB        35.6610   13.9960   21.8220 C.3   219  VAL219      0.0266
     25  CG1       34.5570   13.9220   22.8690 C.3   219  VAL219      0.0020
     26  CG2       35.1470   14.7000   20.5610 C.3   219  VAL219      0.0020
     27  N         38.9620   13.8070   21.5500 N.am  220  ASP220     -0.1960
     28  CA        40.0950   13.7380   20.6340 C.3   220  ASP220      0.1840
     29  C         40.5510   12.2920   20.4260 C.2   220  ASP220      0.2622
     30  O         40.9060   11.5930   21.3790 O.2   220  ASP220     -0.2715
     31  CB        41.2480   14.5980   21.1660 C.3   220  ASP220      0.1450
     32  CG        42.4010   14.7360   20.1720 C.2   220  ASP220      0.3671
     33  OD1       42.2510   14.3360   18.9930 O.co2 220  ASP220     -0.2456
     34  OD2       43.4650   15.2720   20.5720 O.co2 220  ASP220     -0.2456
     35  N         40.5050   11.8480   19.1700 N.am  221  ARG221     -0.1963
     36  CA        41.1660   10.6240   18.7330 C.3   221  ARG221      0.1729
     37  C         41.0020   10.6470   17.2290 C.2   221  ARG221      0.2616
     38  O         39.8920   10.8160   16.7360 O.2   221  ARG221     -0.2715
     39  CB        40.5020    9.3680   19.3150 C.3   221  ARG221      0.0348
     40  CG        40.9530    8.0630   18.6270 C.3   221  ARG221      0.0492
     41  CD        40.5930    6.8160   19.4330 C.3   221  ARG221      0.2205
     42  NE        41.7350    6.3360   20.2050 N.pl3 221  ARG221     -0.0865
     43  CZ        41.7860    5.1670   20.8460 C.cat 221  ARG221      0.5346
     44  NH1       40.7510    4.3370   20.8130 N.pl3 221  ARG221      0.1354
     45  NH2       42.8840    4.8220   21.5190 N.pl3 221  ARG221      0.1354
     46  N         42.1000   10.5140   16.4980 N.am  222  ILE222     -0.1963
     47  CA        42.0120   10.5060   15.0370 C.3   222  ILE222      0.1727
     48  C         41.4770    9.1620   14.5440 C.2   222  ILE222      0.2616
     49  O         42.0650    8.1050   14.8090 O.2   222  ILE222     -0.2715
     50  CB        43.3800   10.8160   14.4150 C.3   222  ILE222      0.0290
     51  CG1       43.7280   12.2930   14.6450 C.3   222  ILE222      0.0022
     52  CG2       43.3830   10.5000   12.9220 C.3   222  ILE222      0.0023
     53  CD1       45.2440   12.5860   14.5690 C.3   222  ILE222      0.0001
     54  N         40.3350    9.2060   13.8600 N.am  223  VAL223     -0.1977
     55  CA        39.6800    8.0140   13.3440 C.3   223  VAL223      0.1596
     56  C         39.2650    8.2360   11.8890 C.2   223  VAL223      0.2287
     57  O         38.2030    8.7920   11.6300 O.2   223  VAL223     -0.2864
     58  CB        38.4130    7.6770   14.1610 C.3   223  VAL223      0.0276
     59  CG1       37.8400    6.3610   13.6940 C.3   223  VAL223      0.0022
     60  CG2       38.7280    7.6050   15.6550 C.3   223  VAL223      0.0022
     61  N         42.1150   22.3450   21.5600 N.3   285  LYS285     -0.1245
     62  CA        42.1230   21.2360   20.6050 C.3   285  LYS285      0.1561
     63  C         41.4920   21.6320   19.2800 C.2   285  LYS285      0.2260
     64  O         42.0390   21.3250   18.2150 O.2   285  LYS285     -0.2867
     65  CB        41.4310   20.0060   21.1940 C.3   285  LYS285      0.0271
     66  CG        41.4900   18.7690   20.2980 C.3   285  LYS285      0.0035
     67  CD        40.1340   18.5180   19.6490 C.3   285  LYS285      0.0206
     68  CE        40.2120   17.4040   18.6420 C.3   285  LYS285      0.1093
     69  NZ        38.8700   17.1490   18.0410 N.3   285  LYS285     -0.1314
     70  N         44.6330   21.6150   16.9430 N.3   289  LEU289     -0.1231
     71  CA        44.5210   20.3850   16.1660 C.3   289  LEU289      0.1693
     72  C         43.5980   20.6220   14.9790 C.2   289  LEU289      0.2592
     73  O         44.0600   20.6220   13.8330 O.2   289  LEU289     -0.2718
     74  CB        44.0450   19.1910   17.0160 C.3   289  LEU289      0.0284
     75  CG        44.2360   17.7840   16.4160 C.3   289  LEU289      0.0019
     76  CD1       43.9710   16.6980   17.4670 C.3   289  LEU289      0.0001
     77  CD2       43.3590   17.5090   15.1820 C.3   289  LEU289      0.0001
     78  N         42.3030   20.8040   15.2270 N.am  290  ASN290     -0.1974
     79  CA        41.3680   20.8480   14.0920 C.3   290  ASN290      0.1688
     80  C         41.6530   21.9850   13.1040 C.2   290  ASN290      0.2292
     81  O         41.5270   21.7950   11.8900 O.2   290  ASN290     -0.2864
     82  CB        39.9150   20.8420   14.5700 C.3   290  ASN290      0.1181
     83  CG        39.5520   19.5500   15.2870 C.2   290  ASN290      0.2629
     84  OD1       39.3750   19.5340   16.5020 O.2   290  ASN290     -0.2716
     85  ND2       39.4540   18.4530   14.5320 N.am  290  ASN290     -0.0877
     86  N         44.5680   20.8050   11.0430 N.3   293  HIS293     -0.1241
     87  CA        43.9630   19.7680   10.2070 C.3   293  HIS293      0.1621
     88  C         43.2640   20.3350    8.9690 C.2   293  HIS293      0.2264
     89  O         43.4350   19.8690    7.8820 O.2   293  HIS293     -0.2867
     90  CB        42.9320   18.9690   10.9940 C.3   293  HIS293      0.0745
     91  CG        43.2650   17.5220   11.1400 C.ar  293  HIS293      0.0817
     92  ND1       42.3640   16.5830   11.5630 N.ar  293  HIS293     -0.2268
     93  CD2       44.4140   16.8580   10.9200 C.ar  293  HIS293      0.1154
     94  CE1       42.9450   15.4120   11.6040 C.ar  293  HIS293      0.1986
     95  NE2       44.1910   15.5480   11.2330 N.ar  293  HIS293     -0.2212
     96  N         44.5640    9.1560    6.5080 N.3   358  HIS358     -0.1241
     97  CA        43.4940   10.0940    6.7840 C.3   358  HIS358      0.1621
     98  C         43.4150   11.0680    5.6160 C.2   358  HIS358      0.2264
     99  O         44.3220   11.8780    5.4050 O.2   358  HIS358     -0.2867
    100  CB        43.7850   10.8270    8.0880 C.3   358  HIS358      0.0745
    101  CG        42.5790   11.4210    8.7530 C.ar  358  HIS358      0.0817
    102  ND1       42.6600   12.1100    9.9270 N.ar  358  HIS358     -0.2268
    103  CD2       41.2710   11.4170    8.3800 C.ar  358  HIS358      0.1154
    104  CE1       41.4370   12.5230   10.2770 C.ar  358  HIS358      0.1986
    105  NE2       40.5940   12.1100    9.3630 N.ar  358  HIS358     -0.2212
    106  N         38.4120   13.8910    3.2080 N.3   362  GLN362     -0.1231
    107  CA        37.4830   13.6880    4.3130 C.3   362  GLN362      0.1698
    108  C         37.4990   14.8700    5.2850 C.2   362  GLN362      0.2592
    109  O         36.4460   15.3780    5.6850 O.2   362  GLN362     -0.2718
    110  CB        37.7730   12.3890    5.0870 C.3   362  GLN362      0.0381
    111  CG        36.8870   12.3100    6.3410 C.3   362  GLN362      0.0905
    112  CD        37.0960   11.0710    7.1830 C.2   362  GLN362      0.2608
    113  OE1       38.0930   10.3590    7.0390 O.2   362  GLN362     -0.2717
    114  NE2       36.1510   10.8100    8.0840 N.am  362  GLN362     -0.0878
    115  N         38.6910   15.2950    5.6850 N.am  363  ILE363     -0.1980
    116  CA        38.8050   16.4060    6.6330 C.3   363  ILE363      0.1595
    117  C         38.1820   17.6750    6.0440 C.2   363  ILE363      0.2287
    118  O         37.5870   18.4800    6.7600 O.2   363  ILE363     -0.2864
    119  CB        40.2770   16.6320    7.0270 C.3   363  ILE363      0.0276
    120  CG1       40.7920   15.4120    7.7980 C.3   363  ILE363      0.0022
    121  CG2       40.4490   17.8920    7.8870 C.3   363  ILE363      0.0022
    122  CD1       42.3130   15.3390    7.8640 C.3   363  ILE363      0.0001
    123  N         32.8290   24.1110   10.1340 N.3   370  LYS370     -0.1245
    124  CA        34.0880   23.9350   10.8700 C.3   370  LYS370      0.1561
    125  C         34.9310   25.2150   10.9490 C.2   370  LYS370      0.2260
    126  O         35.5710   25.4690   11.9620 O.2   370  LYS370     -0.2867
    127  CB        34.9230   22.8270   10.2040 C.3   370  LYS370      0.0271
    128  CG        34.2980   21.4340   10.2790 C.3   370  LYS370      0.0035
    129  CD        35.0450   20.4360    9.3700 C.3   370  LYS370      0.0206
    130  CE        34.4520   19.0320    9.5010 C.3   370  LYS370      0.1093
    131  NZ        35.2300   18.0130    8.7130 N.3   370  LYS370     -0.1314
    132  N         37.3930   26.6580   14.1270 N.3   374  ARG374     -0.1245
    133  CA        38.7460   26.1720   13.8690 C.3   374  ARG374      0.1563
    134  C         39.6980   27.2810   13.4750 C.2   374  ARG374      0.2260
    135  O         40.8940   27.2220   13.7980 O.2   374  ARG374     -0.2867
    136  CB        38.7430   25.0990   12.7780 C.3   374  ARG374      0.0307
    137  CG        38.0290   23.8210   13.1870 C.3   374  ARG374      0.0489
    138  CD        38.0820   22.7860   12.0790 C.3   374  ARG374      0.2205
    139  NE        37.2980   21.6120   12.4500 N.pl3 374  ARG374     -0.0865
    140  CZ        37.5320   20.3830   12.0070 C.cat 374  ARG374      0.5346
    141  NH1       38.5310   20.1570   11.1660 N.pl3 374  ARG374      0.1354
    142  NH2       36.7690   19.3780   12.4130 N.pl3 374  ARG374      0.1354
@<TRIPOS>BOND
     1   106   107    1
     2   107   110    1
     3   107   108    1
     4   110   111    1
     5   108   109    2
     6   108   115   am
     7    99    98    2
     8    98    97    1
     9   115   116    1
    10   117   116    1
    11   117   118    2
    12   111   112    1
    13    96    97    1
    14   116   119    1
    15    97   100    1
    16   119   120    1
    17   119   121    1
    18   113   112    2
    19   112   114   am
    20   120   122    1
    21    89    88    2
    22   100   101    1
    23   103   101   ar
    24   103   105   ar
    25   131   130    1
    26   101   102   ar
    27    88    87    1
    28   105   104   ar
    29   129   130    1
    30   129   128    1
    31   102   104   ar
    32   123   124    1
    33   127   128    1
    34   127   124    1
    35    87    90    1
    36    87    86    1
    37   124   125    1
    38    93    91   ar
    39    93    95   ar
    40   125   126    2
    41    90    91    1
    42    91    92   ar
    43   141   140    1
    44    95    94   ar
    45    92    94   ar
    46    57    56    2
    47    56    55    1
    48    81    80    2
    49   140   142    1
    50   140   139    2
    51   138   139    1
    52   138   137    1
    53   136   137    1
    54   136   133    1
    55    52    50    1
    56    80    79    1
    57    55    54    1
    58    55    58    1
    59   134   135    2
    60   134   133    1
    61    59    58    1
    62    73    72    2
    63    54    48   am
    64   133   132    1
    65    79    82    1
    66    79    78    1
    67    58    60    1
    68    50    51    1
    69    50    47    1
    70    85    83   am
    71    48    49    2
    72    48    47    1
    73    53    51    1
    74    82    83    1
    75     1     2    1
    76    72    78   am
    77    72    71    1
    78    47    46    1
    79    77    75    1
    80    83    84    2
    81    19    17   am
    82     5     2    1
    83     5     6    1
    84     2     3    1
    85    71    70    1
    86    71    74    1
    87    75    74    1
    88    75    76    1
    89    46    37   am
    90    16    17    1
    91    16    13    1
    92    15    14    2
    93    38    37    2
    94    17    18    2
    95     6     7   ar
    96     6     8   ar
    97    37    36    1
    98     7     9   ar
    99     3     4    2
   100    14    13    1
   101    12    13    1
   102    69    68    1
   103     8    10   ar
   104    64    63    2
   105     9    11   ar
   106    40    39    1
   107    40    41    1
   108    68    67    1
   109    36    35    1
   110    36    39    1
   111    33    32   ar
   112    35    29   am
   113    10    11   ar
   114    63    62    1
   115    41    42    1
   116    67    66    1
   117    32    34   ar
   118    32    31    1
   119    42    43    2
   120    66    65    1
   121    29    28    1
   122    29    30    2
   123    23    22    2
   124    26    24    1
   125    62    65    1
   126    62    61    1
   127    28    31    1
   128    28    27    1
   129    44    43    1
   130    43    45    1
   131    22    27   am
   132    22    21    1
   133    24    21    1
   134    24    25    1
   135    21    20    1
