@<TRIPOS>MOLECULE
tmp/4imaA01.pdb
 166 161 0 0 0
SMALL
GASTEIGER

@<TRIPOS>ATOM
      1  N         36.7240  -24.3760  -10.9780 N.3   400  THR400     -0.1218
      2  CA        36.8530  -24.8240   -9.6000 C.3   400  THR400      0.1862
      3  C         37.0070  -23.6000   -8.6820 C.2   400  THR400      0.2287
      4  O         36.3590  -23.5000   -7.6440 O.2   400  THR400     -0.2866
      5  CB        38.0420  -25.7970   -9.4250 C.3   400  THR400      0.1770
      6  OG1       37.8640  -26.9470  -10.2720 O.3   400  THR400     -0.2211
      7  CG2       38.1430  -26.2530   -7.9840 C.3   400  THR400      0.0375
      8  N         33.1420  -33.1310   -3.3040 N.3   422  LEU422     -0.1231
      9  CA        33.7960  -34.3170   -3.8200 C.3   422  LEU422      0.1693
     10  C         35.1390  -33.8990   -4.3850 C.2   422  LEU422      0.2593
     11  O         35.2400  -32.8730   -5.0720 O.2   422  LEU422     -0.2718
     12  CB        32.9380  -34.9760   -4.9080 C.3   422  LEU422      0.0284
     13  CG        31.9560  -36.0440   -4.4160 C.3   422  LEU422      0.0019
     14  CD1       31.1350  -35.5730   -3.2430 C.3   422  LEU422      0.0001
     15  CD2       31.0490  -36.5130   -5.5560 C.3   422  LEU422      0.0001
     16  N         36.1740  -34.6760   -4.0850 N.am  423  THR423     -0.1939
     17  CA        37.5110  -34.3070   -4.5210 C.3   423  THR423      0.2028
     18  C         38.3960  -35.5320   -4.6980 C.2   423  THR423      0.2643
     19  O         38.3540  -36.4660   -3.9020 O.2   423  THR423     -0.2714
     20  CB        38.1840  -33.2840   -3.5370 C.3   423  THR423      0.1808
     21  OG1       39.4520  -32.8850   -4.0640 O.3   423  THR423     -0.2208
     22  CG2       38.3980  -33.8980   -2.1740 C.3   423  THR423      0.0379
     23  N         39.1970  -35.5230   -5.7560 N.am  424  THR424     -0.1936
     24  CA        40.0900  -36.6330   -6.0360 C.3   424  THR424      0.2028
     25  C         41.4670  -36.3890   -5.4210 C.2   424  THR424      0.2642
     26  O         42.0590  -37.2930   -4.8380 O.2   424  THR424     -0.2714
     27  CB        40.2430  -36.8360   -7.5600 C.3   424  THR424      0.1808
     28  OG1       38.9900  -37.2600   -8.1200 O.3   424  THR424     -0.2208
     29  CG2       41.3080  -37.8680   -7.8640 C.3   424  THR424      0.0379
     30  N         41.9590  -35.1600   -5.5510 N.am  425  THR425     -0.1950
     31  CA        43.3120  -34.7930   -5.1240 C.3   425  THR425      0.1897
     32  C         43.3310  -33.9240   -3.8740 C.2   425  THR425      0.2313
     33  O         44.3960  -33.6810   -3.3140 O.2   425  THR425     -0.2863
     34  CB        44.0370  -33.9820   -6.2160 C.3   425  THR425      0.1794
     35  OG1       43.3380  -32.7400   -6.4350 O.3   425  THR425     -0.2208
     36  CG2       44.1060  -34.7690   -7.5250 C.3   425  THR425      0.0378
     37  N         42.3120  -30.7380   -4.0340 N.3   427  ARG427     -0.1231
     38  CA        42.2950  -29.3800   -4.5700 C.3   427  ARG427      0.1694
     39  C         40.9670  -28.6200   -4.4250 C.2   427  ARG427      0.2592
     40  O         40.9690  -27.4420   -4.0760 O.2   427  ARG427     -0.2718
     41  CB        42.7220  -29.3610   -6.0470 C.3   427  ARG427      0.0321
     42  CG        42.8000  -27.9420   -6.6180 C.3   427  ARG427      0.0489
     43  CD        43.6930  -27.8630   -7.8390 C.3   427  ARG427      0.2205
     44  NE        43.6310  -26.5450   -8.4700 N.pl3 427  ARG427     -0.0865
     45  CZ        42.7160  -26.1770   -9.3570 C.cat 427  ARG427      0.5346
     46  NH1       41.7740  -27.0270   -9.7350 N.pl3 427  ARG427      0.1354
     47  NH2       42.7400  -24.9570   -9.8740 N.pl3 427  ARG427      0.1354
     48  N         39.8440  -29.2680   -4.7030 N.am  428  SER428     -0.1952
     49  CA        38.5650  -28.5570   -4.6530 C.3   428  SER428      0.1924
     50  C         38.2740  -28.1430   -3.2160 C.2   428  SER428      0.2314
     51  O         37.7040  -27.0810   -2.9600 O.2   428  SER428     -0.2863
     52  CB        37.4250  -29.4060   -5.2280 C.3   428  SER428      0.2116
     53  OG        37.6440  -29.6870   -6.6030 O.3   428  SER428     -0.2180
     54  N         37.9830  -40.7930   -2.5850 N.3   446  ARG446     -0.1245
     55  CA        38.4180  -42.1850   -2.6250 C.3   446  ARG446      0.1563
     56  C         39.9200  -42.3270   -2.3780 C.2   446  ARG446      0.2260
     57  O         40.4110  -43.4390   -2.1560 O.2   446  ARG446     -0.2867
     58  CB        38.0340  -42.8420   -3.9540 C.3   446  ARG446      0.0307
     59  CG        36.5750  -43.2170   -4.0410 C.3   446  ARG446      0.0489
     60  CD        36.3480  -44.2070   -5.1840 C.3   446  ARG446      0.2205
     61  NE        35.0230  -44.8160   -5.1410 N.pl3 446  ARG446     -0.0865
     62  CZ        33.9690  -44.3620   -5.8170 C.cat 446  ARG446      0.5346
     63  NH1       34.0780  -43.2800   -6.5780 N.pl3 446  ARG446      0.1354
     64  NH2       32.8020  -44.9900   -5.7300 N.pl3 446  ARG446      0.1354
     65  N         27.4440  -43.1550  -13.2810 N.3   473  TRP473     -0.1241
     66  CA        28.2780  -42.1420  -12.6330 C.3   473  TRP473      0.1605
     67  C         27.4880  -41.1370  -11.7970 C.2   473  TRP473      0.2264
     68  O         27.8850  -40.8250  -10.6780 O.2   473  TRP473     -0.2867
     69  CB        29.1620  -41.4020  -13.6490 C.3   473  TRP473      0.0550
     70  CG        30.1040  -40.4080  -12.9900 C.ar  473  TRP473      0.0003
     71  CD1       31.1520  -40.7020  -12.1570 C.ar  473  TRP473      0.0946
     72  CD2       30.0870  -38.9760  -13.1150 C.ar  473  TRP473      0.0152
     73  NE1       31.7770  -39.5400  -11.7520 N.ar  473  TRP473     -0.2442
     74  CE2       31.1420  -38.4710  -12.3220 C.ar  473  TRP473      0.0810
     75  CE3       29.2760  -38.0720  -13.8060 C.ar  473  TRP473      0.0012
     76  CZ2       31.4080  -37.1070  -12.2100 C.ar  473  TRP473      0.0191
     77  CZ3       29.5450  -36.7150  -13.6910 C.ar  473  TRP473      0.0001
     78  CH2       30.6030  -36.2480  -12.9000 C.ar  473  TRP473      0.0015
     79  N         26.8580  -42.5460   -8.6970 N.3   476  ASP476     -0.1225
     80  CA        28.0420  -42.6980   -7.8510 C.3   476  ASP476      0.1805
     81  C         28.3110  -41.3860   -7.1060 C.2   476  ASP476      0.2597
     82  O         28.6530  -41.3790   -5.9170 O.2   476  ASP476     -0.2718
     83  CB        29.2490  -43.0660   -8.7080 C.3   476  ASP476      0.1424
     84  CG        30.4160  -43.5530   -7.8810 C.2   476  ASP476      0.3668
     85  OD1       30.2520  -44.5830   -7.1900 O.co2 476  ASP476     -0.2456
     86  OD2       31.4870  -42.9070   -7.9230 O.co2 476  ASP476     -0.2456
     87  N         28.1510  -40.2820   -7.8290 N.am  477  VAL477     -0.1980
     88  CA        28.2390  -38.9570   -7.2380 C.3   477  VAL477      0.1595
     89  C         27.2480  -38.8300   -6.0820 C.2   477  VAL477      0.2287
     90  O         27.6420  -38.5950   -4.9310 O.2   477  VAL477     -0.2864
     91  CB        27.9610  -37.8850   -8.2890 C.3   477  VAL477      0.0276
     92  CG1       27.9850  -36.4890   -7.6570 C.3   477  VAL477      0.0022
     93  CG2       28.9790  -37.9880   -9.4070 C.3   477  VAL477      0.0022
     94  N         28.0710  -40.7240   -2.8450 N.3   480  ARG480     -0.1245
     95  CA        29.1410  -40.0970   -2.0570 C.3   480  ARG480      0.1563
     96  C         28.6380  -38.8620   -1.3170 C.2   480  ARG480      0.2260
     97  O         28.9670  -38.6510   -0.1400 O.2   480  ARG480     -0.2867
     98  CB        30.3440  -39.7450   -2.9400 C.3   480  ARG480      0.0307
     99  CG        31.1220  -40.9740   -3.4320 C.3   480  ARG480      0.0489
    100  CD        32.2880  -40.5970   -4.3470 C.3   480  ARG480      0.2205
    101  NE        31.8810  -40.5360   -5.7520 N.pl3 480  ARG480     -0.0865
    102  CZ        32.6100  -39.9860   -6.7180 C.cat 480  ARG480      0.5346
    103  NH1       33.7780  -39.4220   -6.4340 N.pl3 480  ARG480      0.1354
    104  NH2       32.1610  -39.9790   -7.9670 N.pl3 480  ARG480      0.1354
    105  N         30.1720  -30.2910   -6.5920 N.3   504  THR504     -0.1203
    106  CA        30.5510  -31.4170   -7.4320 C.3   504  THR504      0.1994
    107  C         31.0360  -30.9300   -8.7950 C.2   504  THR504      0.2618
    108  O         31.2000  -29.7270   -9.0170 O.2   504  THR504     -0.2717
    109  CB        29.3540  -32.3690   -7.6570 C.3   504  THR504      0.1784
    110  OG1       28.2230  -31.5980   -8.0660 O.3   504  THR504     -0.2211
    111  CG2       29.0010  -33.0890   -6.3700 C.3   504  THR504      0.0376
    112  N         31.2310  -31.8770   -9.7160 N.am  505  GLY505     -0.1956
    113  CA        31.7630  -31.5690  -11.0290 C.3   505  GLY505      0.1869
    114  C         30.9060  -32.2080  -12.1060 C.2   505  GLY505      0.2309
    115  O         29.9990  -32.9810  -11.7930 O.2   505  GLY505     -0.2863
    116  N         31.9830  -34.1040  -14.8870 N.3   507  ARG507     -0.1231
    117  CA        32.4990  -35.3500  -15.4510 C.3   507  ARG507      0.1679
    118  C         33.4950  -35.9460  -14.4560 C.2   507  ARG507      0.2434
    119  O         34.0520  -35.2200  -13.6360 O.2   507  ARG507     -0.2733
    120  CB        33.2110  -35.0780  -16.7740 C.3   507  ARG507      0.0321
    121  CG        34.3610  -34.0890  -16.6540 C.3   507  ARG507      0.0489
    122  CD        35.4190  -34.2830  -17.7470 C.3   507  ARG507      0.2205
    123  NE        35.7590  -35.6940  -17.9430 N.pl3 507  ARG507     -0.0865
    124  CZ        36.9820  -36.2060  -17.8360 C.cat 507  ARG507      0.5346
    125  NH1       38.0140  -35.4420  -17.5340 N.pl3 507  ARG507      0.1354
    126  NH2       37.1780  -37.4980  -18.0380 N.pl3 507  ARG507      0.1354
    127  N         33.7410  -37.2630  -14.5260 N.am  508  PRO508     -0.2718
    128  CA        34.7180  -37.8410  -13.5840 C.3   508  PRO508      0.1535
    129  C         36.1530  -37.3840  -13.8450 C.2   508  PRO508      0.2599
    130  O         36.4410  -36.8270  -14.9030 O.2   508  PRO508     -0.2715
    131  CB        34.5830  -39.3530  -13.8090 C.3   508  PRO508      0.0310
    132  CG        33.9540  -39.5010  -15.1570 C.3   508  PRO508      0.0237
    133  CD        33.1040  -38.2800  -15.3830 C.3   508  PRO508      0.0939
    134  N         37.0490  -37.6200  -12.8850 N.am  509  GLY509     -0.1941
    135  CA        38.4220  -37.1770  -13.0220 C.3   509  GLY509      0.2014
    136  C         38.6220  -35.8310  -12.3400 C.2   509  GLY509      0.2640
    137  O         37.6770  -35.0440  -12.1930 O.2   509  GLY509     -0.2714
    138  N         39.8580  -35.5610  -11.9450 N.am  510  SER510     -0.1935
    139  CA        40.1990  -34.3360  -11.2270 C.3   510  SER510      0.2055
    140  C         40.1610  -33.1070  -12.1380 C.2   510  SER510      0.2644
    141  O         40.5500  -33.1790  -13.3050 O.2   510  SER510     -0.2714
    142  CB        41.5870  -34.4790  -10.5920 C.3   510  SER510      0.2130
    143  OG        42.0340  -33.2530  -10.0360 O.3   510  SER510     -0.2179
    144  N         39.6920  -31.9830  -11.5990 N.am  511  GLY511     -0.1939
    145  CA        39.7280  -30.7170  -12.3130 C.3   511  GLY511      0.2014
    146  C         38.4600  -30.2270  -13.0040 C.2   511  GLY511      0.2639
    147  O         38.5250  -29.2610  -13.7520 O.2   511  GLY511     -0.2714
    148  N         37.3190  -30.8630  -12.7490 N.am  512  TYR512     -0.1959
    149  CA        36.0750  -30.5210  -13.4440 C.3   512  TYR512      0.1771
    150  C         34.9660  -30.0450  -12.5110 C.2   512  TYR512      0.2620
    151  O         33.8160  -29.9100  -12.9150 O.2   512  TYR512     -0.2715
    152  CB        35.6040  -31.6850  -14.3290 C.3   512  TYR512      0.0574
    153  CG        36.6610  -32.0700  -15.3330 C.ar  512  TYR512     -0.0198
    154  CD1       37.4010  -33.2350  -15.1800 C.ar  512  TYR512     -0.0009
    155  CD2       36.9630  -31.2350  -16.4030 C.ar  512  TYR512     -0.0009
    156  CE1       38.3890  -33.5680  -16.0800 C.ar  512  TYR512      0.0417
    157  CE2       37.9430  -31.5640  -17.3150 C.ar  512  TYR512      0.0417
    158  CZ        38.6500  -32.7320  -17.1540 C.ar  512  TYR512      0.1957
    159  OH        39.6330  -33.0570  -18.0580 O.3   512  TYR512     -0.2866
    160  N         35.3270  -29.7510  -11.2690 N.am  513  THR513     -0.1951
    161  CA        34.4070  -29.0970  -10.3530 C.3   513  THR513      0.1897
    162  C         33.8240  -27.8490  -11.0200 C.2   513  THR513      0.2313
    163  O         34.5530  -27.0320  -11.5980 O.2   513  THR513     -0.2863
    164  CB        35.1280  -28.7170   -9.0200 C.3   513  THR513      0.1794
    165  OG1       35.6040  -29.9110   -8.3920 O.3   513  THR513     -0.2208
    166  CG2       34.1810  -28.0040   -8.0710 C.3   513  THR513      0.0378
@<TRIPOS>BOND
     1   159   158    1
     2   126   124    1
     3   123   124    2
     4   123   122    1
     5   124   125    1
     6   122   121    1
     7   157   158   ar
     8   157   155   ar
     9   158   156   ar
    10   120   121    1
    11   120   117    1
    12   155   153   ar
    13   156   154   ar
    14   117   116    1
    15   117   118    1
    16   133   132    1
    17   133   127    1
    18   153   154   ar
    19   153   152    1
    20   132   131    1
    21   130   129    2
    22   127   118   am
    23   127   128    1
    24   118   119    2
    25   152   149    1
    26   129   128    1
    27   129   134   am
    28   131   128    1
    29    75    77   ar
    30    75    72   ar
    31   147   146    2
    32    77    78   ar
    33    69    70    1
    34    69    66    1
    35   149   148    1
    36   149   150    1
    37   141   140    2
    38    65    66    1
    39    72    70   ar
    40    72    74   ar
    41   135   134    1
    42   135   136    1
    43   146   148   am
    44   146   145    1
    45    70    71   ar
    46   151   150    2
    47    78    76   ar
    48    66    67    1
    49   150   160   am
    50   136   137    2
    51   136   138   am
    52    74    76   ar
    53    74    73   ar
    54   145   144    1
    55    71    73   ar
    56   140   144   am
    57   140   139    1
    58   114   115    2
    59   114   113    1
    60   138   139    1
    61    67    68    2
    62   163   162    2
    63   160   161    1
    64   139   142    1
    65   113   112    1
    66   162   161    1
    67     1     2    1
    68   142   143    1
    69   161   164    1
    70     6     5    1
    71    47    45    1
    72    46    45    1
    73   112   107   am
    74     2     5    1
    75     2     3    1
    76     5     7    1
    77    93    91    1
    78    45    44    2
    79   164   165    1
    80   164   166    1
    81   108   107    2
    82   107   106    1
    83    83    84    1
    84    83    80    1
    85    79    80    1
    86     3     4    2
    87    44    43    1
    88    91    92    1
    89    91    88    1
    90    28    27    1
    91   110   109    1
    92   104   102    1
    93    86    84   ar
    94    84    85   ar
    95    29    27    1
    96    80    81    1
    97    43    42    1
    98    87    88    1
    99    87    81   am
   100   109   106    1
   101   109   111    1
   102    27    24    1
   103    36    34    1
   104   106   105    1
   105    88    89    1
   106    81    82    2
   107   102   103    1
   108   102   101    2
   109    42    41    1
   110    53    52    1
   111    63    62    1
   112    35    34    1
   113    34    31    1
   114    89    90    2
   115    41    38    1
   116    24    23    1
   117    24    25    1
   118    62    64    1
   119    62    61    2
   120    23    18   am
   121   101   100    1
   122    15    13    1
   123    30    25   am
   124    30    31    1
   125    25    26    2
   126    52    49    1
   127    60    61    1
   128    60    59    1
   129    31    32    1
   130    11    10    2
   131    12    13    1
   132    12     9    1
   133    48    49    1
   134    48    39   am
   135    18    17    1
   136    18    19    2
   137    49    50    1
   138    38    39    1
   139    38    37    1
   140    17    16    1
   141    17    20    1
   142    39    40    2
   143    13    14    1
   144    10    16   am
   145    10     9    1
   146   100    99    1
   147    21    20    1
   148    59    58    1
   149    58    55    1
   150    32    33    2
   151     9     8    1
   152    20    22    1
   153    99    98    1
   154    50    51    2
   155    98    95    1
   156    94    95    1
   157    55    54    1
   158    55    56    1
   159    56    57    2
   160    95    96    1
   161    96    97    2
