@<TRIPOS>MOLECULE
tmp/4imaA00.pdb
 106 93 0 0 0
SMALL
GASTEIGER

@<TRIPOS>ATOM
      1  N         53.9780  -36.2620   13.5350 N.3    70  ARG70      -0.1245
      2  CA        55.2690  -35.7790   13.0560 C.3    70  ARG70       0.1563
      3  C         56.4050  -36.6920   13.5310 C.2    70  ARG70       0.2260
      4  O         56.5340  -36.9700   14.7220 O.2    70  ARG70      -0.2867
      5  CB        55.5160  -34.3460   13.5500 C.3    70  ARG70       0.0307
      6  CG        56.8770  -33.7620   13.1630 C.3    70  ARG70       0.0489
      7  CD        57.1470  -32.4000   13.8440 C.3    70  ARG70       0.2205
      8  NE        58.5520  -32.0130   13.7460 N.pl3  70  ARG70      -0.0865
      9  CZ        59.3910  -31.9150   14.7750 C.cat  70  ARG70       0.5346
     10  NH1       58.9880  -32.1430   16.0200 N.pl3  70  ARG70       0.1354
     11  NH2       60.6500  -31.5720   14.5560 N.pl3  70  ARG70       0.1354
     12  N         60.3210  -36.8810   13.9560 N.3    72  ASN72      -0.1240
     13  CA        61.4750  -36.0010   14.0080 C.3    72  ASN72       0.1653
     14  C         62.7470  -36.7720   13.6920 C.2    72  ASN72       0.2266
     15  O         63.2710  -37.4920   14.5330 O.2    72  ASN72      -0.2867
     16  CB        61.5760  -35.3570   15.3950 C.3    72  ASN72       0.1155
     17  CG        62.7170  -34.3700   15.5020 C.2    72  ASN72       0.2627
     18  OD1       63.3940  -34.0640   14.5190 O.2    72  ASN72      -0.2716
     19  ND2       62.9370  -33.8650   16.7110 N.am   72  ASN72      -0.0877
     20  N         65.6450  -35.8620   13.4820 N.3    74  SER74      -0.1217
     21  CA        66.8480  -35.3930   14.1610 C.3    74  SER74       0.1889
     22  C         67.3480  -36.4570   15.1150 C.2    74  SER74       0.2288
     23  O         68.5210  -36.4920   15.4430 O.2    74  SER74      -0.2866
     24  CB        66.5910  -34.0950   14.9310 C.3    74  SER74       0.2089
     25  OG        66.4190  -33.0210   14.0300 O.3    74  SER74      -0.2183
     26  N         59.9150  -35.0990    9.2780 N.3   108  ASP108     -0.1239
     27  CA        60.6340  -33.8550    9.5190 C.3   108  ASP108      0.1674
     28  C         62.1530  -34.0740    9.4330 C.2   108  ASP108      0.2266
     29  O         62.7340  -34.7030   10.3110 O.2   108  ASP108     -0.2867
     30  CB        60.2540  -33.3440   10.9060 C.3   108  ASP108      0.1410
     31  CG        60.6190  -31.8900   11.1070 C.2   108  ASP108      0.3668
     32  OD1       61.7310  -31.5020   10.6940 O.co2 108  ASP108     -0.2456
     33  OD2       59.7970  -31.1470   11.6810 O.co2 108  ASP108     -0.2456
     34  N         72.2830  -29.8160   10.9140 N.3   113  GLU113     -0.1245
     35  CA        72.4190  -29.7030   12.3550 C.3   113  GLU113      0.1567
     36  C         73.8720  -29.7200   12.7920 C.2   113  GLU113      0.2260
     37  O         74.6500  -30.5540   12.3400 O.2   113  GLU113     -0.2867
     38  CB        71.6940  -30.8520   13.0450 C.3   113  GLU113      0.0388
     39  CG        70.1920  -30.8090   12.8790 C.3   113  GLU113      0.1160
     40  CD        69.4850  -31.6430   13.9200 C.2   113  GLU113      0.3649
     41  OE1       70.1270  -32.5540   14.4940 O.co2 113  GLU113     -0.2457
     42  OE2       68.2920  -31.3720   14.1680 O.co2 113  GLU113     -0.2457
     43  N         60.3890  -25.5440    5.7400 N.3   261  LYS261     -0.1245
     44  CA        60.6160  -24.9180    7.0360 C.3   261  LYS261      0.1561
     45  C         61.4700  -23.6660    6.8810 C.2   261  LYS261      0.2260
     46  O         62.6090  -23.7400    6.4330 O.2   261  LYS261     -0.2867
     47  CB        61.3010  -25.9020    7.9970 C.3   261  LYS261      0.0271
     48  CG        60.4480  -27.1090    8.3510 C.3   261  LYS261      0.0035
     49  CD        61.2730  -28.2350    8.9680 C.3   261  LYS261      0.0206
     50  CE        61.8830  -27.8260   10.2830 C.3   261  LYS261      0.1093
     51  NZ        62.6730  -28.9530   10.9060 N.3   261  LYS261     -0.1314
     52  N         63.5750  -21.0110    8.7520 N.3   263  GLU263     -0.1245
     53  CA        64.2610  -21.1230   10.0350 C.3   263  GLU263      0.1567
     54  C         65.4250  -20.1600   10.1630 C.2   263  GLU263      0.2260
     55  O         66.1450  -20.1950   11.1610 O.2   263  GLU263     -0.2867
     56  CB        64.8250  -22.5320   10.2350 C.3   263  GLU263      0.0388
     57  CG        63.9950  -23.6740    9.7340 C.3   263  GLU263      0.1160
     58  CD        64.3430  -24.9430   10.4670 C.2   263  GLU263      0.3649
     59  OE1       64.3590  -24.8990   11.7100 O.co2 263  GLU263     -0.2457
     60  OE2       64.6150  -25.9770    9.8200 O.co2 263  GLU263     -0.2457
     61  N         56.2470  -24.0570    6.9860 N.3   282  MET282     -0.1245
     62  CA        56.2550  -24.1000    8.4440 C.3   282  MET282      0.1570
     63  C         57.0340  -22.9070    8.9780 C.2   282  MET282      0.2261
     64  O         58.1810  -22.6710    8.5830 O.2   282  MET282     -0.2867
     65  CB        56.8810  -25.3840    8.9960 C.3   282  MET282      0.0387
     66  CG        56.9460  -25.3800   10.5380 C.3   282  MET282      0.0595
     67  SD        57.8640  -26.7470   11.2980 S.3   282  MET282     -0.1393
     68  CE        57.0460  -28.1520   10.5590 C.3   282  MET282      0.0692
     69  N         59.1860  -22.1390   11.5740 N.3   284  ALA284     -0.1245
     70  CA        59.9040  -22.9900   12.5110 C.3   284  ALA284      0.1562
     71  C         60.5720  -22.1200   13.5470 C.2   284  ALA284      0.2260
     72  O         61.7500  -21.7660   13.4200 O.2   284  ALA284     -0.2867
     73  CB        60.9330  -23.8740   11.7850 C.3   284  ALA284      0.0290
     74  N         61.6620  -22.2660   16.5820 N.3   286  GLY286     -0.1210
     75  CA        62.7620  -22.6570   17.4440 C.3   286  GLY286      0.1956
     76  C         64.0640  -22.1030   16.9160 C.2   286  GLY286      0.2611
     77  O         64.7100  -21.2590   17.5570 O.2   286  GLY286     -0.2717
     78  N         64.4520  -22.5750   15.7360 N.am  287  ASP287     -0.1973
     79  CA        65.6900  -22.1200   15.1200 C.3   287  ASP287      0.1709
     80  C         65.5820  -20.6800   14.6680 C.2   287  ASP287      0.2293
     81  O         66.5530  -19.9370   14.7220 O.2   287  ASP287     -0.2864
     82  CB        66.1060  -23.0210   13.9540 C.3   287  ASP287      0.1436
     83  CG        66.9390  -24.2160   14.4110 C.2   287  ASP287      0.3671
     84  OD1       68.0260  -23.9920   14.9840 O.co2 287  ASP287     -0.2456
     85  OD2       66.5070  -25.3750   14.2090 O.co2 287  ASP287     -0.2456
     86  N         56.5790  -24.7610   17.4040 N.3   319  THR319     -0.1218
     87  CA        57.6160  -24.6920   18.3930 C.3   319  THR319      0.1862
     88  C         57.2730  -23.9220   19.6460 C.2   319  THR319      0.2287
     89  O         57.0620  -22.7700   19.6400 O.2   319  THR319     -0.2866
     90  CB        59.0450  -24.3810   17.8330 C.3   319  THR319      0.1770
     91  OG1       59.3390  -25.2410   16.7420 O.3   319  THR319     -0.2211
     92  CG2       60.0250  -24.6270   18.8570 C.3   319  THR319      0.0375
     93  N         51.3320  -26.8470   16.0700 N.3   351  MET351     -0.1245
     94  CA        52.1360  -28.0290   16.2990 C.3   351  MET351      0.1570
     95  C         52.5950  -28.1500   17.7470 C.2   351  MET351      0.2261
     96  O         52.7080  -27.1530   18.4800 O.2   351  MET351     -0.2867
     97  CB        53.3170  -28.0250   15.3290 C.3   351  MET351      0.0387
     98  CG        54.2360  -29.2410   15.4350 C.3   351  MET351      0.0595
     99  SD        55.3670  -29.2550   14.0400 S.3   351  MET351     -0.1393
    100  CE        56.9050  -28.8880   14.8600 C.3   351  MET351      0.0692
    101  N         55.6230  -30.3520   20.0140 N.3   353  SER353     -0.1217
    102  CA        56.8740  -31.1110   19.9300 C.3   353  SER353      0.1889
    103  C         57.1320  -31.8080   21.2390 C.2   353  SER353      0.2288
    104  O         56.5460  -32.8530   21.4970 O.2   353  SER353     -0.2866
    105  CB        58.0550  -30.2080   19.5840 C.3   353  SER353      0.2089
    106  OG        57.8290  -29.5480   18.3500 O.3   353  SER353     -0.2183
@<TRIPOS>BOND
     1    43    44    1
     2    46    45    2
     3    45    44    1
     4    61    62    1
     5    44    47    1
     6    47    48    1
     7    48    49    1
     8    62    63    1
     9    62    65    1
    10    64    63    2
    11    52    53    1
    12    49    50    1
    13    65    66    1
    14    26    27    1
    15    28    27    1
    16    28    29    2
    17    27    30    1
    18    57    56    1
    19    57    58    1
    20    60    58   ar
    21    53    54    1
    22    53    56    1
    23    54    55    2
    24    50    51    1
    25    58    59   ar
    26    66    67    1
    27    68    67    1
    28    32    31   ar
    29    30    31    1
    30    34    35    1
    31    31    33   ar
    32    69    70    1
    33    73    70    1
    34    37    36    2
    35    35    36    1
    36    35    38    1
    37    70    71    1
    38    39    38    1
    39    39    40    1
    40     2     3    1
    41     2     1    1
    42     2     5    1
    43     6     5    1
    44     6     7    1
    45    72    71    2
    46    20    21    1
    47     3     4    2
    48    14    13    1
    49    14    15    2
    50     8     7    1
    51     8     9    2
    52    40    42   ar
    53    40    41   ar
    54    82    83    1
    55    82    79    1
    56    12    13    1
    57    13    16    1
    58    25    24    1
    59    99   100    1
    60    99    98    1
    61    21    24    1
    62    21    22    1
    63    85    83   ar
    64    83    84   ar
    65    18    17    2
    66    11     9    1
    67    80    81    2
    68    80    79    1
    69     9    10    1
    70    22    23    2
    71    79    78    1
    72    97    98    1
    73    97    94    1
    74    16    17    1
    75    17    19   am
    76    78    76   am
    77    93    94    1
    78    94    95    1
    79    74    75    1
    80    91    90    1
    81    76    75    1
    82    76    77    2
    83    86    87    1
    84    95    96    2
    85    90    87    1
    86    90    92    1
    87   106   105    1
    88    87    88    1
    89   105   102    1
    90    89    88    2
    91   102   101    1
    92   102   103    1
    93   103   104    2
