@<TRIPOS>MOLECULE
tmp/4imaD00.pdb
 97 85 0 0 0
SMALL
GASTEIGER

@<TRIPOS>ATOM
      1  N         30.0530   36.8670  -14.5740 N.3    71  ARG71      -0.1245
      2  CA        30.7820   36.4200  -15.7630 C.3    71  ARG71       0.1563
      3  C         30.4920   37.3040  -16.9860 C.2    71  ARG71       0.2260
      4  O         29.3340   37.5460  -17.3330 O.2    71  ARG71      -0.2867
      5  CB        30.4640   34.9480  -16.0670 C.3    71  ARG71       0.0307
      6  CG        30.8820   34.4730  -17.4610 C.3    71  ARG71       0.0489
      7  CD        30.3100   33.0840  -17.7790 C.3    71  ARG71       0.2205
      8  NE        30.6880   32.6360  -19.1150 N.pl3  71  ARG71      -0.0865
      9  CZ        29.8400   32.4860  -20.1290 C.cat  71  ARG71       0.5346
     10  NH1       28.5450   32.7110  -19.9690 N.pl3  71  ARG71       0.1354
     11  NH2       30.2880   32.0860  -21.3080 N.pl3  71  ARG71       0.1354
     12  N         30.7920   37.4800  -20.8800 N.3    73  ASN73      -0.1240
     13  CA        30.9820   36.6000  -22.0170 C.3    73  ASN73       0.1653
     14  C         31.5190   37.3860  -23.1930 C.2    73  ASN73       0.2266
     15  O         30.7740   38.0690  -23.8850 O.2    73  ASN73      -0.2867
     16  CB        29.6640   35.9150  -22.3810 C.3    73  ASN73       0.1155
     17  CG        29.8190   34.9220  -23.5150 C.2    73  ASN73       0.2627
     18  OD1       30.9230   34.7080  -24.0190 O.2    73  ASN73      -0.2716
     19  ND2       28.7080   34.3140  -23.9270 N.am   73  ASN73      -0.0877
     20  N         32.3130   36.4750  -25.9410 N.3    75  SER75      -0.1217
     21  CA        31.8720   35.9600  -27.2330 C.3    75  SER75       0.1889
     22  C         30.9820   36.9770  -27.9340 C.2    75  SER75       0.2288
     23  O         30.8500   36.9690  -29.1550 O.2    75  SER75      -0.2866
     24  CB        31.1170   34.6360  -27.0750 C.3    75  SER75       0.2089
     25  OG        32.0050   33.5940  -26.7000 O.3    75  SER75      -0.2183
     26  N         35.3380   35.7810  -19.6940 N.3   109  ASP109     -0.1239
     27  CA        35.2620   34.4990  -20.3770 C.3   109  ASP109      0.1674
     28  C         35.6520   34.7060  -21.8390 C.2   109  ASP109      0.2266
     29  O         34.9390   35.3620  -22.5730 O.2   109  ASP109     -0.2867
     30  CB        33.8360   33.9670  -20.2530 C.3   109  ASP109      0.1410
     31  CG        33.7140   32.5070  -20.6390 C.2   109  ASP109      0.3668
     32  OD1       34.5200   32.0380  -21.4720 O.co2 109  ASP109     -0.2456
     33  OD2       32.7980   31.8370  -20.1090 O.co2 109  ASP109     -0.2456
     34  N         39.0200   26.2260  -19.4580 N.3   200  LYS200     -0.1245
     35  CA        37.8050   25.6000  -19.9560 C.3   200  LYS200      0.1561
     36  C         38.1450   24.3540  -20.7630 C.2   200  LYS200      0.2260
     37  O         38.8530   24.4220  -21.7660 O.2   200  LYS200     -0.2867
     38  CB        36.9950   26.5850  -20.8110 C.3   200  LYS200      0.0271
     39  CG        36.4020   27.7620  -20.0220 C.3   200  LYS200      0.0035
     40  CD        35.9790   28.9110  -20.9500 C.3   200  LYS200      0.0206
     41  CE        34.7670   28.5320  -21.7880 C.3   200  LYS200      0.1093
     42  NZ        34.2970   29.6350  -22.6950 N.3   200  LYS200     -0.1314
     43  N         36.7270   21.7780  -23.1740 N.3   202  GLU202     -0.1245
     44  CA        35.5870   21.8130  -24.0700 C.3   202  GLU202      0.1567
     45  C         35.6640   20.8450  -25.2380 C.2   202  GLU202      0.2260
     46  O         34.7330   20.7760  -26.0290 O.2   202  GLU202     -0.2867
     47  CB        35.4040   23.2080  -24.6700 C.3   202  GLU202      0.0388
     48  CG        35.6260   24.3550  -23.7340 C.3   202  GLU202      0.1160
     49  CD        35.0250   25.6130  -24.2910 C.2   202  GLU202      0.3649
     50  OE1       35.6990   26.6620  -24.2610 O.co2 202  GLU202     -0.2457
     51  OE2       33.8780   25.5420  -24.7790 O.co2 202  GLU202     -0.2457
     52  N         37.0020   24.6980  -15.6610 N.3   221  MET221     -0.1245
     53  CA        35.5690   24.7350  -15.9130 C.3   221  MET221      0.1570
     54  C         35.1710   23.5510  -16.7890 C.2   221  MET221      0.2261
     55  O         35.7880   23.3040  -17.8270 O.2   221  MET221     -0.2867
     56  CB        35.1470   26.0260  -16.6150 C.3   221  MET221      0.0387
     57  CG        33.6620   26.0040  -16.9990 C.3   221  MET221      0.0595
     58  SD        33.1350   27.3470  -18.0930 S.3   221  MET221     -0.1393
     59  CE        33.5460   28.7580  -17.0790 C.3   221  MET221      0.0692
     60  N         33.0220   22.8090  -19.3930 N.3   223  ALA223     -0.1245
     61  CA        32.2160   23.6370  -20.2870 C.3   223  ALA223      0.1562
     62  C         31.2840   22.7440  -21.0780 C.2   223  ALA223      0.2260
     63  O         31.5680   22.4080  -22.2290 O.2   223  ALA223     -0.2867
     64  CB        33.1030   24.4460  -21.2220 C.3   223  ALA223      0.0290
     65  N         28.6020   22.8310  -22.8250 N.3   225  GLY225     -0.1210
     66  CA        28.0210   23.0860  -24.1260 C.3   225  GLY225      0.1956
     67  C         28.7080   22.6620  -25.3730 C.2   225  GLY225      0.2611
     68  O         28.1770   21.8670  -26.1500 O.2   225  GLY225     -0.2717
     69  N         29.9380   23.1390  -25.5060 N.am  226  ASP226     -0.1973
     70  CA        30.8170   22.6960  -26.5690 C.3   226  ASP226      0.1709
     71  C         31.2290   21.2660  -26.3340 C.2   226  ASP226      0.2293
     72  O         31.3040   20.4860  -27.2730 O.2   226  ASP226     -0.2864
     73  CB        32.0400   23.6060  -26.6980 C.3   226  ASP226      0.1436
     74  CG        31.7410   24.8600  -27.5080 C.2   226  ASP226      0.3671
     75  OD1       31.2660   24.7440  -28.6560 O.co2 226  ASP226     -0.2456
     76  OD2       31.9730   25.9700  -26.9970 O.co2 226  ASP226     -0.2456
     77  N         26.6880   25.2010  -17.7640 N.3   258  THR258     -0.1218
     78  CA        25.9550   25.3240  -18.9940 C.3   258  THR258      0.1862
     79  C         24.4510   25.1420  -19.0180 C.2   258  THR258      0.2287
     80  O         23.7540   26.0950  -19.0660 O.2   258  THR258     -0.2866
     81  CB        26.6890   24.8610  -20.2310 C.3   258  THR258      0.1770
     82  OG1       27.8360   25.6840  -20.3740 O.3   258  THR258     -0.2211
     83  CG2       25.8550   25.0560  -21.4180 C.3   258  THR258      0.0375
     84  N         27.2050   27.4300  -12.4490 N.3   290  MET290     -0.1245
     85  CA        27.0860   28.6150  -13.2840 C.3   290  MET290      0.1570
     86  C         25.7340   28.7510  -13.9590 C.2   290  MET290      0.2261
     87  O         25.0490   27.7570  -14.2500 O.2   290  MET290     -0.2867
     88  CB        28.2060   28.6250  -14.3210 C.3   290  MET290      0.0387
     89  CG        28.2450   29.8600  -15.2160 C.3   290  MET290      0.0595
     90  SD        29.8440   29.8740  -16.0420 S.3   290  MET290     -0.1393
     91  CE        29.3140   29.6850  -17.7340 C.3   290  MET290      0.0692
     92  N         24.0440   30.8840  -17.3470 N.3   292  SER292     -0.1217
     93  CA        24.3530   31.6060  -18.5690 C.3   292  SER292      0.1889
     94  C         23.1200   32.3590  -19.0320 C.2   292  SER292      0.2288
     95  O         22.7980   33.4260  -18.5060 O.2   292  SER292     -0.2866
     96  CB        24.7980   30.6530  -19.6730 C.3   292  SER292      0.2089
     97  OG        26.0720   30.1200  -19.3920 O.3   292  SER292     -0.2183
@<TRIPOS>BOND
     1    23    22    2
     2    75    74   ar
     3    22    21    1
     4    74    76   ar
     5    74    73    1
     6    72    71    2
     7    21    24    1
     8    21    20    1
     9    24    25    1
    10    73    70    1
    11    70    71    1
    12    70    69    1
    13    68    67    2
    14    46    45    2
    15    69    67   am
    16    67    66    1
    17    45    44    1
    18    51    49   ar
    19    47    44    1
    20    47    48    1
    21    49    50   ar
    22    49    48    1
    23    66    65    1
    24    44    43    1
    25    18    17    2
    26    19    17   am
    27    15    14    2
    28    17    16    1
    29    14    13    1
    30    42    41    1
    31    29    28    2
    32    16    13    1
    33    63    62    2
    34    13    12    1
    35    28    27    1
    36    41    40    1
    37    37    36    2
    38    32    31   ar
    39    83    81    1
    40    11     9    1
    41    64    61    1
    42    62    61    1
    43    40    39    1
    44    38    39    1
    45    38    35    1
    46    36    35    1
    47    31    30    1
    48    31    33   ar
    49    27    30    1
    50    27    26    1
    51    82    81    1
    52    61    60    1
    53    81    78    1
    54     9    10    1
    55     9     8    2
    56    35    34    1
    57    96    97    1
    58    96    93    1
    59     8     7    1
    60    80    79    2
    61    94    93    1
    62    94    95    2
    63    79    78    1
    64    78    77    1
    65    93    92    1
    66    58    59    1
    67    58    57    1
    68    55    54    2
    69     7     6    1
    70    91    90    1
    71     6     5    1
    72     4     3    2
    73    57    56    1
    74     3     2    1
    75    54    53    1
    76    56    53    1
    77     5     2    1
    78    90    89    1
    79    53    52    1
    80     2     1    1
    81    89    88    1
    82    88    85    1
    83    87    86    2
    84    86    85    1
    85    85    84    1
