@<TRIPOS>MOLECULE
tmp/4imgA00.pdb
 177 170 0 0 0
SMALL
GASTEIGER

@<TRIPOS>ATOM
      1  N         21.9950   22.5140   20.4410 N.3    10  ALA10      -0.1245
      2  CA        21.4720   23.8480   20.6720 C.3    10  ALA10       0.1562
      3  C         20.6430   24.1770   19.4000 C.2    10  ALA10       0.2260
      4  O         21.1720   24.2650   18.2710 O.2    10  ALA10      -0.2867
      5  CB        22.6020   24.8580   20.9020 C.3    10  ALA10       0.0290
      6  N         18.4790   21.9040   23.4360 N.3    43  TYR43      -0.1241
      7  CA        18.5650   23.1140   24.2260 C.3    43  TYR43       0.1605
      8  C         17.9550   24.2400   23.3800 C.2    43  TYR43       0.2264
      9  O         18.4800   24.5820   22.2900 O.2    43  TYR43      -0.2867
     10  CB        20.0460   23.3220   24.5910 C.3    43  TYR43       0.0534
     11  CG        20.3640   24.5240   25.5400 C.ar   43  TYR43      -0.0201
     12  CD1       20.6990   25.7750   25.0350 C.ar   43  TYR43      -0.0009
     13  CD2       20.3640   24.3460   26.9140 C.ar   43  TYR43      -0.0009
     14  CE1       21.0370   26.8760   25.8930 C.ar   43  TYR43       0.0417
     15  CE2       20.6680   25.3790   27.7650 C.ar   43  TYR43       0.0417
     16  CZ        20.9700   26.6540   27.2560 C.ar   43  TYR43       0.1957
     17  OH        21.3050   27.6050   28.1730 O.3    43  TYR43      -0.2866
     18  N         18.7000   29.1480   23.0600 N.3    46  GLY46      -0.1210
     19  CA        20.0620   29.6000   23.5000 C.3    46  GLY46       0.1956
     20  C         20.6290   30.5320   22.4380 C.2    46  GLY46       0.2613
     21  O         19.9230   30.9040   21.5040 O.2    46  GLY46      -0.2717
     22  N         21.9160   30.8400   22.5390 N.am   47  SER47      -0.1938
     23  CA        22.5930   31.7380   21.5950 C.3    47  SER47       0.2055
     24  C         22.4450   31.2260   20.1330 C.2    47  SER47       0.2644
     25  O         22.1600   31.9740   19.2150 O.2    47  SER47      -0.2714
     26  CB        24.0680   31.8130   21.9790 C.3    47  SER47       0.2130
     27  OG        24.2230   32.2760   23.3080 O.3    47  SER47      -0.2179
     28  N         22.5580   29.8930   19.9690 N.am   48  THR48      -0.1936
     29  CA        22.4370   29.2400   18.6110 C.3    48  THR48       0.2028
     30  C         21.0620   29.4580   17.9560 C.2    48  THR48       0.2642
     31  O         20.9140   29.5410   16.7160 O.2    48  THR48      -0.2714
     32  CB        22.7970   27.7350   18.7120 C.3    48  THR48       0.1808
     33  OG1       24.1010   27.6350   19.2550 O.3    48  THR48      -0.2208
     34  CG2       22.8770   27.0990   17.3360 C.3    48  THR48       0.0379
     35  N         20.0390   29.5830   18.7820 N.am   49  GLY49      -0.1954
     36  CA        18.6840   29.7940   18.2600 C.3    49  GLY49       0.1869
     37  C         18.4270   31.2340   17.8600 C.2    49  GLY49       0.2309
     38  O         17.2580   31.5980   17.5110 O.2    49  GLY49      -0.2863
     39  N         23.5490   29.1480   32.6950 N.3   136  TYR136     -0.1241
     40  CA        24.2080   29.2290   31.3560 C.3   136  TYR136      0.1605
     41  C         25.3640   30.2370   31.3990 C.2   136  TYR136      0.2264
     42  O         25.1500   31.4640   31.4500 O.2   136  TYR136     -0.2867
     43  CB        23.1610   29.4980   30.2600 C.3   136  TYR136      0.0534
     44  CG        23.6360   29.6680   28.8270 C.ar  136  TYR136     -0.0201
     45  CD1       22.9490   30.5340   27.9800 C.ar  136  TYR136     -0.0009
     46  CD2       24.7070   28.9370   28.2900 C.ar  136  TYR136     -0.0009
     47  CE1       23.3270   30.6660   26.6420 C.ar  136  TYR136      0.0417
     48  CE2       25.0980   29.0650   26.9610 C.ar  136  TYR136      0.0417
     49  CZ        24.4360   29.9950   26.1630 C.ar  136  TYR136      0.1957
     50  OH        24.7880   30.1810   24.8370 O.3   136  TYR136     -0.2866
     51  N         28.5900   31.7770   29.5930 N.3   138  ILE138     -0.1245
     52  CA        29.2740   31.9440   28.3080 C.3   138  ILE138      0.1561
     53  C         30.0640   33.2530   28.3930 C.2   138  ILE138      0.2260
     54  O         29.6330   34.2610   27.8070 O.2   138  ILE138     -0.2867
     55  CB        28.2250   31.8510   27.1310 C.3   138  ILE138      0.0252
     56  CG1       28.8890   32.0120   25.7520 C.3   138  ILE138      0.0019
     57  CG2       26.9980   32.7990   27.3660 C.3   138  ILE138      0.0019
     58  CD1       27.9260   31.5100   24.6460 C.3   138  ILE138      0.0001
     59  N         32.7820   34.5080   27.1450 N.3   140  PHE140     -0.1227
     60  CA        33.3400   35.1870   25.9470 C.3   140  PHE140      0.1736
     61  C         32.2950   36.1080   25.2230 C.2   140  PHE140      0.2595
     62  O         32.6590   37.1200   24.5790 O.2   140  PHE140     -0.2718
     63  CB        34.0560   34.1510   25.0710 C.3   140  PHE140      0.0547
     64  CG        33.2460   33.6330   23.9300 C.ar  140  PHE140     -0.0202
     65  CD1       33.4010   34.1800   22.6450 C.ar  140  PHE140     -0.0042
     66  CD2       32.3380   32.5790   24.1240 C.ar  140  PHE140     -0.0042
     67  CE1       32.6330   33.6930   21.5770 C.ar  140  PHE140     -0.0003
     68  CE2       31.5920   32.0600   23.0630 C.ar  140  PHE140     -0.0003
     69  CZ        31.7430   32.6180   21.7730 C.ar  140  PHE140     -0.0000
     70  N         31.0110   35.8280   25.4400 N.am  141  LEU141     -0.1980
     71  CA        29.9100   36.7130   25.0360 C.3   141  LEU141      0.1596
     72  C         29.4450   37.6950   26.1340 C.2   141  LEU141      0.2287
     73  O         29.1680   38.8990   25.8180 O.2   141  LEU141     -0.2864
     74  CB        28.7080   35.9570   24.4170 C.3   141  LEU141      0.0297
     75  CG        28.9530   35.1440   23.1190 C.3   141  LEU141      0.0022
     76  CD1       27.6070   34.7550   22.5160 C.3   141  LEU141      0.0001
     77  CD2       29.7860   35.9820   22.0950 C.3   141  LEU141      0.0001
     78  N         29.8860   27.0330   28.6730 N.3   166  THR166     -0.1218
     79  CA        30.4350   27.4830   27.3720 C.3   166  THR166      0.1862
     80  C         31.6250   28.3910   27.6990 C.2   166  THR166      0.2287
     81  O         31.6530   29.6090   27.4310 O.2   166  THR166     -0.2866
     82  CB        29.3840   28.1690   26.4380 C.3   166  THR166      0.1770
     83  OG1       28.2230   27.3150   26.3030 O.3   166  THR166     -0.2211
     84  CG2       29.9380   28.3630   25.0030 C.3   166  THR166      0.0375
     85  N         30.2040   23.2660   26.5890 N.3   188  GLY188     -0.1210
     86  CA        29.6070   24.0990   25.5450 C.3   188  GLY188      0.1956
     87  C         30.4910   24.3100   24.3300 C.2   188  GLY188      0.2612
     88  O         30.0520   24.8570   23.3130 O.2   188  GLY188     -0.2717
     89  N         31.7670   23.9960   24.4120 N.am  189  PHE189     -0.1962
     90  CA        32.5710   24.1450   23.1660 C.3   189  PHE189      0.1771
     91  C         32.8410   22.8240   22.4840 C.2   189  PHE189      0.2620
     92  O         33.6740   22.0300   22.9300 O.2   189  PHE189     -0.2715
     93  CB        33.8950   24.8510   23.3800 C.3   189  PHE189      0.0574
     94  CG        33.7420   26.3280   23.5550 C.ar  189  PHE189     -0.0200
     95  CD1       34.1870   26.9560   24.7340 C.ar  189  PHE189     -0.0042
     96  CD2       33.1230   27.0990   22.5460 C.ar  189  PHE189     -0.0042
     97  CE1       34.0270   28.3260   24.8900 C.ar  189  PHE189     -0.0003
     98  CE2       32.9620   28.4700   22.7150 C.ar  189  PHE189     -0.0003
     99  CZ        33.4280   29.0720   23.8900 C.ar  189  PHE189     -0.0000
    100  N         32.2010   22.6960   21.3220 N.am  190  ASP190     -0.1957
    101  CA        32.1910   21.4480   20.5160 C.3   190  ASP190      0.1840
    102  C         33.6080   21.0590   20.1030 C.2   190  ASP190      0.2621
    103  O         33.9240   19.8400   20.0190 O.2   190  ASP190     -0.2715
    104  CB        31.3390   21.6500   19.2460 C.3   190  ASP190      0.1450
    105  CG        29.8870   22.2120   19.5210 C.2   190  ASP190      0.3671
    106  OD1       29.4980   22.6550   20.6090 O.co2 190  ASP190     -0.2456
    107  OD2       29.1050   22.2710   18.5720 O.co2 190  ASP190     -0.2456
    108  N         34.4470   22.0620   19.8070 N.am  191  GLU191     -0.1977
    109  CA        35.8360   21.8730   19.3610 C.3   191  GLU191      0.1602
    110  C         36.7930   21.5080   20.4780 C.2   191  GLU191      0.2287
    111  O         38.0090   21.2950   20.2540 O.2   191  GLU191     -0.2864
    112  CB        36.3400   23.1420   18.6150 C.3   191  GLU191      0.0415
    113  CG        36.3630   24.4080   19.4330 C.3   191  GLU191      0.1163
    114  CD        35.0400   25.1720   19.3080 C.2   191  GLU191      0.3649
    115  OE1       33.9640   24.5850   19.4010 O.co2 191  GLU191     -0.2457
    116  OE2       35.0430   26.3770   19.0380 O.co2 191  GLU191     -0.2457
    117  N         26.2280   20.6230   25.1700 N.3   205  ILE205     -0.1231
    118  CA        25.2650   21.3770   24.4220 C.3   205  ILE205      0.1692
    119  C         26.0500   22.0720   23.3100 C.2   205  ILE205      0.2593
    120  O         27.0230   22.7780   23.5790 O.2   205  ILE205     -0.2718
    121  CB        24.6120   22.4330   25.3300 C.3   205  ILE205      0.0266
    122  CG1       23.9330   21.7030   26.5330 C.3   205  ILE205      0.0019
    123  CG2       23.7190   23.4310   24.5230 C.3   205  ILE205      0.0020
    124  CD1       23.4720   22.6070   27.6790 C.3   205  ILE205      0.0001
    125  N         25.6740   21.8440   22.0690 N.am  206  GLY206     -0.1942
    126  CA        26.4100   22.5520   20.9930 C.3   206  GLY206      0.2014
    127  C         25.6720   22.8330   19.7120 C.2   206  GLY206      0.2640
    128  O         24.7580   22.0670   19.3100 O.2   206  GLY206     -0.2714
    129  N         26.0710   23.9330   19.0510 N.am  207  SER207     -0.1935
    130  CA        25.4910   24.2920   17.7550 C.3   207  SER207      0.2055
    131  C         25.7880   23.1880   16.6940 C.2   207  SER207      0.2643
    132  O         24.9530   22.9210   15.8370 O.2   207  SER207     -0.2714
    133  CB        26.0190   25.6480   17.2630 C.3   207  SER207      0.2130
    134  OG        27.4400   25.5650   17.1400 O.3   207  SER207     -0.2179
    135  N         26.9780   22.5960   16.7080 N.am  208  THR208     -0.1950
    136  CA        27.3710   21.8350   15.5130 C.3   208  THR208      0.1897
    137  C         26.7640   20.4280   15.5230 C.2   208  THR208      0.2313
    138  O         26.7970   19.7510   14.4930 O.2   208  THR208     -0.2863
    139  CB        28.8910   21.7480   15.2740 C.3   208  THR208      0.1794
    140  OG1       29.5080   21.0260   16.3350 O.3   208  THR208     -0.2208
    141  CG2       29.5480   23.1230   15.1500 C.3   208  THR208      0.0378
    142  N         34.6120   21.9450   11.9210 N.3   242  ILE242     -0.1245
    143  CA        34.2480   23.0900   12.6980 C.3   242  ILE242      0.1561
    144  C         35.0580   24.3310   12.2760 C.2   242  ILE242      0.2260
    145  O         34.4740   25.4350   12.2110 O.2   242  ILE242     -0.2867
    146  CB        34.3640   22.8670   14.2070 C.3   242  ILE242      0.0252
    147  CG1       33.2680   21.8920   14.6440 C.3   242  ILE242      0.0019
    148  CG2       34.1350   24.2070   14.9420 C.3   242  ILE242      0.0019
    149  CD1       33.3300   21.6410   16.1390 C.3   242  ILE242      0.0001
    150  N         33.3670   27.7190   10.9700 N.3   246  LEU246     -0.1245
    151  CA        33.5430   29.0310   11.6380 C.3   246  LEU246      0.1561
    152  C         34.0650   30.0390   10.6190 C.2   246  LEU246      0.2260
    153  O         33.6890   31.2200   10.6440 O.2   246  LEU246     -0.2867
    154  CB        34.5490   28.9630   12.7740 C.3   246  LEU246      0.0270
    155  CG        34.0410   28.1910   14.0220 C.3   246  LEU246      0.0019
    156  CD1       35.1930   27.8190   14.9470 C.3   246  LEU246      0.0001
    157  CD2       32.9730   28.9530   14.7990 C.3   246  LEU246      0.0001
    158  N         29.3580   30.6760   11.0780 N.3   250  LEU250     -0.1231
    159  CA        28.8590   29.5220   11.8500 C.3   250  LEU250      0.1693
    160  C         27.3670   29.2040   11.6900 C.2   250  LEU250      0.2592
    161  O         27.0240   28.0640   11.2980 O.2   250  LEU250     -0.2718
    162  CB        29.1670   29.7190   13.3470 C.3   250  LEU250      0.0284
    163  CG        28.5590   28.8150   14.3930 C.3   250  LEU250      0.0019
    164  CD1       29.3080   27.4860   14.3260 C.3   250  LEU250      0.0001
    165  CD2       28.7980   29.4510   15.7420 C.3   250  LEU250      0.0001
    166  N         26.4670   30.1490   11.9970 N.am  251  TYR251     -0.1976
    167  CA        25.0290   29.7630   11.9810 C.3   251  TYR251      0.1639
    168  C         24.5450   29.5290   10.5440 C.2   251  TYR251      0.2290
    169  O         23.8650   28.5180   10.2840 O.2   251  TYR251     -0.2864
    170  CB        24.1430   30.7760   12.7130 C.3   251  TYR251      0.0560
    171  CG        24.4550   30.9110   14.2070 C.ar  251  TYR251     -0.0198
    172  CD1       24.9330   29.8190   14.9880 C.ar  251  TYR251     -0.0009
    173  CD2       24.2490   32.1050   14.8260 C.ar  251  TYR251     -0.0009
    174  CE1       25.2410   29.9800   16.3700 C.ar  251  TYR251      0.0417
    175  CE2       24.5520   32.2770   16.1740 C.ar  251  TYR251      0.0417
    176  CZ        25.0240   31.2470   16.9320 C.ar  251  TYR251      0.1957
    177  OH        25.3060   31.5860   18.2680 O.3   251  TYR251     -0.2866
@<TRIPOS>BOND
     1   169   168    2
     2   168   167    1
     3   152   153    2
     4   152   151    1
     5   150   151    1
     6   158   159    1
     7   161   160    2
     8   151   154    1
     9   160   159    1
    10   160   166   am
    11   159   162    1
    12   142   143    1
    13   167   166    1
    14   167   170    1
    15   145   144    2
    16   144   143    1
    17   143   146    1
    18   170   171    1
    19   154   155    1
    20   162   163    1
    21   155   157    1
    22   155   156    1
    23   171   173   ar
    24   171   172   ar
    25   146   147    1
    26   146   148    1
    27   164   163    1
    28   163   165    1
    29   138   137    2
    30   147   149    1
    31   173   175   ar
    32   172   174   ar
    33   141   139    1
    34   139   136    1
    35   139   140    1
    36   136   137    1
    37   136   135    1
    38   132   131    2
    39   175   176   ar
    40   174   176   ar
    41   131   135   am
    42   131   130    1
    43    31    30    2
    44   176   177    1
    45   134   133    1
    46   133   130    1
    47    34    32    1
    48    38    37    2
    49   130   129    1
    50    37    36    1
    51    30    29    1
    52    30    35   am
    53    36    35    1
    54     4     3    2
    55   107   105   ar
    56    29    32    1
    57    29    28    1
    58   112   109    1
    59   112   113    1
    60    32    33    1
    61   116   114   ar
    62   129   127   am
    63    25    24    2
    64   104   105    1
    65   104   101    1
    66   114   115   ar
    67   114   113    1
    68   128   127    2
    69   109   108    1
    70   109   110    1
    71     3     2    1
    72   105   106   ar
    73   127   126    1
    74   108   102   am
    75    28    24   am
    76   103   102    2
    77   102   101    1
    78    24    23    1
    79   111   110    2
    80     1     2    1
    81   101   100    1
    82     2     5    1
    83   126   125    1
    84   100    91   am
    85    21    20    2
    86    67    69   ar
    87    67    65   ar
    88    23    26    1
    89    23    22    1
    90    69    68   ar
    91    26    27    1
    92   125   119   am
    93    77    75    1
    94     9     8    2
    95    20    22   am
    96    20    19    1
    97    91    92    2
    98    91    90    1
    99    76    75    1
   100    96    98   ar
   101    96    94   ar
   102    65    64   ar
   103    98    99   ar
   104    18    19    1
   105    68    66   ar
   106    75    74    1
   107    90    93    1
   108    90    89    1
   109   119   120    2
   110   119   118    1
   111    88    87    2
   112    93    94    1
   113     8     7    1
   114     6     7    1
   115    94    95   ar
   116    99    97   ar
   117    64    66   ar
   118    64    63    1
   119     7    10    1
   120    87    89   am
   121    87    86    1
   122    74    71    1
   123   118   117    1
   124   118   121    1
   125   123   121    1
   126    62    61    2
   127    10    11    1
   128    58    56    1
   129    95    97   ar
   130    50    49    1
   131    84    82    1
   132    12    11   ar
   133    12    14   ar
   134    71    70    1
   135    71    72    1
   136    63    60    1
   137    61    70   am
   138    61    60    1
   139   121   122    1
   140    11    13   ar
   141    86    85    1
   142    56    55    1
   143    73    72    2
   144    14    16   ar
   145    60    59    1
   146    49    47   ar
   147    49    48   ar
   148    83    82    1
   149    82    79    1
   150   122   124    1
   151    47    45   ar
   152    13    15   ar
   153    48    46   ar
   154    55    57    1
   155    55    52    1
   156    16    15   ar
   157    16    17    1
   158    79    80    1
   159    79    78    1
   160    81    80    2
   161    54    53    2
   162    45    44   ar
   163    46    44   ar
   164    52    53    1
   165    52    51    1
   166    44    43    1
   167    43    40    1
   168    40    41    1
   169    40    39    1
   170    41    42    2
