@<TRIPOS>MOLECULE
tmp/4imiD00.pdb
 230 222 0 0 0
SMALL
GASTEIGER

@<TRIPOS>ATOM
      1  N        -34.8070   12.6350   97.7230 N.3    10  ASP10      -0.1225
      2  CA       -33.9900   11.8030   98.6190 C.3    10  ASP10       0.1805
      3  C        -34.5260   10.3420   98.5630 C.2    10  ASP10       0.2598
      4  O        -35.0400    9.9430   97.5230 O.2    10  ASP10      -0.2718
      5  CB       -33.9860   12.3950  100.0600 C.3    10  ASP10       0.1424
      6  CG       -35.3470   12.4810  100.7490 C.2    10  ASP10       0.3668
      7  OD1      -36.2800   11.7550  100.3290 O.co2  10  ASP10      -0.2456
      8  OD2      -35.4660   13.2360  101.7350 O.co2  10  ASP10      -0.2456
      9  N        -34.4640    9.5790   99.6730 N.am   11  SER11      -0.1938
     10  CA       -34.9440    8.1990   99.7290 C.3    11  SER11       0.2055
     11  C        -36.3760    8.0840  100.2270 C.2    11  SER11       0.2644
     12  O        -37.2240    7.5750   99.4970 O.2    11  SER11      -0.2714
     13  CB       -34.0520    7.3540  100.6300 C.3    11  SER11       0.2130
     14  OG       -32.8610    6.9910   99.9600 O.3    11  SER11      -0.2179
     15  N        -36.6390    8.5220  101.4800 N.am   12  SER12      -0.1935
     16  CA       -37.9290    8.3750  102.1730 C.3    12  SER12       0.2055
     17  C        -38.8620    9.6230  102.1620 C.2    12  SER12       0.2643
     18  O        -40.0280    9.4920  102.5720 O.2    12  SER12      -0.2714
     19  CB       -37.6760    7.9780  103.6250 C.3    12  SER12       0.2130
     20  OG       -37.0670    6.7010  103.7090 O.3    12  SER12      -0.2179
     21  N        -38.3790   10.8010  101.6870 N.am   13  ASN13      -0.1957
     22  CA       -39.0980   12.0990  101.7000 C.3    13  ASN13       0.1819
     23  C        -39.4030   12.4510  103.1660 C.2    13  ASN13       0.2621
     24  O        -40.4980   12.9060  103.5160 O.2    13  ASN13      -0.2715
     25  CB       -40.3720   12.1000  100.8170 C.3    13  ASN13       0.1195
     26  CG       -40.8570   13.4870  100.4480 C.2    13  ASN13       0.2630
     27  OD1      -40.1510   14.4920  100.5990 O.2    13  ASN13      -0.2716
     28  ND2      -42.0620   13.5740   99.9180 N.am   13  ASN13      -0.0877
     29  N        -38.4110   12.1880  104.0250 N.am   14  MET14      -0.1963
     30  CA       -38.5300   12.3340  105.4540 C.3    14  MET14       0.1736
     31  C        -37.5800   13.3930  106.0020 C.2    14  MET14       0.2616
     32  O        -38.0570   14.3920  106.5340 O.2    14  MET14      -0.2715
     33  CB       -38.2820   10.9640  106.1070 C.3    14  MET14       0.0427
     34  CG       -38.9140   10.7940  107.4840 C.3    14  MET14       0.0599
     35  SD       -40.6070   11.4320  107.7360 S.3    14  MET14      -0.1393
     36  CE       -41.5570   10.3250  106.7930 C.3    14  MET14       0.0692
     37  N        -36.2560   13.2000  105.8430 N.am   15  ASN15      -0.1958
     38  CA       -35.2300   14.0780  106.3950 C.3    15  ASN15       0.1819
     39  C        -34.6730   15.1810  105.4290 C.2    15  ASN15       0.2621
     40  O        -35.0310   16.3630  105.5640 O.2    15  ASN15      -0.2715
     41  CB       -34.0670   13.2100  106.9260 C.3    15  ASN15       0.1195
     42  CG       -32.9610   13.9450  107.6570 C.2    15  ASN15       0.2630
     43  OD1      -33.1510   15.0350  108.1980 O.2    15  ASN15      -0.2716
     44  ND2      -31.7740   13.3520  107.7090 N.am   15  ASN15      -0.0877
     45  N        -33.7540   14.8000  104.5220 N.am   16  ARG16      -0.1977
     46  CA       -32.9830   15.7160  103.6740 C.3    16  ARG16       0.1597
     47  C        -33.8100   16.5490  102.7020 C.2    16  ARG16       0.2287
     48  O        -33.5610   17.7570  102.6140 O.2    16  ARG16      -0.2864
     49  CB       -31.8700   14.9730  102.9230 C.3    16  ARG16       0.0334
     50  CG       -30.8420   14.3780  103.8840 C.3    16  ARG16       0.0492
     51  CD       -29.9940   13.3070  103.2450 C.3    16  ARG16       0.2205
     52  NE       -30.7890   12.1540  102.8100 N.pl3  16  ARG16      -0.0865
     53  CZ       -30.3000   11.1130  102.1380 C.cat  16  ARG16       0.5346
     54  NH1      -29.0120   11.0650  101.8160 N.pl3  16  ARG16       0.1354
     55  NH2      -31.0970   10.1240  101.7670 N.pl3  16  ARG16       0.1354
     56  N        -37.1260    5.6700   97.3190 N.3    37  GLY37      -0.1210
     57  CA       -37.2530    4.3550   97.9450 C.3    37  GLY37       0.1956
     58  C        -38.5810    3.6920   97.6090 C.2    37  GLY37       0.2612
     59  O        -39.5060    4.3640   97.1450 O.2    37  GLY37      -0.2717
     60  N        -38.6780    2.3620   97.7890 N.am   38  GLU38      -0.1965
     61  CA       -39.9130    1.6050   97.5060 C.3    38  GLU38       0.1733
     62  C        -41.0000    1.9790   98.5110 C.2    38  GLU38       0.2616
     63  O        -42.1650    2.1410   98.1390 O.2    38  GLU38      -0.2715
     64  CB       -39.6430    0.0930   97.5330 C.3    38  GLU38       0.0429
     65  CG       -39.4750   -0.5200   96.1530 C.3    38  GLU38       0.1163
     66  CD       -39.4670   -2.0360   96.1420 C.2    38  GLU38       0.3649
     67  OE1      -38.4110   -2.6190   95.8010 O.co2  38  GLU38      -0.2457
     68  OE2      -40.5090   -2.6430   96.4830 O.co2  38  GLU38      -0.2457
     69  N        -40.5900    2.1570   99.7810 N.am   39  ARG39      -0.1977
     70  CA       -41.4500    2.5490  100.8940 C.3    39  ARG39       0.1597
     71  C        -40.7430    3.5940  101.7930 C.2    39  ARG39       0.2287
     72  O        -39.5230    3.7960  101.6870 O.2    39  ARG39      -0.2864
     73  CB       -41.8610    1.3030  101.7060 C.3    39  ARG39       0.0334
     74  CG       -43.0570    0.5630  101.1020 C.3    39  ARG39       0.0492
     75  CD       -42.9450   -0.9460  101.2470 C.3    39  ARG39       0.2205
     76  NE       -44.0880   -1.6300  100.6340 N.pl3  39  ARG39      -0.0865
     77  CZ       -44.0900   -2.1710   99.4170 C.cat  39  ARG39       0.5346
     78  NH1      -42.9960   -2.1360   98.6640 N.pl3  39  ARG39       0.1354
     79  NH2      -45.1820   -2.7620   98.9490 N.pl3  39  ARG39       0.1354
     80  N        -39.0490    4.7690  105.0280 N.3    41  LYS41      -0.1231
     81  CA       -38.2930    4.0830  106.0690 C.3    41  LYS41       0.1693
     82  C        -37.6590    5.0660  107.0680 C.2    41  LYS41       0.2592
     83  O        -36.7530    5.8260  106.7100 O.2    41  LYS41      -0.2718
     84  CB       -37.2140    3.2030  105.4290 C.3    41  LYS41       0.0285
     85  CG       -36.9660    1.8960  106.1590 C.3    41  LYS41       0.0035
     86  CD       -35.6770    1.2540  105.6910 C.3    41  LYS41       0.0206
     87  CE       -35.7610   -0.2460  105.5640 C.3    41  LYS41       0.1093
     88  NZ       -34.5370   -0.8130  104.9430 N.3    41  LYS41      -0.1314
     89  N        -38.1500    5.0340  108.3250 N.am   42  LEU42      -0.1966
     90  CA       -37.6800    5.8500  109.4550 C.3    42  LEU42       0.1713
     91  C        -36.8960    4.9770  110.4350 C.2    42  LEU42       0.2458
     92  O        -37.2940    3.8250  110.6190 O.2    42  LEU42      -0.2730
     93  CB       -38.8740    6.4890  110.1890 C.3    42  LEU42       0.0310
     94  CG       -39.5590    7.6590  109.5130 C.3    42  LEU42       0.0022
     95  CD1      -40.8340    7.2190  108.8360 C.3    42  LEU42       0.0001
     96  CD2      -39.9080    8.7200  110.5240 C.3    42  LEU42       0.0001
     97  N        -35.8400    5.4840  111.1270 N.am   43  PRO43      -0.2716
     98  CA       -35.1230    4.6300  112.1040 C.3    43  PRO43       0.1536
     99  C        -36.0010    4.2010  113.2940 C.2    43  PRO43       0.2599
    100  O        -36.9990    4.8550  113.6070 O.2    43  PRO43      -0.2715
    101  CB       -33.9470    5.4970  112.5610 C.3    43  PRO43       0.0310
    102  CG       -34.3230    6.8750  112.2240 C.3    43  PRO43       0.0237
    103  CD       -35.2510    6.8320  111.0550 C.3    43  PRO43       0.0939
    104  N        -35.6450    3.0790  113.9120 N.am   44  GLY44      -0.1941
    105  CA       -36.3950    2.5210  115.0330 C.3    44  GLY44       0.2014
    106  C        -35.6120    2.3980  116.3200 C.2    44  GLY44       0.2639
    107  O        -34.6730    3.1670  116.5550 O.2    44  GLY44      -0.2714
    108  N        -36.0010    1.4090  117.1570 N.am   45  MET45      -0.1963
    109  CA       -35.4040    1.1030  118.4690 C.3    45  MET45       0.1736
    110  C        -33.9660    0.5630  118.3550 C.2    45  MET45       0.2616
    111  O        -33.1360    0.8690  119.2110 O.2    45  MET45      -0.2715
    112  CB       -36.2650    0.0870  119.2440 C.3    45  MET45       0.0427
    113  CG       -37.7390    0.4580  119.3420 C.3    45  MET45       0.0599
    114  SD       -38.1070    1.8150  120.4800 S.3    45  MET45      -0.1393
    115  CE       -39.8820    1.6700  120.5640 C.3    45  MET45       0.0692
    116  N        -33.6850   -0.2490  117.3210 N.am   46  ALA46      -0.1963
    117  CA       -32.3670   -0.8470  117.0900 C.3    46  ALA46       0.1728
    118  C        -31.9950   -0.8550  115.5930 C.2    46  ALA46       0.2616
    119  O        -32.8640   -0.6170  114.7400 O.2    46  ALA46      -0.2715
    120  CB       -32.3360   -2.2600  117.6480 C.3    46  ALA46       0.0334
    121  N        -30.6910   -1.0660  115.2910 N.am   47  PHE47      -0.1960
    122  CA       -30.1690   -1.0970  113.9220 C.3    47  PHE47       0.1771
    123  C        -30.7840   -2.2800  113.1880 C.2    47  PHE47       0.2619
    124  O        -30.8930   -3.3730  113.7560 O.2    47  PHE47      -0.2715
    125  CB       -28.6180   -1.1240  113.9020 C.3    47  PHE47       0.0574
    126  CG       -27.9190   -2.4490  113.6920 C.ar   47  PHE47      -0.0200
    127  CD1      -27.7100   -3.3200  114.7550 C.ar   47  PHE47      -0.0042
    128  CD2      -27.4370   -2.8090  112.4380 C.ar   47  PHE47      -0.0042
    129  CE1      -27.0560   -4.5430  114.5610 C.ar   47  PHE47      -0.0003
    130  CE2      -26.7830   -4.0320  112.2450 C.ar   47  PHE47      -0.0003
    131  CZ       -26.5970   -4.8900  113.3070 C.ar   47  PHE47      -0.0000
    132  N        -31.2420   -2.0320  111.9470 N.am   48  ASP48      -0.1971
    133  CA       -31.9160   -3.0030  111.0750 C.3    48  ASP48       0.1709
    134  C        -33.1850   -3.5600  111.7820 C.2    48  ASP48       0.2293
    135  O        -33.4560   -4.7660  111.7950 O.2    48  ASP48      -0.2864
    136  CB       -30.9530   -4.1150  110.5800 C.3    48  ASP48       0.1436
    137  CG       -30.1860   -3.7970  109.2940 C.2    48  ASP48       0.3671
    138  OD1      -29.6940   -4.7500  108.6450 O.co2  48  ASP48      -0.2456
    139  OD2      -30.0800   -2.5940  108.9360 O.co2  48  ASP48      -0.2456
    140  N        -36.2960   -0.9980  111.6610 N.3    50  PRO50      -0.2116
    141  CA       -36.8810    0.3370  111.4740 C.3    50  PRO50       0.1372
    142  C        -38.4090    0.3650  111.3810 C.2    50  PRO50       0.2244
    143  O        -39.0690   -0.6630  111.5260 O.2    50  PRO50      -0.2868
    144  CB       -36.2510    0.7870  110.1470 C.3    50  PRO50       0.0268
    145  CG       -35.9200   -0.4900  109.4050 C.3    50  PRO50       0.0207
    146  CD       -36.0870   -1.6530  110.3510 C.3    50  PRO50       0.0892
    147  N        -38.9710    8.1120  123.6620 N.3    73  PHE73      -0.1241
    148  CA       -37.8780    7.6890  122.7730 C.3    73  PHE73       0.1605
    149  C        -37.8680    8.4680  121.4460 C.2    73  PHE73       0.2264
    150  O        -36.7920    8.8490  120.9870 O.2    73  PHE73      -0.2867
    151  CB       -37.9490    6.1670  122.4830 C.3    73  PHE73       0.0534
    152  CG       -36.8930    5.6200  121.5400 C.ar   73  PHE73      -0.0203
    153  CD1      -35.6220    5.2990  122.0020 C.ar   73  PHE73      -0.0042
    154  CD2      -37.1720    5.4280  120.1890 C.ar   73  PHE73      -0.0042
    155  CE1      -34.6450    4.8080  121.1280 C.ar   73  PHE73      -0.0003
    156  CE2      -36.1920    4.9440  119.3170 C.ar   73  PHE73      -0.0003
    157  CZ       -34.9390    4.6290  119.7940 C.ar   73  PHE73      -0.0000
    158  N        -34.7350   11.2630  120.1360 N.3    77  ASN77      -0.1240
    159  CA       -34.0730   11.0110  118.8510 C.3    77  ASN77       0.1653
    160  C        -34.5170   12.0410  117.7570 C.2    77  ASN77       0.2266
    161  O        -34.0390   11.9880  116.6280 O.2    77  ASN77      -0.2867
    162  CB       -34.3140    9.5550  118.4030 C.3    77  ASN77       0.1155
    163  CG       -35.6460    9.2410  117.7490 C.2    77  ASN77       0.2627
    164  OD1      -36.6000   10.0280  117.7570 O.2    77  ASN77      -0.2716
    165  ND2      -35.7210    8.0720  117.1290 N.am   77  ASN77      -0.0877
    166  N        -37.3470   12.4640  116.0740 N.3    79  LEU79      -0.1245
    167  CA       -38.1510   12.0400  114.9270 C.3    79  LEU79       0.1561
    168  C        -39.5170   12.7030  114.9270 C.2    79  LEU79       0.2260
    169  O        -40.0560   12.9740  113.8530 O.2    79  LEU79      -0.2867
    170  CB       -38.2920   10.5090  114.8330 C.3    79  LEU79       0.0270
    171  CG       -37.0450    9.7060  114.3680 C.3    79  LEU79       0.0019
    172  CD1      -37.4030    8.2760  114.1090 C.3    79  LEU79       0.0001
    173  CD2      -36.4000   10.2860  113.1020 C.3    79  LEU79       0.0001
    174  N        -39.0570   16.2160  113.5390 N.3    82  MET82      -0.1245
    175  CA       -38.9610   16.0930  112.0790 C.3    82  MET82       0.1570
    176  C        -40.3500   15.9390  111.4490 C.2    82  MET82       0.2261
    177  O        -40.6980   16.7020  110.5450 O.2    82  MET82      -0.2867
    178  CB       -38.0720   14.8980  111.7360 C.3    82  MET82       0.0387
    179  CG       -37.7630   14.7570  110.2670 C.3    82  MET82       0.0595
    180  SD       -36.7370   13.3100  109.9320 S.3    82  MET82      -0.1393
    181  CE       -35.2660   13.7120  110.9140 C.3    82  MET82       0.0692
    182  N        -27.9060   12.5060   96.9310 N.3   110  GLU110     -0.1196
    183  CA       -26.8210   11.5000   96.8550 C.3   110  GLU110      0.1783
    184  C        -26.8880   10.8050   95.4960 C.2   110  GLU110      0.2306
    185  O        -27.9710   10.6950   94.9130 O.2   110  GLU110     -0.2863
    186  CB       -26.7980   10.4910   98.0300 C.2   110  GLU110      0.0071
    187  CG       -28.0010    9.5700   98.1520 C.2   110  GLU110      0.0834
    188  CD       -27.8960    8.4620   99.1840 C.2   110  GLU110      0.3877
    189  OE1      -28.2420    7.3070   98.8480 O.co2 110  GLU110     -0.2406
    190  OE2      -27.5010    8.7480  100.3360 O.co2 110  GLU110     -0.2406
    191  N        -26.8160    7.7810   94.4460 N.3   112  ARG112     -0.1245
    192  CA       -27.7300    6.6370   94.3310 C.3   112  ARG112      0.1563
    193  C        -29.1390    7.0990   94.0090 C.2   112  ARG112      0.2260
    194  O        -29.8440    6.4420   93.2370 O.2   112  ARG112     -0.2867
    195  CB       -27.7250    5.7840   95.6020 C.3   112  ARG112      0.0307
    196  CG       -26.4970    4.8800   95.7050 C.3   112  ARG112      0.0489
    197  CD       -26.6390    3.8150   96.7790 C.3   112  ARG112      0.2205
    198  NE       -25.3410    3.4380   97.3510 N.pl3 112  ARG112     -0.0865
    199  CZ       -24.9290    3.7590   98.5770 C.cat 112  ARG112      0.5346
    200  NH1      -25.7140    4.4610   99.3880 N.pl3 112  ARG112      0.1354
    201  NH2      -23.7360    3.3720   99.0050 N.pl3 112  ARG112      0.1354
    202  N        -31.3710    6.7430   90.3780 N.3   116  LEU116     -0.1245
    203  CA       -32.7750    6.3230   90.4010 C.3   116  LEU116      0.1561
    204  C        -33.6620    7.3090   89.6390 C.2   116  LEU116      0.2260
    205  O        -34.5220    6.8640   88.8780 O.2   116  LEU116     -0.2867
    206  CB       -33.2920    6.1370   91.8390 C.3   116  LEU116      0.0270
    207  CG       -32.7140    4.9370   92.6070 C.3   116  LEU116      0.0019
    208  CD1      -32.9520    5.0770   94.1040 C.3   116  LEU116      0.0001
    209  CD2      -33.3000    3.6090   92.1060 C.3   116  LEU116      0.0001
    210  N        -26.9900   11.5330  105.4770 N.3   141  ASN141     -0.1225
    211  CA       -28.2990   11.3090  106.0890 C.3   141  ASN141      0.1785
    212  C        -28.2860   11.3070  107.6440 C.2   141  ASN141      0.2597
    213  O        -28.3070   10.2520  108.2840 O.2   141  ASN141     -0.2718
    214  CB       -28.9290   10.0220  105.5490 C.3   141  ASN141      0.1169
    215  CG       -30.4360   10.0400  105.5480 C.2   141  ASN141      0.2627
    216  OD1      -31.0900   11.0050  105.9670 O.2   141  ASN141     -0.2716
    217  ND2      -31.0250    8.9760  105.0500 N.am  141  ASN141     -0.0877
    218  N        -28.2660   12.5160  108.2240 N.am  142  ASN142     -0.1960
    219  CA       -28.3440   12.8450  109.6520 C.3   142  ASN142      0.1819
    220  C        -28.8940   14.2730  109.7700 C.2   142  ASN142      0.2621
    221  O        -28.7960   15.0350  108.8040 O.2   142  ASN142     -0.2715
    222  CB       -27.0090   12.6660  110.3840 C.3   142  ASN142      0.1195
    223  CG       -25.8850   13.5460  109.9080 C.2   142  ASN142      0.2630
    224  OD1      -25.8650   14.7530  110.1420 O.2   142  ASN142     -0.2716
    225  ND2      -24.8810   12.9380  109.3190 N.am  142  ASN142     -0.0877
    226  N        -29.5020   14.6230  110.9280 N.am  143  ALA143     -0.1977
    227  CA       -30.1650   15.9180  111.1570 C.3   143  ALA143      0.1597
    228  C        -29.2410   17.1280  110.9530 C.2   143  ALA143      0.2287
    229  O        -29.6500   18.0860  110.3040 O.2   143  ALA143     -0.2864
    230  CB       -30.7780   15.9590  112.5410 C.3   143  ALA143      0.0319
@<TRIPOS>BOND
     1   205   204    2
     2   204   203    1
     3   202   203    1
     4   203   206    1
     5   206   207    1
     6   209   207    1
     7   207   208    1
     8   194   193    2
     9   193   192    1
    10   192   191    1
    11   192   195    1
    12   185   184    2
    13   184   183    1
    14   195   196    1
    15   196   197    1
    16    67    66   ar
    17    66    65    1
    18    66    68   ar
    19    65    64    1
    20   197   198    1
    21   183   182    1
    22   183   186    1
    23    59    58    2
    24    56    57    1
    25   198   199    2
    26    61    64    1
    27    61    60    1
    28    61    62    1
    29     4     3    2
    30    58    60   am
    31    58    57    1
    32     1     2    1
    33   186   187    2
    34    63    62    2
    35   187   188    1
    36    62    69   am
    37     3     2    1
    38     3     9   am
    39   199   201    1
    40   199   200    1
    41     2     5    1
    42    78    77    1
    43   189   188   ar
    44    79    77    1
    45   188   190   ar
    46    77    76    2
    47    12    11    2
    48     9    10    1
    49    10    11    1
    50    10    13    1
    51    69    70    1
    52    28    26   am
    53    14    13    1
    54     5     6    1
    55    11    15   am
    56     7     6   ar
    57    26    27    2
    58    26    25    1
    59    76    75    1
    60     6     8   ar
    61    25    22    1
    62    70    73    1
    63    70    71    1
    64    74    75    1
    65    74    73    1
    66    15    16    1
    67    21    22    1
    68    21    17   am
    69    72    71    2
    70    22    23    1
    71    55    53    1
    72    54    53    1
    73    53    52    2
    74    17    16    1
    75    17    18    2
    76    16    19    1
    77    48    47    2
    78    47    46    1
    79    52    51    1
    80    49    46    1
    81    49    50    1
    82    23    24    2
    83    23    29   am
    84    51    50    1
    85    19    20    1
    86    46    45    1
    87    29    30    1
    88    45    39   am
    89    88    87    1
    90    80    81    1
    91   217   215   am
    92    39    40    2
    93    39    38    1
    94    84    81    1
    95    84    85    1
    96    30    31    1
    97    30    33    1
    98   210   211    1
    99   215   214    1
   100   215   216    2
   101   214   211    1
   102    87    86    1
   103    86    85    1
   104    37    31   am
   105    37    38    1
   106    31    32    2
   107    81    82    1
   108   211   212    1
   109    33    34    1
   110    38    41    1
   111    83    82    2
   112    36    35    1
   113    41    42    1
   114    82    89   am
   115    34    35    1
   116   212   218   am
   117   212   213    2
   118    42    44   am
   119    42    43    2
   120   218   219    1
   121    89    90    1
   122   138   137   ar
   123   221   220    2
   124    95    94    1
   125   139   137   ar
   126   137   136    1
   127   225   223   am
   128   145   144    1
   129   145   146    1
   130    90    93    1
   131    90    91    1
   132    94    93    1
   133    94    96    1
   134   219   220    1
   135   219   222    1
   136   220   226   am
   137   223   224    2
   138   223   222    1
   139   180   179    1
   140   180   181    1
   141   144   141    1
   142   179   178    1
   143   229   228    2
   144   146   140    1
   145    91    92    2
   146    91    97   am
   147   177   176    2
   148   136   133    1
   149   226   227    1
   150   228   227    1
   151   103    97    1
   152   103   102    1
   153   133   134    1
   154   133   132    1
   155    97    98    1
   156   227   230    1
   157   142   141    1
   158   142   143    2
   159   176   175    1
   160   141   140    1
   161   178   175    1
   162   134   135    2
   163   132   123   am
   164   175   174    1
   165    98   101    1
   166    98    99    1
   167   102   101    1
   168   130   128   ar
   169   130   131   ar
   170   128   126   ar
   171   173   171    1
   172   123   124    2
   173   123   122    1
   174    99   100    2
   175    99   104   am
   176   131   129   ar
   177   126   125    1
   178   126   127   ar
   179   169   168    2
   180   125   122    1
   181   104   105    1
   182   122   121    1
   183   172   171    1
   184   171   170    1
   185   129   127   ar
   186   119   118    2
   187   170   167    1
   188   168   167    1
   189   167   166    1
   190   105   106    1
   191   121   118   am
   192   118   117    1
   193   106   107    2
   194   106   108   am
   195   161   160    2
   196   117   116    1
   197   117   120    1
   198   165   163   am
   199   108   109    1
   200   116   110   am
   201   163   164    2
   202   163   162    1
   203   160   159    1
   204   110   109    1
   205   110   111    2
   206   162   159    1
   207   109   112    1
   208   159   158    1
   209   112   113    1
   210   156   157   ar
   211   156   154   ar
   212   113   114    1
   213   157   155   ar
   214   154   152   ar
   215   114   115    1
   216   150   149    2
   217   155   153   ar
   218   149   148    1
   219   152   153   ar
   220   152   151    1
   221   151   148    1
   222   148   147    1
