@<TRIPOS>MOLECULE
tmp/4imnA00.pdb
 188 176 0 0 0
SMALL
GASTEIGER

@<TRIPOS>ATOM
      1  N          8.8890   -3.1180  -14.3880 N.3    17  SER17      -0.1217
      2  CA         9.2090   -2.1900  -13.3120 C.3    17  SER17       0.1889
      3  C          7.8790   -1.7300  -12.7080 C.2    17  SER17       0.2288
      4  O          7.0860   -1.0750  -13.3810 O.2    17  SER17      -0.2866
      5  CB         9.9890   -1.0240  -13.8770 C.3    17  SER17       0.2089
      6  OG         9.2880   -0.5560  -15.0200 O.3    17  SER17      -0.2183
      7  N         14.6230   12.0960   -5.9200 N.3    24  SER24      -0.1217
      8  CA        14.5270   12.9820   -7.0890 C.3    24  SER24       0.1889
      9  C         13.0760   13.0970   -7.5570 C.2    24  SER24       0.2288
     10  O         12.5240   12.1870   -8.2320 O.2    24  SER24      -0.2866
     11  CB        15.3710   12.4480   -8.2530 C.3    24  SER24       0.2089
     12  OG        15.0650   13.1430   -9.4320 O.3    24  SER24      -0.2183
     13  N         11.7470   14.9040  -10.0130 N.3    26  TRP26      -0.1227
     14  CA        11.4860   14.8420  -11.4640 C.3    26  TRP26       0.1737
     15  C         11.5050   13.4090  -11.9930 C.2    26  TRP26       0.2595
     16  O         10.7230   13.0720  -12.8900 O.2    26  TRP26      -0.2718
     17  CB        12.4340   15.7540  -12.2580 C.3    26  TRP26       0.0564
     18  CG        13.9050   15.3620  -12.3190 C.ar   26  TRP26       0.0003
     19  CD1       14.9230   16.0090  -11.7160 C.ar   26  TRP26       0.0946
     20  CD2       14.5020   14.2560  -13.0420 C.ar   26  TRP26       0.0152
     21  NE1       16.1290   15.3790  -11.9850 N.ar   26  TRP26      -0.2442
     22  CE2       15.8910   14.3010  -12.8030 C.ar   26  TRP26       0.0810
     23  CE3       13.9960   13.2360  -13.8720 C.ar   26  TRP26       0.0012
     24  CZ2       16.7850   13.3780  -13.3630 C.ar   26  TRP26       0.0191
     25  CZ3       14.8960   12.3020  -14.4300 C.ar   26  TRP26       0.0001
     26  CH2       16.2690   12.3880  -14.1640 C.ar   26  TRP26       0.0015
     27  N         12.3690   12.5600  -11.4250 N.am   27  LEU27      -0.1980
     28  CA        12.4140   11.1310  -11.8200 C.3    27  LEU27       0.1596
     29  C         11.1080   10.4170  -11.4740 C.2    27  LEU27       0.2287
     30  O         10.5790    9.6550  -12.2900 O.2    27  LEU27      -0.2864
     31  CB        13.6010   10.4100  -11.1630 C.3    27  LEU27       0.0297
     32  CG        14.0620    9.0220  -11.6590 C.3    27  LEU27       0.0022
     33  CD1       13.2730    7.9270  -10.9840 C.3    27  LEU27       0.0001
     34  CD2       13.9830    8.8670  -13.1770 C.3    27  LEU27       0.0001
     35  N          8.7380    8.9620  -14.3930 N.3    31  LYS31      -0.1245
     36  CA         8.4770    7.5220  -14.4180 C.3    31  LYS31       0.1561
     37  C          6.9890    7.2210  -14.2160 C.2    31  LYS31       0.2260
     38  O          6.4350    6.3110  -14.8490 O.2    31  LYS31      -0.2867
     39  CB         9.3120    6.8200  -13.3640 C.3    31  LYS31       0.0271
     40  CG        10.8030    6.8630  -13.6400 C.3    31  LYS31       0.0035
     41  CD        11.2170    5.9550  -14.7900 C.3    31  LYS31       0.0206
     42  CE        12.6890    6.1630  -15.1300 C.3    31  LYS31       0.1093
     43  NZ        13.5870    5.5680  -14.0940 N.3    31  LYS31      -0.1314
     44  N         20.5880   -4.4270  -18.9340 N.3    51  LEU51      -0.1245
     45  CA        19.2290   -4.2030  -18.5590 C.3    51  LEU51       0.1561
     46  C         18.5700   -3.3500  -19.6600 C.2    51  LEU51       0.2260
     47  O         18.9060   -2.1640  -19.8540 O.2    51  LEU51      -0.2867
     48  CB        19.2690   -3.5200  -17.1990 C.3    51  LEU51       0.0270
     49  CG        18.0160   -3.4000  -16.3320 C.3    51  LEU51       0.0019
     50  CD1       18.4220   -3.5040  -14.8690 C.3    51  LEU51       0.0001
     51  CD2       17.3070   -2.0790  -16.5910 C.3    51  LEU51       0.0001
     52  N         15.3000   -1.6330  -21.1510 N.3    53  SER53      -0.1217
     53  CA        13.9700   -1.1740  -20.8440 C.3    53  SER53       0.1889
     54  C         13.3270   -0.6000  -22.0920 C.2    53  SER53       0.2288
     55  O         14.0300   -0.0490  -22.9700 O.2    53  SER53      -0.2866
     56  CB        14.0190   -0.1400  -19.7200 C.3    53  SER53       0.2089
     57  OG        14.2250   -0.7690  -18.4530 O.3    53  SER53      -0.2183
     58  N         21.1140   -0.3370  -20.2750 N.3    66  MET66      -0.1245
     59  CA        22.0510    0.0800  -19.2160 C.3    66  MET66       0.1570
     60  C         22.9820   -1.0750  -18.9020 C.2    66  MET66       0.2261
     61  O         22.5180   -2.1910  -18.6760 O.2    66  MET66      -0.2867
     62  CB        21.3150    0.3960  -17.9260 C.3    66  MET66       0.0387
     63  CG        20.5420    1.6900  -17.9490 C.3    66  MET66       0.0595
     64  SD        19.6840    1.9140  -16.3690 S.3    66  MET66      -0.1393
     65  CE        18.0620    1.3610  -16.9000 C.3    66  MET66       0.0692
     66  N         25.1980   -2.8020  -16.3910 N.3    68  LEU68      -0.1245
     67  CA        25.4610   -2.9460  -14.9590 C.3    68  LEU68       0.1561
     68  C         26.6990   -3.8060  -14.8060 C.2    68  LEU68       0.2260
     69  O         26.6890   -5.0460  -14.9750 O.2    68  LEU68      -0.2867
     70  CB        24.3000   -3.5810  -14.1960 C.3    68  LEU68       0.0270
     71  CG        22.9350   -2.9160  -14.3090 C.3    68  LEU68       0.0019
     72  CD1       21.9470   -3.6680  -13.4080 C.3    68  LEU68       0.0001
     73  CD2       23.0040   -1.4390  -13.9810 C.3    68  LEU68       0.0001
     74  N         26.7480    1.3450  -12.2730 N.3    79  TYR79      -0.1241
     75  CA        26.2690    1.8860  -13.5380 C.3    79  TYR79       0.1605
     76  C         26.8660    3.2800  -13.7530 C.2    79  TYR79       0.2264
     77  O         26.7090    4.1800  -12.9310 O.2    79  TYR79      -0.2867
     78  CB        24.7390    2.0100  -13.5110 C.3    79  TYR79       0.0534
     79  CG        24.2010    2.7960  -14.6860 C.ar   79  TYR79      -0.0201
     80  CD1       24.3890    2.3300  -15.9680 C.ar   79  TYR79      -0.0009
     81  CD2       23.5550    4.0070  -14.5120 C.ar   79  TYR79      -0.0009
     82  CE1       23.9350    3.0230  -17.0470 C.ar   79  TYR79       0.0417
     83  CE2       23.0860    4.7260  -15.6040 C.ar   79  TYR79       0.0417
     84  CZ        23.2870    4.2140  -16.8580 C.ar   79  TYR79       0.1957
     85  OH        22.8610    4.8580  -17.9490 O.3    79  TYR79      -0.2866
     86  N         26.8580    6.6870  -15.8210 N.3    81  SER81      -0.1217
     87  CA        25.9700    7.5550  -16.5890 C.3    81  SER81       0.1889
     88  C         26.7890    8.7110  -17.1710 C.2    81  SER81       0.2288
     89  O         27.0060    9.7010  -16.4720 O.2    81  SER81      -0.2866
     90  CB        24.8260    8.1110  -15.7150 C.3    81  SER81       0.2089
     91  OG        23.9690    8.9710  -16.4540 O.3    81  SER81      -0.2183
     92  N         24.8930   12.1250  -17.0810 N.3    84  TRP84      -0.1241
     93  CA        24.9050   12.7560  -15.7550 C.3    84  TRP84       0.1605
     94  C         26.2900   12.8410  -15.0750 C.2    84  TRP84       0.2264
     95  O         26.4130   13.3160  -13.9380 O.2    84  TRP84      -0.2867
     96  CB        23.8800   12.0590  -14.8310 C.3    84  TRP84       0.0550
     97  CG        22.4840   12.2890  -15.2620 C.ar   84  TRP84       0.0003
     98  CD1       21.6940   11.4450  -16.0000 C.ar   84  TRP84       0.0946
     99  CD2       21.6840   13.4620  -15.0090 C.ar   84  TRP84       0.0152
    100  NE1       20.4760   12.0300  -16.2210 N.ar   84  TRP84      -0.2442
    101  CE2       20.4370   13.2510  -15.6060 C.ar   84  TRP84       0.0810
    102  CE3       21.9010   14.6410  -14.3220 C.ar   84  TRP84       0.0012
    103  CZ2       19.4240   14.1720  -15.5370 C.ar   84  TRP84       0.0191
    104  CZ3       20.8990   15.5590  -14.2610 C.ar   84  TRP84       0.0001
    105  CH2       19.6750   15.3230  -14.8680 C.ar   84  TRP84       0.0015
    106  N         26.7820    5.1190  -10.2720 N.3    88  TYR88      -0.1241
    107  CA        25.7660    4.6770   -9.2950 C.3    88  TYR88       0.1605
    108  C         26.0160    3.2080   -8.9240 C.2    88  TYR88       0.2264
    109  O         26.4200    2.3990   -9.7650 O.2    88  TYR88      -0.2867
    110  CB        24.3420    4.8070   -9.8530 C.3    88  TYR88       0.0534
    111  CG        24.0350    6.1710  -10.3370 C.ar   88  TYR88      -0.0201
    112  CD1       23.3280    7.0830   -9.5430 C.ar   88  TYR88      -0.0009
    113  CD2       24.5240    6.5970  -11.5620 C.ar   88  TYR88      -0.0009
    114  CE1       23.0700    8.3810   -9.9950 C.ar   88  TYR88       0.0417
    115  CE2       24.2860    7.8650  -12.0210 C.ar   88  TYR88       0.0417
    116  CZ        23.5610    8.7540  -11.2510 C.ar   88  TYR88       0.1957
    117  OH        23.3420   10.0210  -11.7510 O.3    88  TYR88      -0.2866
    118  N         24.2290   -0.1620   -7.8230 N.3    90  VAL90      -0.1245
    119  CA        22.9550   -0.8590   -7.9840 C.3    90  VAL90       0.1561
    120  C         23.0680   -2.2590   -7.3280 C.2    90  VAL90       0.2260
    121  O         23.9320   -3.0360   -7.7010 O.2    90  VAL90      -0.2867
    122  CB        22.5580   -0.9900   -9.4750 C.3    90  VAL90       0.0252
    123  CG1       21.1650   -1.6270   -9.6020 C.3    90  VAL90       0.0019
    124  CG2       22.5980    0.3640  -10.1780 C.3    90  VAL90       0.0019
    125  N         15.2830   -3.6960   -5.6980 N.3   103  LEU103     -0.1245
    126  CA        16.5790   -3.1160   -5.9940 C.3   103  LEU103      0.1561
    127  C         16.7510   -1.7450   -5.2820 C.2   103  LEU103      0.2260
    128  O         15.7880   -1.0670   -4.9860 O.2   103  LEU103     -0.2867
    129  CB        16.7410   -2.9920   -7.5020 C.3   103  LEU103      0.0270
    130  CG        17.3450   -4.2200   -8.1620 C.3   103  LEU103      0.0019
    131  CD1       16.4520   -5.4230   -8.0500 C.3   103  LEU103      0.0001
    132  CD2       17.5780   -3.9070   -9.6100 C.3   103  LEU103      0.0001
    133  N         19.4690    1.6550   -5.5360 N.3   105  SER105     -0.1217
    134  CA        20.5060    2.3400   -6.2890 C.3   105  SER105      0.1889
    135  C         20.8330    3.6320   -5.5880 C.2   105  SER105      0.2288
    136  O         19.9360    4.3430   -5.2070 O.2   105  SER105     -0.2866
    137  CB        20.0320    2.6890   -7.7220 C.3   105  SER105      0.2089
    138  OG        19.5490    1.5550   -8.4350 O.3   105  SER105     -0.2183
    139  N         25.6890   13.3370   -9.0740 N.3   112  GLY112     -0.1225
    140  CA        24.5200   12.5280   -8.6810 C.3   112  GLY112      0.1811
    141  C         24.7500   11.6350   -7.4750 C.2   112  GLY112      0.2280
    142  O         23.9230   10.7990   -7.1620 O.2   112  GLY112     -0.2866
    143  N         24.2520   12.1900   -4.4430 N.3   114  ASP114     -0.1225
    144  CA        23.1590   12.3030   -3.4720 C.3   114  ASP114      0.1805
    145  C         21.9250   11.4590   -3.8480 C.2   114  ASP114      0.2597
    146  O         21.0130   11.3000   -3.0410 O.2   114  ASP114     -0.2718
    147  CB        22.7120   13.7560   -3.4380 C.3   114  ASP114      0.1424
    148  CG        22.4090   14.2740   -4.8310 C.2   114  ASP114      0.3668
    149  OD1       23.3630   14.2680   -5.6690 O.co2 114  ASP114     -0.2456
    150  OD2       21.2230   14.6220   -5.0970 O.co2 114  ASP114     -0.2456
    151  N         21.8790   10.9780   -5.0870 N.am  115  PHE115     -0.1976
    152  CA        20.6810   10.3090   -5.6300 C.3   115  PHE115      0.1639
    153  C         20.4560    8.9610   -4.9320 C.2   115  PHE115      0.2290
    154  O         21.4180    8.2690   -4.5510 O.2   115  PHE115     -0.2864
    155  CB        20.8040   10.1620   -7.1570 C.3   115  PHE115      0.0560
    156  CG        19.7130    9.3560   -7.8000 C.ar  115  PHE115     -0.0200
    157  CD1       18.4980    9.9460   -8.1020 C.ar  115  PHE115     -0.0042
    158  CD2       19.9170    8.0110   -8.1330 C.ar  115  PHE115     -0.0042
    159  CE1       17.4650    9.1940   -8.6830 C.ar  115  PHE115     -0.0003
    160  CE2       18.9090    7.2750   -8.7420 C.ar  115  PHE115     -0.0003
    161  CZ        17.6840    7.8710   -9.0230 C.ar  115  PHE115     -0.0000
    162  N         17.3600    5.5870   -4.9850 N.3   117  MET117     -0.1245
    163  CA        16.1480    5.0420   -5.5700 C.3   117  MET117      0.1570
    164  C         15.9340    3.5900   -5.1710 C.2   117  MET117      0.2261
    165  O         16.8370    2.7860   -5.2710 O.2   117  MET117     -0.2867
    166  CB        16.2280    5.1630   -7.0780 C.3   117  MET117      0.0387
    167  CG        15.0370    4.5580   -7.7800 C.3   117  MET117      0.0595
    168  SD        15.0110    4.9600   -9.5160 S.3   117  MET117     -0.1393
    169  CE        16.4840    4.1630  -10.0960 C.3   117  MET117      0.0692
    170  N         13.6100    0.3120   -6.3120 N.3   119  THR119     -0.1218
    171  CA        12.8390   -0.1520   -7.4570 C.3   119  THR119      0.1862
    172  C         12.2140   -1.5250   -7.1590 C.2   119  THR119      0.2287
    173  O         12.8570   -2.3990   -6.5950 O.2   119  THR119     -0.2866
    174  CB        13.7750   -0.2740   -8.6820 C.3   119  THR119      0.1770
    175  OG1       14.5560    0.9140   -8.8260 O.3   119  THR119     -0.2211
    176  CG2       12.9870   -0.4880   -9.9610 C.3   119  THR119      0.0375
    177  N         10.7360   -4.7380   -9.0710 N.3   121  TYR121     -0.1241
    178  CA        10.5780   -5.5490  -10.2780 C.3   121  TYR121      0.1605
    179  C          9.6290   -6.6960  -10.0150 C.2   121  TYR121      0.2264
    180  O          9.7820   -7.3770   -8.9950 O.2   121  TYR121     -0.2867
    181  CB        11.9510   -6.0870  -10.7200 C.3   121  TYR121      0.0534
    182  CG        12.7270   -5.2080  -11.6930 C.ar  121  TYR121     -0.0201
    183  CD1       12.2930   -3.9350  -12.0260 C.ar  121  TYR121     -0.0009
    184  CD2       13.9430   -5.6640  -12.2820 C.ar  121  TYR121     -0.0009
    185  CE1       12.9970   -3.1350  -12.9140 C.ar  121  TYR121      0.0417
    186  CE2       14.6620   -4.8520  -13.1800 C.ar  121  TYR121      0.0417
    187  CZ        14.1660   -3.5720  -13.4700 C.ar  121  TYR121      0.1957
    188  OH        14.7960   -2.7020  -14.3410 O.3   121  TYR121     -0.2866
@<TRIPOS>BOND
     1    55    54    2
     2    54    53    1
     3    52    53    1
     4    53    56    1
     5    58    59    1
     6    47    46    2
     7    56    57    1
     8    46    45    1
     9    59    60    1
    10    59    62    1
    11    44    45    1
    12    60    61    2
    13    45    48    1
    14    63    62    1
    15    63    64    1
    16    85    84    1
    17    48    49    1
    18    88    87    1
    19    88    89    2
    20    92    93    1
    21    82    84   ar
    22    82    80   ar
    23    65    64    1
    24    84    83   ar
    25    51    49    1
    26    87    86    1
    27    87    90    1
    28    91    90    1
    29    66    67    1
    30    49    50    1
    31   100    98   ar
    32   100   101   ar
    33    98    97   ar
    34    80    79   ar
    35    93    94    1
    36    93    96    1
    37   101   103   ar
    38   101    99   ar
    39    83    81   ar
    40   103   105   ar
    41    97    99   ar
    42    97    96    1
    43    42    41    1
    44    42    43    1
    45    94    95    2
    46     6     5    1
    47    99   102   ar
    48    69    68    2
    49    67    68    1
    50    67    70    1
    51   105   104   ar
    52    38    37    2
    53    41    40    1
    54    79    81   ar
    55    79    78    1
    56    25    26   ar
    57    25    23   ar
    58    36    35    1
    59    36    37    1
    60    36    39    1
    61     1     2    1
    62   188   187    1
    63   102   104   ar
    64    71    70    1
    65    71    73    1
    66    71    72    1
    67    26    24   ar
    68     5     2    1
    69    23    20   ar
    70    76    75    1
    71    76    77    2
    72    40    39    1
    73    75    78    1
    74    75    74    1
    75   187   186   ar
    76   187   185   ar
    77     4     3    2
    78    24    22   ar
    79     2     3    1
    80   186   184   ar
    81    34    32    1
    82    20    22   ar
    83    20    18   ar
    84   185   183   ar
    85    16    15    2
    86    22    21   ar
    87    18    17    1
    88    18    19   ar
    89    30    29    2
    90   184   182   ar
    91    17    14    1
    92   183   182   ar
    93   115   113   ar
    94   115   116   ar
    95    15    14    1
    96    15    27   am
    97    21    19   ar
    98    28    29    1
    99    28    27    1
   100    28    31    1
   101   117   116    1
   102   182   181    1
   103    32    31    1
   104    32    33    1
   105   113   111   ar
   106    14    13    1
   107   116   114   ar
   108   181   178    1
   109   111   110    1
   110   111   112   ar
   111   178   179    1
   112   178   177    1
   113   106   107    1
   114   124   122    1
   115   169   168    1
   116   179   180    2
   117   114   112   ar
   118   176   174    1
   119   110   107    1
   120   109   108    2
   121   132   130    1
   122   123   122    1
   123   168   167    1
   124   122   119    1
   125    12    11    1
   126   107   108    1
   127   139   140    1
   128   161   160   ar
   129   161   159   ar
   130   175   174    1
   131   160   158   ar
   132   159   157   ar
   133   174   171    1
   134   140   141    1
   135   138   137    1
   136    11     8    1
   137    10     9    2
   138   130   131    1
   139   130   129    1
   140   158   156   ar
   141   157   156   ar
   142   119   118    1
   143   119   120    1
   144   156   155    1
   145   167   166    1
   146   137   134    1
   147   121   120    2
   148     9     8    1
   149   129   126    1
   150   141   142    2
   151   171   172    1
   152   171   170    1
   153   172   173    2
   154   155   152    1
   155     8     7    1
   156   166   163    1
   157   134   135    1
   158   134   133    1
   159   126   125    1
   160   126   127    1
   161   149   148   ar
   162   152   151    1
   163   152   153    1
   164   135   136    2
   165   163   164    1
   166   163   162    1
   167   127   128    2
   168   165   164    2
   169   150   148   ar
   170   151   145   am
   171   153   154    2
   172   148   147    1
   173   143   144    1
   174   145   144    1
   175   145   146    2
   176   144   147    1
