@<TRIPOS>MOLECULE
tmp/4imoA01.pdb
 171 164 0 0 0
SMALL
GASTEIGER

@<TRIPOS>ATOM
      1  N         27.1600   25.3630   14.1880 N.3    18  SER18      -0.1217
      2  CA        26.9130   26.3860   13.1870 C.3    18  SER18       0.1889
      3  C         28.2830   26.8040   12.6120 C.2    18  SER18       0.2288
      4  O         29.0590   27.5460   13.2430 O.2    18  SER18      -0.2866
      5  CB        26.1170   27.5430   13.7910 C.3    18  SER18       0.2089
      6  OG        25.5590   28.3850   12.8000 O.3    18  SER18      -0.2183
      7  N         23.7220   44.1970    8.2000 N.3    27  TRP27      -0.1241
      8  CA        24.3530   43.8940    9.4740 C.3    27  TRP27       0.1605
      9  C         25.4300   42.8050    9.4240 C.2    27  TRP27       0.2264
     10  O         26.4380   42.9020   10.1220 O.2    27  TRP27      -0.2867
     11  CB        23.2840   43.4820   10.4770 C.3    27  TRP27       0.0550
     12  CG        23.8440   43.3200   11.8130 C.ar   27  TRP27       0.0003
     13  CD1       24.1510   44.3120   12.6800 C.ar   27  TRP27       0.0946
     14  CD2       24.2270   42.0930   12.4400 C.ar   27  TRP27       0.0152
     15  NE1       24.6910   43.7870   13.8230 N.ar   27  TRP27      -0.2442
     16  CE2       24.7480   42.4230   13.7050 C.ar   27  TRP27       0.0810
     17  CE3       24.1740   40.7460   12.0590 C.ar   27  TRP27       0.0012
     18  CZ2       25.2160   41.4530   14.6010 C.ar   27  TRP27       0.0191
     19  CZ3       24.6360   39.7810   12.9510 C.ar   27  TRP27       0.0001
     20  CH2       25.1480   40.1420   14.2090 C.ar   27  TRP27       0.0015
     21  N         31.6480   37.2450   14.6200 N.3    35  LEU35      -0.1245
     22  CA        30.8390   36.0050   14.7650 C.3    35  LEU35       0.1561
     23  C         31.7100   34.7620   14.9330 C.2    35  LEU35       0.2260
     24  O         32.7560   34.6360   14.2770 O.2    35  LEU35      -0.2867
     25  CB        29.9440   35.8100   13.5540 C.3    35  LEU35       0.0270
     26  CG        29.0900   36.9940   13.1470 C.3    35  LEU35       0.0019
     27  CD1       28.4560   36.7040   11.7960 C.3    35  LEU35       0.0001
     28  CD2       28.0230   37.2950   14.1880 C.3    35  LEU35       0.0001
     29  N         28.9810   28.4130   16.9040 N.3    38  CYS38      -0.1235
     30  CA        28.1220   28.0880   18.0450 C.3    38  CYS38       0.1677
     31  C         27.7480   26.6020   17.9750 C.2    38  CYS38       0.2270
     32  O         27.6110   26.0570   16.8750 O.2    38  CYS38      -0.2867
     33  CB        26.8060   28.8840   17.9680 C.3    38  CYS38       0.0956
     34  SG        26.8820   30.6960   18.0700 S.3    38  CYS38      -0.0801
     35  N         24.7350   23.9260   18.5100 N.3    40  SER40      -0.1217
     36  CA        23.2860   23.9060   18.4700 C.3    40  SER40       0.1889
     37  C         22.8080   22.4990   18.6910 C.2    40  SER40       0.2288
     38  O         23.2280   21.5910   17.9740 O.2    40  SER40      -0.2866
     39  CB        22.7830   24.4530   17.1420 C.3    40  SER40       0.2089
     40  OG        22.9260   25.8660   17.1110 O.3    40  SER40      -0.2183
     41  N         15.6800   24.0380   18.9780 N.3    52  LEU52      -0.1245
     42  CA        17.0740   24.2820   18.6740 C.3    52  LEU52       0.1561
     43  C         17.6680   25.0580   19.8470 C.2    52  LEU52       0.2260
     44  O         17.2680   26.1980   20.0780 O.2    52  LEU52      -0.2867
     45  CB        17.1640   25.1110   17.3950 C.3    52  LEU52       0.0270
     46  CG        18.5370   25.3060   16.7560 C.3    52  LEU52       0.0019
     47  CD1       18.9870   24.0090   16.1090 C.3    52  LEU52       0.0001
     48  CD2       18.5030   26.4280   15.7350 C.3    52  LEU52       0.0001
     49  N         20.9030   26.7130   21.2910 N.3    54  SER54      -0.1217
     50  CA        22.2230   27.1830   20.8870 C.3    54  SER54       0.1889
     51  C         22.9450   27.8020   22.0660 C.2    54  SER54       0.2288
     52  O         22.3080   28.4460   22.9130 O.2    54  SER54      -0.2866
     53  CB        22.1070   28.2100   19.7900 C.3    54  SER54       0.2089
     54  OG        21.6310   27.6050   18.6010 O.3    54  SER54      -0.2183
     55  N         26.5800   30.0980   23.2710 N.3    56  PHE56      -0.1241
     56  CA        27.7330   30.8970   22.8790 C.3    56  PHE56       0.1605
     57  C         28.4340   31.4320   24.1180 C.2    56  PHE56       0.2264
     58  O         27.8110   31.5510   25.1610 O.2    56  PHE56      -0.2867
     59  CB        27.3110   32.0580   21.9600 C.3    56  PHE56       0.0534
     60  CG        26.3440   33.0400   22.5890 C.ar   56  PHE56      -0.0203
     61  CD1       24.9700   32.8290   22.5090 C.ar   56  PHE56      -0.0042
     62  CD2       26.8020   34.1930   23.2210 C.ar   56  PHE56      -0.0042
     63  CE1       24.0830   33.7330   23.0760 C.ar   56  PHE56      -0.0003
     64  CE2       25.9140   35.0940   23.7700 C.ar   56  PHE56      -0.0003
     65  CZ        24.5600   34.8580   23.6920 C.ar   56  PHE56      -0.0000
     66  N         30.1140   34.3360   26.4320 N.3    58  ARG58      -0.1245
     67  CA        30.2720   35.7570   26.7040 C.3    58  ARG58       0.1563
     68  C         31.0370   35.8950   28.0020 C.2    58  ARG58       0.2260
     69  O         30.6170   35.3690   29.0290 O.2    58  ARG58      -0.2867
     70  CB        28.9190   36.4790   26.8140 C.3    58  ARG58       0.0307
     71  CG        29.1360   37.9790   26.6930 C.3    58  ARG58       0.0489
     72  CD        27.9360   38.8530   26.9170 C.3    58  ARG58       0.2205
     73  NE        27.0100   38.8870   25.7720 N.pl3  58  ARG58      -0.0865
     74  CZ        25.7910   38.3670   25.7950 C.cat  58  ARG58       0.5346
     75  NH1       25.3520   37.7380   26.8690 N.pl3  58  ARG58       0.1354
     76  NH2       25.0110   38.4620   24.7390 N.pl3  58  ARG58       0.1354
     77  N         20.3090   29.6560   24.4130 N.3    65  ARG65      -0.1245
     78  CA        19.0900   30.2060   23.8050 C.3    65  ARG65       0.1563
     79  C         18.3250   29.0700   23.1580 C.2    65  ARG65       0.2260
     80  O         18.9470   28.1740   22.5890 O.2    65  ARG65      -0.2867
     81  CB        19.4070   31.2310   22.7100 C.3    65  ARG65       0.0307
     82  CG        20.2380   32.4400   23.1480 C.3    65  ARG65       0.0489
     83  CD        19.4800   33.3380   24.1050 C.3    65  ARG65       0.2205
     84  NE        20.3380   34.4130   24.6110 N.pl3  65  ARG65      -0.0865
     85  CZ        20.8800   34.4850   25.8230 C.cat  65  ARG65       0.5346
     86  NH1       20.6960   33.5250   26.7510 N.pl3  65  ARG65       0.1354
     87  NH2       21.6070   35.5370   26.1230 N.pl3  65  ARG65       0.1354
     88  N         15.1400   28.0690   20.3440 N.3    67  MET67      -0.1245
     89  CA        14.2340   28.5310   19.2840 C.3    67  MET67       0.1570
     90  C         13.3130   27.3580   18.9340 C.2    67  MET67       0.2261
     91  O         13.7990   26.2480   18.7140 O.2    67  MET67      -0.2867
     92  CB        15.0020   28.8780   18.0290 C.3    67  MET67       0.0387
     93  CG        15.9000   30.1030   18.1180 C.3    67  MET67       0.0595
     94  SD        16.8730   30.2420   16.6020 S.3    67  MET67      -0.1393
     95  CE        15.6330   29.9570   15.3460 C.3    67  MET67       0.0692
     96  N          9.5010   29.6450   12.2240 N.3    80  TYR80      -0.1241
     97  CA         9.9980   30.2420   13.4640 C.3    80  TYR80       0.1605
     98  C          9.4280   31.6500   13.6640 C.2    80  TYR80       0.2264
     99  O          9.5430   32.5040   12.7790 O.2    80  TYR80      -0.2867
    100  CB        11.5060   30.3730   13.4040 C.3    80  TYR80       0.0534
    101  CG        12.0340   31.1380   14.5960 C.ar   80  TYR80      -0.0201
    102  CD1       11.9090   30.6170   15.8670 C.ar   80  TYR80      -0.0009
    103  CD2       12.6490   32.3840   14.4390 C.ar   80  TYR80      -0.0009
    104  CE1       12.3790   31.3120   16.9810 C.ar   80  TYR80       0.0417
    105  CE2       13.0990   33.0920   15.5370 C.ar   80  TYR80       0.0417
    106  CZ        12.9810   32.5460   16.7960 C.ar   80  TYR80       0.1957
    107  OH        13.4440   33.2610   17.9040 O.3    80  TYR80      -0.2866
    108  N          9.6530   35.1570   15.7170 N.3    82  SER82      -0.1203
    109  CA        10.5000   36.0130   16.5570 C.3    82  SER82       0.2005
    110  C          9.6510   37.1370   17.1420 C.2    82  SER82       0.2461
    111  O          9.3240   38.0980   16.4380 O.2    82  SER82      -0.2732
    112  CB        11.6430   36.6150   15.7580 C.3    82  SER82       0.2103
    113  OG        12.3810   37.5620   16.5260 O.3    82  SER82      -0.2182
    114  N          9.2750   37.0250   18.4230 N.am   83  PRO83      -0.2717
    115  CA         8.5370   38.1580   18.9870 C.3    83  PRO83       0.1535
    116  C          9.3500   39.4580   18.9870 C.2    83  PRO83       0.2599
    117  O          8.8110   40.5340   18.6710 O.2    83  PRO83      -0.2715
    118  CB         8.2020   37.7040   20.4090 C.3    83  PRO83       0.0310
    119  CG         8.2580   36.2210   20.3670 C.3    83  PRO83       0.0237
    120  CD         9.2920   35.8590   19.3250 C.3    83  PRO83       0.0939
    121  N         10.6530   39.3780   19.2590 N.am   84  HIS84      -0.1960
    122  CA        11.4570   40.6140   19.3280 C.3    84  HIS84       0.1787
    123  C         11.5130   41.3680   18.0160 C.2    84  HIS84       0.2620
    124  O         11.5850   42.5970   18.0260 O.2    84  HIS84      -0.2715
    125  CB        12.8670   40.3300   19.8390 C.3    84  HIS84       0.0785
    126  CG        12.8870   39.8860   21.2670 C.ar   84  HIS84       0.0821
    127  ND1       14.0340   39.5100   21.9270 N.ar   84  HIS84      -0.2267
    128  CD2       11.8700   39.6960   22.1450 C.ar   84  HIS84       0.1154
    129  CE1       13.7320   39.1520   23.1620 C.ar   84  HIS84       0.1986
    130  NE2       12.4240   39.2480   23.3130 N.ar   84  HIS84      -0.2212
    131  N         11.4810   40.6380   16.8970 N.am   85  TRP85      -0.1974
    132  CA        11.5750   41.2390   15.5720 C.3    85  TRP85       0.1640
    133  C         10.2030   41.3350   14.8440 C.2    85  TRP85       0.2290
    134  O         10.1350   41.7740   13.6810 O.2    85  TRP85      -0.2864
    135  CB        12.6100   40.5020   14.7190 C.3    85  TRP85       0.0576
    136  CG        13.9870   40.6740   15.2220 C.ar   85  TRP85       0.0006
    137  CD1       14.6750   39.8060   15.9530 C.ar   85  TRP85       0.0946
    138  CD2       14.8420   41.8240   15.0320 C.ar   85  TRP85       0.0152
    139  NE1       15.9080   40.3230   16.2830 N.ar   85  TRP85      -0.2442
    140  CE2       16.0410   41.5590   15.7070 C.ar   85  TRP85       0.0810
    141  CE3       14.6840   43.0560   14.3900 C.ar   85  TRP85       0.0012
    142  CZ2       17.1120   42.4690   15.7390 C.ar   85  TRP85       0.0191
    143  CZ3       15.7500   43.9730   14.4230 C.ar   85  TRP85       0.0001
    144  CH2       16.9390   43.6700   15.1040 C.ar   85  TRP85       0.0015
    145  N         18.7270   33.8250    4.4710 N.3   118  MET118     -0.1245
    146  CA        19.9640   33.3600    5.0950 C.3   118  MET118      0.1570
    147  C         20.1880   31.8760    4.8360 C.2   118  MET118      0.2261
    148  O         19.3080   31.0760    5.0760 O.2   118  MET118     -0.2867
    149  CB        19.9100   33.6140    6.6040 C.3   118  MET118      0.0387
    150  CG        21.1140   33.0730    7.3480 C.3   118  MET118      0.0595
    151  SD        21.2180   33.4510    9.0920 S.3   118  MET118     -0.1393
    152  CE        19.8530   32.4920    9.6890 C.3   118  MET118      0.0692
    153  N         22.5010   28.6120    6.0220 N.3   120  THR120     -0.1218
    154  CA        23.2990   28.1570    7.1600 C.3   120  THR120      0.1862
    155  C         23.9600   26.8000    6.8640 C.2   120  THR120      0.2287
    156  O         23.3420   25.9160    6.2840 O.2   120  THR120     -0.2866
    157  CB        22.3900   28.0580    8.4030 C.3   120  THR120      0.1770
    158  OG1       21.7700   29.3380    8.6230 O.3   120  THR120     -0.2211
    159  CG2       23.1800   27.6380    9.6520 C.3   120  THR120      0.0375
    160  N         25.3530   23.6390    8.8590 N.3   122  TYR122     -0.1241
    161  CA        25.5190   22.8430   10.0680 C.3   122  TYR122      0.1605
    162  C         26.4780   21.6760    9.8170 C.2   122  TYR122      0.2264
    163  O         26.3920   20.9770    8.8070 O.2   122  TYR122     -0.2867
    164  CB        24.1720   22.2900   10.5190 C.3   122  TYR122      0.0534
    165  CG        23.3840   23.1630   11.4660 C.ar  122  TYR122     -0.0201
    166  CD1       23.7130   24.4990   11.6690 C.ar  122  TYR122     -0.0009
    167  CD2       22.2950   22.6320   12.1750 C.ar  122  TYR122     -0.0009
    168  CE1       22.9730   25.3010   12.5520 C.ar  122  TYR122      0.0417
    169  CE2       21.5490   23.4280   13.0540 C.ar  122  TYR122      0.0417
    170  CZ        21.8900   24.7560   13.2320 C.ar  122  TYR122      0.1957
    171  OH        21.1390   25.5330   14.1210 O.3   122  TYR122     -0.2866
@<TRIPOS>BOND
     1   145   146    1
     2   147   148    2
     3   147   146    1
     4   146   149    1
     5   153   154    1
     6   156   155    2
     7   149   150    1
     8   155   154    1
     9   154   157    1
    10   150   151    1
    11     7     8    1
    12   157   158    1
    13   157   159    1
    14   163   162    2
    15   160   161    1
    16   151   152    1
    17     9     8    1
    18     9    10    2
    19     8    11    1
    20   162   161    1
    21   161   164    1
    22    11    12    1
    23   164   165    1
    24   165   166   ar
    25   165   167   ar
    26   166   168   ar
    27    27    26    1
    28    12    14   ar
    29    12    13   ar
    30    17    14   ar
    31    17    19   ar
    32   167   169   ar
    33    96    97    1
    34    14    16   ar
    35   168   170   ar
    36     3     2    1
    37     3     4    2
    38    13    15   ar
    39    99    98    2
    40     6     5    1
    41    19    20   ar
    42   169   170   ar
    43    26    25    1
    44    26    28    1
    45     2     5    1
    46     2     1    1
    47   170   171    1
    48   100    97    1
    49   100   101    1
    50    97    98    1
    51    25    22    1
    52   134   133    2
    53    16    15   ar
    54    16    18   ar
    55    20    18   ar
    56    24    23    2
    57   141   143   ar
    58   141   138   ar
    59   143   144   ar
    60   103   101   ar
    61   103   105   ar
    62   101   102   ar
    63    21    22    1
    64   135   136    1
    65   135   132    1
    66    22    23    1
    67   133   132    1
    68   138   136   ar
    69   138   140   ar
    70   144   142   ar
    71   136   137   ar
    72    95    94    1
    73   105   106   ar
    74   132   131    1
    75   140   142   ar
    76   140   139   ar
    77   108   109    1
    78    48    46    1
    79   112   113    1
    80   112   109    1
    81   102   104   ar
    82   137   139   ar
    83    47    46    1
    84   111   110    2
    85   109   110    1
    86    94    93    1
    87    46    45    1
    88   106   104   ar
    89   106   107    1
    90    32    31    2
    91   131   123   am
    92    29    30    1
    93    40    39    1
    94    39    36    1
    95   110   114   am
    96    45    42    1
    97    33    30    1
    98    33    34    1
    99    38    37    2
   100    31    30    1
   101   123   124    2
   102   123   122    1
   103    92    93    1
   104    92    89    1
   105   114   115    1
   106   114   120    1
   107    36    35    1
   108    36    37    1
   109    54    53    1
   110   117   116    2
   111    42    41    1
   112    42    43    1
   113    91    90    2
   114    90    89    1
   115   116   115    1
   116   116   121   am
   117   115   118    1
   118   121   122    1
   119    89    88    1
   120   120   119    1
   121   122   125    1
   122    53    50    1
   123   125   126    1
   124    43    44    2
   125   119   118    1
   126    50    49    1
   127    50    51    1
   128   126   127   ar
   129   126   128   ar
   130   127   129   ar
   131    59    60    1
   132    59    56    1
   133    51    52    2
   134   128   130   ar
   135    61    60   ar
   136    61    63   ar
   137    80    79    2
   138    60    62   ar
   139    81    82    1
   140    81    78    1
   141    56    55    1
   142    56    57    1
   143    63    65   ar
   144    82    83    1
   145    79    78    1
   146   129   130   ar
   147    62    64   ar
   148    65    64   ar
   149    78    77    1
   150    83    84    1
   151    57    58    2
   152    84    85    2
   153    76    74    1
   154    73    74    2
   155    73    72    1
   156    74    75    1
   157    85    87    1
   158    85    86    1
   159    66    67    1
   160    71    70    1
   161    71    72    1
   162    67    70    1
   163    67    68    1
   164    68    69    2
