@<TRIPOS>MOLECULE
tmp/4imqA00.pdb
 91 87 0 0 0
SMALL
GASTEIGER

@<TRIPOS>ATOM
      1  N        -44.1100  -35.8500    2.7180 N.3    16  SER16      -0.1217
      2  CA       -44.2950  -35.0950    3.9510 C.3    16  SER16       0.1889
      3  C        -43.0090  -34.3770    4.3480 C.2    16  SER16       0.2288
      4  O        -42.7070  -34.2380    5.5330 O.2    16  SER16      -0.2866
      5  CB       -44.7510  -36.0190    5.0810 C.3    16  SER16       0.2089
      6  OG       -43.7710  -37.0030    5.3640 O.3    16  SER16      -0.2183
      7  N        -38.5380  -41.8240    5.4160 N.3    32  HIS32      -0.1226
      8  CA       -39.8320  -41.6950    6.0870 C.3    32  HIS32       0.1752
      9  C        -40.7420  -40.6110    5.5350 C.2    32  HIS32       0.2595
     10  O        -41.9220  -40.5770    5.9040 O.2    32  HIS32      -0.2718
     11  CB       -39.6910  -41.5870    7.6090 C.3    32  HIS32       0.0759
     12  CG       -39.3070  -40.2390    8.1050 C.ar   32  HIS32       0.0818
     13  ND1      -38.0280  -39.9480    8.5920 N.ar   32  HIS32      -0.2268
     14  CD2      -40.0050  -39.1000    8.2830 C.ar   32  HIS32       0.1154
     15  CE1      -37.9830  -38.7170    9.0060 C.ar   32  HIS32       0.1986
     16  NE2      -39.1860  -38.1610    8.8380 N.ar   32  HIS32      -0.2212
     17  N        -40.2390  -39.7490    4.6470 N.am   33  VAL33      -0.1980
     18  CA       -41.1240  -38.7380    4.0610 C.3    33  VAL33       0.1595
     19  C        -41.6940  -39.1960    2.7100 C.2    33  VAL33       0.2287
     20  O        -42.5940  -38.5510    2.1740 O.2    33  VAL33      -0.2864
     21  CB       -40.4760  -37.3290    3.9200 C.3    33  VAL33       0.0276
     22  CG1      -39.8070  -36.9090    5.2280 C.3    33  VAL33       0.0022
     23  CG2      -39.5100  -37.2770    2.7550 C.3    33  VAL33       0.0022
     24  N        -36.0190  -43.6070   17.7470 N.3   112  GLN112     -0.1245
     25  CA       -37.4340  -43.9730   17.7930 C.3   112  GLN112      0.1566
     26  C        -37.6590  -45.4270   17.3560 C.2   112  GLN112      0.2260
     27  O        -38.4740  -45.7480   16.4880 O.2   112  GLN112     -0.2867
     28  CB       -38.2680  -42.9650   16.9950 C.3   112  GLN112      0.0367
     29  CG       -38.2970  -41.5590   17.6360 C.3   112  GLN112      0.0905
     30  CD       -38.7940  -41.5600   19.0820 C.2   112  GLN112      0.2608
     31  OE1      -39.9480  -41.8760   19.3500 O.2   112  GLN112     -0.2717
     32  NE2      -37.9100  -41.2180   20.0140 N.am  112  GLN112     -0.0878
     33  N        -34.6620  -26.9310   13.5390 N.3   126  THR126     -0.1203
     34  CA       -35.4600  -27.6970   12.6090 C.3   126  THR126      0.1994
     35  C        -36.8350  -28.0350   13.1880 C.2   126  THR126      0.2618
     36  O        -37.0440  -28.0140   14.4070 O.2   126  THR126     -0.2717
     37  CB       -34.7270  -28.9740   12.1830 C.3   126  THR126      0.1784
     38  OG1      -34.5730  -29.8490   13.3140 O.3   126  THR126     -0.2211
     39  CG2      -33.3430  -28.6300   11.6490 C.3   126  THR126      0.0376
     40  N        -37.7650  -28.3470   12.2940 N.am  127  ILE127     -0.1966
     41  CA       -39.1010  -28.8240   12.6340 C.3   127  ILE127      0.1712
     42  C        -39.3550  -30.1160   11.8490 C.2   127  ILE127      0.2458
     43  O        -38.6160  -30.4250   10.9100 O.2   127  ILE127     -0.2730
     44  CB       -40.1970  -27.7700   12.3310 C.3   127  ILE127      0.0289
     45  CG1      -40.2340  -27.4350   10.8390 C.3   127  ILE127      0.0022
     46  CG2      -39.9630  -26.5260   13.1600 C.3   127  ILE127      0.0023
     47  CD1      -41.4160  -26.5430   10.4460 C.3   127  ILE127      0.0001
     48  N        -40.3830  -30.8850   12.2430 N.am  128  PRO128     -0.2727
     49  CA       -40.4680  -32.2120   11.6010 C.3   128  PRO128      0.1402
     50  C        -40.6960  -32.1500   10.0800 C.2   128  PRO128      0.2269
     51  O        -40.1840  -33.0020    9.3420 O.2   128  PRO128     -0.2865
     52  CB       -41.6620  -32.8510   12.2920 C.3   128  PRO128      0.0296
     53  CG       -41.6400  -32.2380   13.6660 C.3   128  PRO128      0.0237
     54  CD       -41.2190  -30.7970   13.4550 C.3   128  PRO128      0.0939
     55  N        -37.7270  -32.6480    7.2040 N.3   131  CYS131     -0.1235
     56  CA       -37.0030  -33.8500    6.8020 C.3   131  CYS131      0.1677
     57  C        -36.8620  -33.9740    5.2960 C.2   131  CYS131      0.2270
     58  O        -37.7820  -33.6490    4.5360 O.2   131  CYS131     -0.2867
     59  CB       -37.6120  -35.1040    7.4150 C.3   131  CYS131      0.0956
     60  SG       -37.6180  -35.0280    9.2170 S.3   131  CYS131     -0.0801
     61  N        -31.8980  -34.4440    5.8740 N.3   149  HIS149     -0.1241
     62  CA       -32.2990  -34.2840    7.2620 C.3   149  HIS149      0.1621
     63  C        -33.2540  -35.3950    7.7240 C.2   149  HIS149      0.2264
     64  O        -34.2470  -35.6720    7.0510 O.2   149  HIS149     -0.2867
     65  CB       -32.9480  -32.9210    7.4840 C.3   149  HIS149      0.0745
     66  CG       -33.2780  -32.6740    8.9240 C.ar  149  HIS149      0.0817
     67  ND1      -32.3090  -32.5860    9.8950 N.ar  149  HIS149     -0.2268
     68  CD2      -34.4710  -32.5720    9.5520 C.ar  149  HIS149      0.1154
     69  CE1      -32.8930  -32.4190   11.0690 C.ar  149  HIS149      0.1986
     70  NE2      -34.2080  -32.4070   10.8870 N.ar  149  HIS149     -0.2212
     71  N        -33.9290  -34.9070   14.9480 N.3   152  ALA152     -0.1231
     72  CA       -33.3460  -33.9020   15.8370 C.3   152  ALA152      0.1694
     73  C        -33.7160  -34.2400   17.2500 C.2   152  ALA152      0.2593
     74  O        -34.7680  -34.8450   17.4850 O.2   152  ALA152     -0.2718
     75  CB       -33.8660  -32.4930   15.4860 C.3   152  ALA152      0.0304
     76  N        -32.8640  -33.8520   18.1920 N.am  153  THR153     -0.1939
     77  CA       -33.2030  -34.0350   19.5850 C.3   153  THR153      0.2028
     78  C        -34.3190  -33.1010   19.9950 C.2   153  THR153      0.2642
     79  O        -34.5520  -32.0750   19.3650 O.2   153  THR153     -0.2714
     80  CB       -31.9910  -33.8700   20.5110 C.3   153  THR153      0.1808
     81  OG1      -31.3630  -32.6020   20.2730 O.3   153  THR153     -0.2208
     82  CG2      -30.9970  -34.9900   20.2730 C.3   153  THR153      0.0379
     83  N        -35.0220  -33.4650   21.0550 N.am  154  LYS154     -0.1977
     84  CA       -36.1370  -32.6590   21.5200 C.3   154  LYS154      0.1596
     85  C        -35.6980  -31.2530   21.9720 C.2   154  LYS154      0.2287
     86  O        -36.4110  -30.2850   21.7420 O.2   154  LYS154     -0.2864
     87  CB       -36.9380  -33.4080   22.5860 C.3   154  LYS154      0.0298
     88  CG       -38.2150  -32.7100   23.0110 C.3   154  LYS154      0.0038
     89  CD       -39.0920  -33.6940   23.7880 C.3   154  LYS154      0.0206
     90  CE       -40.2750  -33.0030   24.4630 C.3   154  LYS154      0.1093
     91  NZ       -41.0550  -33.9400   25.3370 N.3   154  LYS154     -0.1314
@<TRIPOS>BOND
     1    20    19    2
     2    19    18    1
     3     1     2    1
     4    23    21    1
     5    21    18    1
     6    21    22    1
     7     2     3    1
     8     2     5    1
     9    18    17    1
    10     3     4    2
    11    58    57    2
    12    17     9   am
    13     5     6    1
    14    57    56    1
    15     7     8    1
    16     9    10    2
    17     9     8    1
    18    61    62    1
    19     8    11    1
    20    56    55    1
    21    56    59    1
    22    64    63    2
    23    62    65    1
    24    62    63    1
    25    59    60    1
    26    65    66    1
    27    11    12    1
    28    12    14   ar
    29    12    13   ar
    30    14    16   ar
    31    13    15   ar
    32    16    15   ar
    33    66    68   ar
    34    66    67   ar
    35    51    50    2
    36    68    70   ar
    37    67    69   ar
    38    50    49    1
    39    47    45    1
    40    45    44    1
    41    70    69   ar
    42    43    42    2
    43    49    48    1
    44    49    52    1
    45    39    37    1
    46    42    48   am
    47    42    41    1
    48    37    34    1
    49    37    38    1
    50    48    54    1
    51    52    53    1
    52    40    41    1
    53    40    35   am
    54    44    41    1
    55    44    46    1
    56    34    35    1
    57    34    33    1
    58    35    36    2
    59    54    53    1
    60    71    72    1
    61    75    72    1
    62    72    73    1
    63    27    26    2
    64    28    29    1
    65    28    25    1
    66    73    74    2
    67    73    76   am
    68    26    25    1
    69    29    30    1
    70    24    25    1
    71    76    77    1
    72    30    31    2
    73    30    32   am
    74    79    78    2
    75    77    78    1
    76    77    80    1
    77    78    83   am
    78    82    80    1
    79    81    80    1
    80    83    84    1
    81    84    85    1
    82    84    87    1
    83    86    85    2
    84    87    88    1
    85    88    89    1
    86    89    90    1
    87    90    91    1
