@<TRIPOS>MOLECULE
tmp/4imrB01.pdb
 128 121 0 0 0
SMALL
GASTEIGER

@<TRIPOS>ATOM
      1  N         -3.5610   48.4130   48.9510 N.3    98  GLN98      -0.1245
      2  CA        -2.6200   48.2510   47.8480 C.3    98  GLN98       0.1566
      3  C         -1.2130   48.1930   48.4120 C.2    98  GLN98       0.2260
      4  O         -0.7320   49.1680   48.9730 O.2    98  GLN98      -0.2867
      5  CB        -2.7440   49.4290   46.8780 C.3    98  GLN98       0.0367
      6  CG        -1.7980   49.3380   45.6830 C.3    98  GLN98       0.0905
      7  CD        -1.8160   50.5950   44.8280 C.2    98  GLN98       0.2608
      8  OE1       -0.7880   51.0230   44.3170 O.2    98  GLN98      -0.2717
      9  NE2       -2.9810   51.1950   44.6850 N.am   98  GLN98      -0.0878
     10  N        -10.1010   49.7370   38.6510 N.3   146  SER146     -0.1202
     11  CA        -8.8140   50.2670   38.2180 C.3   146  SER146      0.2020
     12  C         -8.5220   49.8060   36.8020 C.2   146  SER146      0.2619
     13  O         -8.9300   48.7090   36.3810 O.2   146  SER146     -0.2717
     14  CB        -7.6930   49.7570   39.1410 C.3   146  SER146      0.2103
     15  OG        -6.4220   50.0300   38.5600 O.3   146  SER146     -0.2182
     16  N         -7.7820   50.6170   36.0650 N.am  147  ILE147     -0.1965
     17  CA        -7.2930   50.1770   34.7730 C.3   147  ILE147      0.1727
     18  C         -6.5160   48.8750   34.9230 C.2   147  ILE147      0.2616
     19  O         -6.4610   48.0610   33.9830 O.2   147  ILE147     -0.2715
     20  CB        -6.4370   51.2730   34.0730 C.3   147  ILE147      0.0290
     21  CG1       -5.9500   50.7920   32.7070 C.3   147  ILE147      0.0022
     22  CG2       -5.2640   51.7190   34.9500 C.3   147  ILE147      0.0023
     23  CD1       -7.0620   50.3070   31.7880 C.3   147  ILE147      0.0001
     24  N         -5.9390   48.6480   36.1090 N.am  148  ASN148     -0.1972
     25  CA        -5.1920   47.4090   36.3400 C.3   148  ASN148      0.1688
     26  C         -6.1000   46.1800   36.3810 C.2   148  ASN148      0.2292
     27  O         -5.5980   45.0650   36.2810 O.2   148  ASN148     -0.2864
     28  CB        -4.3100   47.4760   37.6140 C.3   148  ASN148      0.1181
     29  CG        -3.0400   48.2780   37.4070 C.2   148  ASN148      0.2629
     30  OD1       -2.1510   47.8670   36.6620 O.2   148  ASN148     -0.2716
     31  ND2       -2.9500   49.4380   38.0590 N.am  148  ASN148     -0.0877
     32  N         -0.2110   45.8270   35.5910 N.3   153  LYS153     -0.1245
     33  CA         1.2530   45.8810   35.7030 C.3   153  LYS153      0.1561
     34  C          1.7270   45.1260   36.9390 C.2   153  LYS153      0.2260
     35  O          1.0730   45.1610   37.9810 O.2   153  LYS153     -0.2867
     36  CB         1.7380   47.3340   35.7080 C.3   153  LYS153      0.0271
     37  CG         1.4940   48.0090   34.3660 C.3   153  LYS153      0.0035
     38  CD         1.6810   49.5160   34.4610 C.3   153  LYS153      0.0206
     39  CE         1.2860   50.1940   33.1560 C.3   153  LYS153      0.1093
     40  NZ         1.2770   51.6730   33.3440 N.3   153  LYS153     -0.1314
     41  N          1.8960   46.0940   40.7470 N.3   156  VAL156     -0.1245
     42  CA         0.7850   45.8540   41.6830 C.3   156  VAL156      0.1561
     43  C          0.1370   44.4870   41.4340 C.2   156  VAL156      0.2260
     44  O         -1.0910   44.3610   41.3150 O.2   156  VAL156     -0.2867
     45  CB        -0.2510   46.9970   41.6290 C.3   156  VAL156      0.0252
     46  CG1        0.3500   48.2690   42.2330 C.3   156  VAL156      0.0019
     47  CG2       -0.6960   47.2770   40.1940 C.3   156  VAL156      0.0019
     48  N         -2.7620   43.4100   44.0160 N.3   159  TYR159     -0.1241
     49  CA        -3.8620   44.3790   43.9420 C.3   159  TYR159      0.1605
     50  C         -4.6120   44.2880   42.6070 C.2   159  TYR159      0.2264
     51  O         -5.8350   44.2560   42.5890 O.2   159  TYR159     -0.2867
     52  CB        -3.2760   45.7720   44.1290 C.3   159  TYR159      0.0534
     53  CG        -4.1220   46.9580   43.6940 C.ar  159  TYR159     -0.0201
     54  CD1       -4.0220   47.4740   42.4030 C.ar  159  TYR159     -0.0009
     55  CD2       -4.9520   47.6130   44.5970 C.ar  159  TYR159     -0.0009
     56  CE1       -4.7530   48.5950   42.0180 C.ar  159  TYR159      0.0417
     57  CE2       -5.6890   48.7220   44.2210 C.ar  159  TYR159      0.0417
     58  CZ        -5.5810   49.2130   42.9380 C.ar  159  TYR159      0.1957
     59  OH        -6.3030   50.3240   42.5680 O.3   159  TYR159     -0.2866
     60  N        -10.6220   53.9410   37.4720 N.3   189  PRO189     -0.2102
     61  CA        -9.7330   55.0280   37.1200 C.3   189  PRO189      0.1504
     62  C         -8.3740   54.5330   36.6310 C.2   189  PRO189      0.2576
     63  O         -7.9410   53.4360   36.9660 O.2   189  PRO189     -0.2718
     64  CB        -9.5400   55.7830   38.4510 C.3   189  PRO189      0.0282
     65  CG       -10.5980   55.2780   39.3650 C.3   189  PRO189      0.0208
     66  CD       -10.8110   53.8400   38.9320 C.3   189  PRO189      0.0893
     67  N         -7.7260   55.3590   35.8260 N.am  190  GLY190     -0.1943
     68  CA        -6.3000   55.2270   35.5590 C.3   190  GLY190      0.2014
     69  C         -5.5880   56.0230   36.6430 C.2   190  GLY190      0.2638
     70  O         -6.0380   56.0720   37.7940 O.2   190  GLY190     -0.2714
     71  N         -4.4930   56.6780   36.3000 N.am  191  LEU191     -0.1977
     72  CA        -3.7020   57.3540   37.3410 C.3   191  LEU191      0.1596
     73  C         -4.4110   58.6080   37.8340 C.2   191  LEU191      0.2287
     74  O         -4.7800   59.4630   37.0310 O.2   191  LEU191     -0.2864
     75  CB        -2.3180   57.7290   36.8020 C.3   191  LEU191      0.0297
     76  CG        -1.4710   58.5710   37.7680 C.3   191  LEU191      0.0022
     77  CD1       -0.9700   57.7340   38.9520 C.3   191  LEU191      0.0001
     78  CD2       -0.3170   59.1460   36.9570 C.3   191  LEU191      0.0001
     79  N         -1.8100   58.3970   47.8100 N.3   196  ARG196     -0.1231
     80  CA        -1.1610   57.1390   47.4990 C.3   196  ARG196      0.1694
     81  C          0.0820   57.3690   46.6430 C.2   196  ARG196      0.2592
     82  O          0.9610   56.5140   46.5830 O.2   196  ARG196     -0.2718
     83  CB        -2.1510   56.2090   46.7860 C.3   196  ARG196      0.0321
     84  CG        -1.8600   54.7310   46.9640 C.3   196  ARG196      0.0489
     85  CD        -3.0870   53.9030   46.6220 C.3   196  ARG196      0.2205
     86  NE        -4.1710   54.0730   47.5900 N.pl3 196  ARG196     -0.0865
     87  CZ        -5.2190   53.2550   47.6900 C.cat 196  ARG196      0.5346
     88  NH1       -6.1580   53.4820   48.6050 N.pl3 196  ARG196      0.1354
     89  NH2       -5.3280   52.2040   46.8760 N.pl3 196  ARG196      0.1354
     90  N          0.1310   58.4880   45.9280 N.am  197  ASN197     -0.1974
     91  CA         1.2860   58.8620   45.1440 C.3   197  ASN197      0.1688
     92  C          1.8310   60.2720   45.3840 C.2   197  ASN197      0.2292
     93  O          2.5600   60.8030   44.5830 O.2   197  ASN197     -0.2864
     94  CB         1.0770   58.6180   43.6590 C.3   197  ASN197      0.1181
     95  CG        -0.1900   59.2210   43.1240 C.2   197  ASN197      0.2629
     96  OD1       -0.8650   58.6250   42.3170 O.2   197  ASN197     -0.2716
     97  ND2       -0.4940   60.3950   43.5550 N.am  197  ASN197     -0.0877
     98  N          5.8380   59.8680   45.9360 N.3   200  ARG200     -0.1245
     99  CA         6.6510   59.8060   44.7100 C.3   200  ARG200      0.1563
    100  C          6.7460   61.1060   43.9970 C.2   200  ARG200      0.2260
    101  O          7.7700   61.5150   43.5390 O.2   200  ARG200     -0.2867
    102  CB         6.1090   58.7960   43.7310 C.3   200  ARG200      0.0307
    103  CG         5.5360   57.5830   44.3990 C.3   200  ARG200      0.0489
    104  CD         5.2990   56.4830   43.4090 C.3   200  ARG200      0.2205
    105  NE         3.9080   56.0760   43.3810 N.pl3 200  ARG200     -0.0865
    106  CZ         3.4710   54.8620   43.6640 C.cat 200  ARG200      0.5346
    107  NH1        4.3250   53.9090   43.9840 N.pl3 200  ARG200      0.1354
    108  NH2        2.1660   54.5790   43.5960 N.pl3 200  ARG200      0.1354
    109  N          7.1880   60.1940   33.6160 N.3   211  TYR211     -0.1241
    110  CA         6.3480   59.0170   33.5920 C.3   211  TYR211      0.1605
    111  C          4.9010   59.3660   33.2280 C.2   211  TYR211      0.2264
    112  O          4.3050   58.6690   32.4110 O.2   211  TYR211     -0.2867
    113  CB         6.4660   58.2560   34.9120 C.3   211  TYR211      0.0534
    114  CG         5.2800   57.3960   35.3030 C.ar  211  TYR211     -0.0201
    115  CD1        5.1590   56.0740   34.8640 C.ar  211  TYR211     -0.0009
    116  CD2        4.3040   57.8950   36.1580 C.ar  211  TYR211     -0.0009
    117  CE1        4.0800   55.2880   35.2560 C.ar  211  TYR211      0.0417
    118  CE2        3.2280   57.1260   36.5570 C.ar  211  TYR211      0.0417
    119  CZ         3.1150   55.8270   36.1090 C.ar  211  TYR211      0.1957
    120  OH         2.0240   55.0950   36.5280 O.3   211  TYR211     -0.2866
    121  N          2.3160   58.2890   30.0090 N.3   215  LEU215     -0.1245
    122  CA         1.4650   57.2230   30.5460 C.3   215  LEU215      0.1561
    123  C          0.1840   57.0630   29.7390 C.2   215  LEU215      0.2260
    124  O         -0.1480   55.9590   29.2950 O.2   215  LEU215     -0.2867
    125  CB         1.0990   57.4770   32.0070 C.3   215  LEU215      0.0270
    126  CG         0.1790   56.4050   32.6310 C.3   215  LEU215      0.0019
    127  CD1        0.7830   54.9980   32.5220 C.3   215  LEU215      0.0001
    128  CD2       -0.1370   56.7250   34.0920 C.3   215  LEU215      0.0001
@<TRIPOS>BOND
     1   124   123    2
     2   123   122    1
     3   121   122    1
     4   122   125    1
     5    23    21    1
     6   125   126    1
     7   112   111    2
     8   127   126    1
     9   126   128    1
    10    21    20    1
    11    39    40    1
    12    39    38    1
    13   111   110    1
    14   110   109    1
    15   110   113    1
    16    19    18    2
    17    20    17    1
    18    20    22    1
    19    37    38    1
    20    37    36    1
    21    17    18    1
    22    17    16    1
    23   115   117   ar
    24   115   114   ar
    25   113   114    1
    26    18    24   am
    27   117   119   ar
    28   114   116   ar
    29    68    67    1
    30    68    69    1
    31    32    33    1
    32    33    36    1
    33    33    34    1
    34    67    62   am
    35    16    12   am
    36    24    25    1
    37   119   120    1
    38   119   118   ar
    39   116   118   ar
    40    27    26    2
    41    71    69   am
    42    71    72    1
    43    25    26    1
    44    25    28    1
    45    13    12    2
    46    62    63    2
    47    62    61    1
    48    69    70    2
    49    30    29    2
    50    12    11    1
    51    75    72    1
    52    75    76    1
    53    34    35    2
    54    78    76    1
    55    74    73    2
    56    61    60    1
    57    61    64    1
    58    72    73    1
    59    29    28    1
    60    29    31   am
    61    60    66    1
    62    76    77    1
    63    11    10    1
    64    11    14    1
    65    64    65    1
    66    15    14    1
    67    66    65    1
    68    47    45    1
    69    41    42    1
    70    44    43    2
    71    43    42    1
    72    45    42    1
    73    45    46    1
    74    56    54   ar
    75    56    58   ar
    76    96    95    2
    77    54    53   ar
    78    59    58    1
    79    51    50    2
    80    50    49    1
    81    58    57   ar
    82    95    97   am
    83    95    94    1
    84   105   104    1
    85   105   106    2
    86   104   103    1
    87   101   100    2
    88   108   106    1
    89    94    91    1
    90   106   107    1
    91    53    52    1
    92    53    55   ar
    93   102   103    1
    94   102    99    1
    95    49    48    1
    96    49    52    1
    97   100    99    1
    98    57    55   ar
    99     8     7    2
   100    93    92    2
   101     9     7   am
   102    99    98    1
   103     7     6    1
   104    91    92    1
   105    91    90    1
   106     6     5    1
   107    90    81   am
   108    82    81    2
   109    85    84    1
   110    85    86    1
   111    81    80    1
   112    83    84    1
   113    83    80    1
   114    89    87    1
   115     5     2    1
   116    80    79    1
   117    86    87    2
   118    87    88    1
   119     2     3    1
   120     2     1    1
   121     3     4    2
