@<TRIPOS>MOLECULE
tmp/4imsA01.pdb
 181 175 0 0 0
SMALL
GASTEIGER

@<TRIPOS>ATOM
      1  N          3.1770    9.1820   34.5500 N.3    38  MET38      -0.1245
      2  CA         3.5900    8.8580   33.1690 C.3    38  MET38       0.1570
      3  C          3.4890   10.0200   32.1530 C.2    38  MET38       0.2261
      4  O          4.3560   10.1350   31.2850 O.2    38  MET38      -0.2867
      5  CB         2.8270    7.6310   32.6250 C.3    38  MET38       0.0387
      6  CG         3.6260    6.3190   32.5900 C.3    38  MET38       0.0595
      7  SD         3.2850    5.0980   31.2640 S.3    38  MET38      -0.1393
      8  CE         3.6800    6.0090   29.7700 C.3    38  MET38       0.0692
      9  N         15.5900    7.4520   28.7350 N.3   106  CYS106     -0.1235
     10  CA        16.3060    6.4710   27.9240 C.3   106  CYS106      0.1677
     11  C         17.6460    6.1110   28.5310 C.2   106  CYS106      0.2270
     12  O         18.5790    6.9280   28.5490 O.2   106  CYS106     -0.2867
     13  CB        16.5150    6.9530   26.4660 C.3   106  CYS106      0.0956
     14  SG        17.3120    5.7300   25.3860 S.3   106  CYS106     -0.0801
     15  N          1.6590    2.2870   17.5400 N.3   168  SER168     -0.1202
     16  CA         2.5470    2.8300   18.5710 C.3   168  SER168      0.2020
     17  C          3.9890    2.3170   18.4150 C.2   168  SER168      0.2618
     18  O          4.9250    3.0590   18.6780 O.2   168  SER168     -0.2717
     19  CB         1.9770    2.5900   19.9670 C.3   168  SER168      0.2103
     20  OG         1.8510    1.2160   20.1810 O.3   168  SER168     -0.2182
     21  N          4.1740    1.0990   17.8970 N.am  169  GLN169     -0.1979
     22  CA         5.5260    0.6300   17.4490 C.3   169  GLN169      0.1601
     23  C          5.3980    0.0840   16.0160 C.2   169  GLN169      0.2287
     24  O          4.2950   -0.3150   15.6210 O.2   169  GLN169     -0.2864
     25  CB         6.1130   -0.4600   18.3530 C.3   169  GLN169      0.0394
     26  CG         6.3550   -0.0540   19.8130 C.3   169  GLN169      0.0908
     27  CD         6.8970   -1.2060   20.6490 C.2   169  GLN169      0.2608
     28  OE1        7.6170   -2.0870   20.1460 O.2   169  GLN169     -0.2717
     29  NE2        6.5400   -1.2220   21.9250 N.am  169  GLN169     -0.0878
     30  N          4.4180   -4.7630   16.3780 N.3   172  ARG172     -0.1245
     31  CA         3.7010   -5.2430   17.5640 C.3   172  ARG172      0.1563
     32  C          2.6590   -6.3430   17.2090 C.2   172  ARG172      0.2260
     33  O          2.1870   -6.4280   16.0910 O.2   172  ARG172     -0.2867
     34  CB         2.9830   -4.1050   18.2770 C.3   172  ARG172      0.0307
     35  CG         3.7490   -3.4540   19.4140 C.3   172  ARG172      0.0489
     36  CD         2.8450   -2.5100   20.1830 C.3   172  ARG172      0.2205
     37  NE         3.0830   -2.6960   21.5980 N.pl3 172  ARG172     -0.0865
     38  CZ         2.4670   -2.0390   22.5760 C.cat 172  ARG172      0.5346
     39  NH1        1.5370   -1.1160   22.3210 N.pl3 172  ARG172      0.1354
     40  NH2        2.8020   -2.3130   23.8240 N.pl3 172  ARG172      0.1354
     41  N         -2.2840   -5.1920   25.3190 N.3   188  ALA188     -0.1245
     42  CA        -1.9860   -3.7720   25.1010 C.3   188  ALA188      0.1562
     43  C         -2.5260   -3.2250   23.7710 C.2   188  ALA188      0.2260
     44  O         -2.7470   -2.0350   23.6560 O.2   188  ALA188     -0.2867
     45  CB        -0.4880   -3.5200   25.1790 C.3   188  ALA188      0.0290
     46  N         12.8950   -3.0300   18.4170 N.3   256  PRO256     -0.2116
     47  CA        11.9250   -2.1710   19.1180 C.3   256  PRO256      0.1372
     48  C         11.8840   -0.8270   18.4230 C.2   256  PRO256      0.2244
     49  O         12.9220   -0.2030   18.2840 O.2   256  PRO256     -0.2868
     50  CB        12.5320   -2.0280   20.5240 C.3   256  PRO256      0.0268
     51  CG        14.0380   -2.2130   20.3420 C.3   256  PRO256      0.0207
     52  CD        14.2400   -2.9820   19.0290 C.3   256  PRO256      0.0892
     53  N          9.7440    2.7630   18.1960 N.3   258  VAL258     -0.1245
     54  CA         8.6750    3.6040   18.6930 C.3   258  VAL258      0.1561
     55  C          8.2010    4.4860   17.5640 C.2   258  VAL258      0.2260
     56  O          9.0140    5.1930   16.9390 O.2   258  VAL258     -0.2867
     57  CB         9.1510    4.4150   19.9260 C.3   258  VAL258      0.0252
     58  CG1        8.1270    5.4860   20.3220 C.3   258  VAL258      0.0019
     59  CG2        9.3830    3.4260   21.0640 C.3   258  VAL258      0.0019
     60  N         11.4170    5.5860   15.3840 N.3   275  PHE275     -0.1227
     61  CA        12.8200    5.3600   15.6900 C.3   275  PHE275      0.1736
     62  C         12.9990    4.0090   16.3800 C.2   275  PHE275      0.2596
     63  O         12.0940    3.5200   17.0320 O.2   275  PHE275     -0.2718
     64  CB        13.3880    6.5050   16.5410 C.3   275  PHE275      0.0547
     65  CG        12.6290    6.7740   17.8280 C.ar  275  PHE275     -0.0202
     66  CD1       12.9550    6.0990   18.9910 C.ar  275  PHE275     -0.0042
     67  CD2       11.6350    7.7650   17.8840 C.ar  275  PHE275     -0.0042
     68  CE1       12.3220    6.4010   20.1960 C.ar  275  PHE275     -0.0003
     69  CE2       10.9690    8.0520   19.0710 C.ar  275  PHE275     -0.0003
     70  CZ        11.3270    7.3720   20.2440 C.ar  275  PHE275     -0.0000
     71  N         14.1710    3.4160   16.2440 N.am  276  SER276     -0.1938
     72  CA        14.3610    2.0640   16.7400 C.3   276  SER276      0.2055
     73  C         15.7610    1.9760   17.2710 C.2   276  SER276      0.2644
     74  O         16.6320    2.6980   16.7950 O.2   276  SER276     -0.2714
     75  CB        14.1840    1.0640   15.6070 C.3   276  SER276      0.2130
     76  OG        15.1150    1.3120   14.5640 O.3   276  SER276     -0.2179
     77  N         15.9850    1.0970   18.2570 N.am  277  GLY277     -0.1939
     78  CA        17.3440    0.7690   18.6790 C.3   277  GLY277      0.2014
     79  C         17.4490   -0.7380   18.7640 C.2   277  GLY277      0.2639
     80  O         17.2940   -1.4380   17.7650 O.2   277  GLY277     -0.2714
     81  N         17.7140   -1.2240   19.9720 N.am  278  TRP278     -0.1959
     82  CA        17.6460   -2.6420   20.2880 C.3   278  TRP278      0.1771
     83  C         17.2150   -2.8120   21.7330 C.2   278  TRP278      0.2620
     84  O         17.3630   -1.9010   22.5710 O.2   278  TRP278     -0.2715
     85  CB        18.9920   -3.3420   19.9950 C.3   278  TRP278      0.0590
     86  CG        20.1600   -2.7220   20.7100 C.ar  278  TRP278      0.0006
     87  CD1       20.5000   -2.8610   22.0660 C.ar  278  TRP278      0.0946
     88  CD2       21.1870   -1.8250   20.1510 C.ar  278  TRP278      0.0152
     89  NE1       21.6150   -2.1370   22.3650 N.ar  278  TRP278     -0.2442
     90  CE2       22.0860   -1.4900   21.2700 C.ar  278  TRP278      0.0810
     91  CE3       21.4350   -1.2660   18.8830 C.ar  278  TRP278      0.0012
     92  CZ2       23.2020   -0.6510   21.1000 C.ar  278  TRP278      0.0191
     93  CZ3       22.5650   -0.4210   18.7200 C.ar  278  TRP278      0.0001
     94  CH2       23.4240   -0.1270   19.7930 C.ar  278  TRP278      0.0015
     95  N         16.7050   -3.9910   22.0380 N.am  279  TYR279     -0.1960
     96  CA        16.0870   -4.2780   23.3360 C.3   279  TYR279      0.1771
     97  C         17.0880   -4.4140   24.4680 C.2   279  TYR279      0.2619
     98  O         18.2180   -4.8720   24.2620 O.2   279  TYR279     -0.2715
     99  CB        15.3060   -5.5710   23.2190 C.3   279  TYR279      0.0574
    100  CG        13.8580   -5.4030   22.8230 C.ar  279  TYR279     -0.0198
    101  CD1       13.3520   -5.9860   21.6520 C.ar  279  TYR279     -0.0009
    102  CD2       12.9770   -4.6960   23.6370 C.ar  279  TYR279     -0.0009
    103  CE1       11.9960   -5.8640   21.3170 C.ar  279  TYR279      0.0417
    104  CE2       11.6340   -4.5670   23.3120 C.ar  279  TYR279      0.0417
    105  CZ        11.1580   -5.1470   22.1540 C.ar  279  TYR279      0.1957
    106  OH         9.8240   -4.9840   21.8630 O.3   279  TYR279     -0.2866
    107  N         16.6870   -3.9450   25.6550 N.am  280  MET280     -0.1977
    108  CA        17.3140   -4.3580   26.9130 C.3   280  MET280      0.1605
    109  C         16.4320   -5.5420   27.3150 C.2   280  MET280      0.2287
    110  O         15.2100   -5.4410   27.1910 O.2   280  MET280     -0.2864
    111  CB        17.2860   -3.2080   27.9370 C.3   280  MET280      0.0413
    112  CG        17.7260   -3.5990   29.3540 C.3   280  MET280      0.0598
    113  SD        18.1060   -2.1790   30.4020 S.3   280  MET280     -0.1393
    114  CE        16.4330   -1.8090   30.9890 C.3   280  MET280      0.0692
    115  N         12.9160   -5.5790   29.0930 N.3   283  GLU283     -0.1245
    116  CA        11.7870   -4.9900   28.3410 C.3   283  GLU283      0.1567
    117  C         10.7970   -6.0670   27.8810 C.2   283  GLU283      0.2260
    118  O          9.5790   -5.8530   27.9340 O.2   283  GLU283     -0.2867
    119  CB        12.2700   -4.1690   27.1280 C.3   283  GLU283      0.0388
    120  CG        12.9040   -2.8320   27.4930 C.3   283  GLU283      0.1160
    121  CD        13.3370   -2.0020   26.2620 C.2   283  GLU283      0.3649
    122  OE1       12.5730   -1.0950   25.8380 O.co2 283  GLU283     -0.2457
    123  OE2       14.4400   -2.2370   25.7240 O.co2 283  GLU283     -0.2457
    124  N          8.4830   -6.7930   31.3610 N.3   287  ARG287     -0.1231
    125  CA         7.2800   -6.0260   30.9540 C.3   287  ARG287      0.1694
    126  C          6.3190   -6.8040   30.0310 C.2   287  ARG287      0.2592
    127  O          5.1520   -7.0320   30.3700 O.2   287  ARG287     -0.2718
    128  CB         7.6380   -4.6640   30.3140 C.3   287  ARG287      0.0321
    129  CG         6.4200   -3.8910   29.7920 C.3   287  ARG287      0.0489
    130  CD         6.7170   -2.4730   29.3060 C.3   287  ARG287      0.2205
    131  NE         7.5720   -2.4010   28.1020 N.pl3 287  ARG287     -0.0865
    132  CZ         8.8730   -2.0580   28.0920 C.cat 287  ARG287      0.5346
    133  NH1        9.5230   -1.7640   29.2370 N.pl3 287  ARG287      0.1354
    134  NH2        9.5330   -1.9910   26.9220 N.pl3 287  ARG287      0.1354
    135  N          6.8070   -7.1630   28.8490 N.am  288  ASP288     -0.1974
    136  CA         5.9410   -7.7800   27.8390 C.3   288  ASP288      0.1709
    137  C          5.4020   -9.1470   28.2880 C.2   288  ASP288      0.2293
    138  O          4.2230   -9.4730   28.0520 O.2   288  ASP288     -0.2864
    139  CB         6.6560   -7.8260   26.4800 C.3   288  ASP288      0.1436
    140  CG         7.0740   -6.4360   26.0060 C.2   288  ASP288      0.3671
    141  OD1        6.4260   -5.4420   26.4000 O.co2 288  ASP288     -0.2456
    142  OD2        8.0720   -6.3180   25.2740 O.co2 288  ASP288     -0.2456
    143  N         -0.2150   -7.6340   30.3170 N.3   294  ARG294     -0.1245
    144  CA         0.4090   -8.0400   29.0570 C.3   294  ARG294      0.1563
    145  C          0.2480   -9.5530   28.8470 C.2   294  ARG294      0.2260
    146  O         -0.8890  -10.0590   28.9640 O.2   294  ARG294     -0.2867
    147  CB         1.8540   -7.5320   28.9810 C.3   294  ARG294      0.0307
    148  CG         1.9330   -6.0150   29.0970 C.3   294  ARG294      0.0489
    149  CD         1.2570   -5.3130   27.9240 C.3   294  ARG294      0.2205
    150  NE         1.9480   -5.6050   26.6710 N.pl3 294  ARG294     -0.0865
    151  CZ         3.1820   -5.1670   26.3900 C.cat 294  ARG294      0.5346
    152  NH1        3.8430   -4.4000   27.2610 N.pl3 294  ARG294      0.1354
    153  NH2        3.7600   -5.4800   25.2430 N.pl3 294  ARG294      0.1354
    154  N         12.8390    6.9520   37.7360 N.3   368  VAL368     -0.1231
    155  CA        11.7190    6.0210   37.6760 C.3   368  VAL368      0.1692
    156  C         11.7710    5.1040   36.4590 C.2   368  VAL368      0.2592
    157  O         11.3510    3.9400   36.5160 O.2   368  VAL368     -0.2718
    158  CB        10.3640    6.8250   37.6880 C.3   368  VAL368      0.0266
    159  CG1        9.1610    5.9250   37.3980 C.3   368  VAL368      0.0020
    160  CG2       10.1670    7.5590   39.0180 C.3   368  VAL368      0.0020
    161  N         12.2550    5.6440   35.3410 N.am  369  TRP369     -0.1976
    162  CA        12.3500    4.9040   34.0940 C.3   369  TRP369      0.1640
    163  C         13.6950    4.2720   33.8600 C.2   369  TRP369      0.2290
    164  O         13.7660    3.2110   33.2240 O.2   369  TRP369     -0.2864
    165  CB        12.0460    5.8300   32.9280 C.3   369  TRP369      0.0576
    166  CG        10.5740    6.0410   32.7510 C.ar  369  TRP369      0.0006
    167  CD1        9.6670    6.6390   33.6540 C.ar  369  TRP369      0.0946
    168  CD2        9.7740    5.6730   31.5820 C.ar  369  TRP369      0.0152
    169  NE1        8.3970    6.6500   33.1250 N.ar  369  TRP369     -0.2442
    170  CE2        8.3910    6.0930   31.8790 C.ar  369  TRP369      0.0810
    171  CE3       10.0500    5.0730   30.3720 C.ar  369  TRP369      0.0012
    172  CZ2        7.3640    5.9120   30.9740 C.ar  369  TRP369      0.0191
    173  CZ3        8.9980    4.8830   29.4660 C.ar  369  TRP369      0.0001
    174  CH2        7.6830    5.2850   29.7680 C.ar  369  TRP369      0.0015
    175  N         15.9890    3.0930   36.1720 N.3   371  VAL371     -0.1245
    176  CA        16.2020    1.9100   37.0050 C.3   371  VAL371      0.1561
    177  C         15.3890    0.7410   36.4350 C.2   371  VAL371      0.2260
    178  O         14.1810    0.8440   36.2970 O.2   371  VAL371     -0.2867
    179  CB        15.8340    2.2020   38.4790 C.3   371  VAL371      0.0252
    180  CG1       15.9760    0.9690   39.3720 C.3   371  VAL371      0.0019
    181  CG2       16.7210    3.3220   39.0360 C.3   371  VAL371      0.0019
@<TRIPOS>BOND
     1    76    75    1
     2    60    61    1
     3    75    72    1
     4    24    23    2
     5    61    62    1
     6    61    64    1
     7    23    22    1
     8    33    32    2
     9    71    62   am
    10    71    72    1
    11    30    31    1
    12    62    63    2
    13    64    65    1
    14    72    73    1
    15    74    73    2
    16    56    55    2
    17    32    31    1
    18    73    77   am
    19    22    21    1
    20    22    25    1
    21    15    16    1
    22    55    54    1
    23    31    34    1
    24    80    79    2
    25    65    67   ar
    26    65    66   ar
    27    67    69   ar
    28    21    17   am
    29    53    54    1
    30    77    78    1
    31    34    35    1
    32    49    48    2
    33    25    26    1
    34    17    16    1
    35    17    18    2
    36    46    52    1
    37    46    47    1
    38    48    47    1
    39    16    19    1
    40    78    79    1
    41    54    57    1
    42    93    91   ar
    43    93    94   ar
    44    79    81   am
    45    91    88   ar
    46    66    68   ar
    47    52    51    1
    48    69    70   ar
    49    47    50    1
    50    35    36    1
    51    94    92   ar
    52    26    27    1
    53    57    58    1
    54    57    59    1
    55    19    20    1
    56    81    82    1
    57    85    82    1
    58    85    86    1
    59    28    27    2
    60    88    86   ar
    61    88    90   ar
    62    36    37    1
    63    68    70   ar
    64    82    83    1
    65    51    50    1
    66    27    29   am
    67    86    87   ar
    68    92    90   ar
    69    90    89   ar
    70   103   101   ar
    71   103   105   ar
    72    37    38    2
    73   101   100   ar
    74    83    95   am
    75    83    84    2
    76   106   105    1
    77    95    96    1
    78    87    89   ar
    79   105   104   ar
    80    39    38    1
    81    38    40    1
    82   100    99    1
    83   100   102   ar
    84    99    96    1
    85   104   102   ar
    86    96    97    1
    87    44    43    2
    88    43    42    1
    89    98    97    2
    90    97   107   am
    91    42    45    1
    92    42    41    1
    93   153   151    1
    94   142   140   ar
    95    14    13    1
    96   107   108    1
    97   123   121   ar
    98   122   121   ar
    99   140   141   ar
   100   140   139    1
   101   121   120    1
   102   151   150    2
   103   151   152    1
   104    13    10    1
   105   139   136    1
   106   150   149    1
   107   108   109    1
   108   108   111    1
   109   134   132    1
   110   119   120    1
   111   119   116    1
   112   110   109    2
   113   136   137    1
   114   136   135    1
   115   117   118    2
   116   117   116    1
   117   149   148    1
   118    10    11    1
   119    10     9    1
   120   111   112    1
   121   138   137    2
   122   132   131    2
   123   132   133    1
   124   131   130    1
   125   116   115    1
   126    11    12    2
   127   145   146    2
   128   145   144    1
   129   135   126   am
   130   147   144    1
   131   147   148    1
   132   144   143    1
   133   130   129    1
   134   112   113    1
   135   173   174   ar
   136   173   171   ar
   137   174   172   ar
   138     8     7    1
   139   129   128    1
   140   126   127    2
   141   126   125    1
   142   128   125    1
   143   171   168   ar
   144   113   114    1
   145   125   124    1
   146   172   170   ar
   147     7     6    1
   148     4     3    2
   149   168   170   ar
   150   168   166   ar
   151   170   169   ar
   152     3     2    1
   153     6     5    1
   154     5     2    1
   155   166   165    1
   156   166   167   ar
   157   165   162    1
   158   169   167   ar
   159     2     1    1
   160   164   163    2
   161   163   162    1
   162   162   161    1
   163   161   156   am
   164   175   176    1
   165   178   177    2
   166   177   176    1
   167   156   157    2
   168   156   155    1
   169   176   179    1
   170   159   158    1
   171   155   158    1
   172   155   154    1
   173   158   160    1
   174   179   181    1
   175   179   180    1
