@<TRIPOS>MOLECULE
tmp/4imtA02.pdb
 207 202 0 0 0
SMALL
GASTEIGER

@<TRIPOS>ATOM
      1  N          2.8150    8.8710   34.4690 N.3    38  MET38      -0.1230
      2  CA         3.1800    8.5400   33.0940 C.3    38  MET38       0.1702
      3  C          3.0860    9.6950   32.0950 C.2    38  MET38       0.2592
      4  O          3.9780    9.8230   31.2480 O.2    38  MET38      -0.2718
      5  CB         2.3240    7.3670   32.5980 C.3    38  MET38       0.0401
      6  CG         2.8400    6.0160   33.0900 C.3    38  MET38       0.0596
      7  SD         3.1520    4.8680   31.7390 S.3    38  MET38      -0.1393
      8  CE         3.8410    5.9720   30.5110 C.3    38  MET38       0.0692
      9  N          2.0160   10.4980   32.2050 N.am   39  LEU39      -0.1980
     10  CA         1.7060   11.6150   31.3030 C.3    39  LEU39       0.1596
     11  C          1.2680   12.8800   32.0780 C.2    39  LEU39       0.2287
     12  O          0.0800   13.0920   32.2690 O.2    39  LEU39      -0.2864
     13  CB         0.5360   11.2130   30.3920 C.3    39  LEU39       0.0297
     14  CG         0.6110    9.9310   29.5520 C.3    39  LEU39       0.0022
     15  CD1       -0.7770    9.4790   29.1200 C.3    39  LEU39       0.0001
     16  CD2        1.5200   10.1330   28.3460 C.3    39  LEU39       0.0001
     17  N         14.1200    9.4290   29.8650 N.3   105  ARG105     -0.1245
     18  CA        13.7260    8.0870   30.1610 C.3   105  ARG105      0.1563
     19  C         14.5030    7.0120   29.4520 C.2   105  ARG105      0.2260
     20  O         14.2660    5.8370   29.7100 O.2   105  ARG105     -0.2867
     21  CB        12.2510    7.9430   29.8450 C.3   105  ARG105      0.0307
     22  CG        11.4330    8.7770   30.7810 C.3   105  ARG105      0.0489
     23  CD         9.9970    8.7210   30.3770 C.3   105  ARG105      0.2205
     24  NE         9.1340    9.2090   31.4290 N.pl3 105  ARG105     -0.0865
     25  CZ         7.8790    9.5800   31.2280 C.cat 105  ARG105      0.5346
     26  NH1        7.3680    9.5510   30.0060 N.pl3 105  ARG105      0.1354
     27  NH2        7.1440   10.0220   32.2420 N.pl3 105  ARG105      0.1354
     28  N          4.4100    0.7890   18.1300 N.3   169  GLN169     -0.1245
     29  CA         5.6930    0.3370   17.5660 C.3   169  GLN169      0.1566
     30  C          5.4920   -0.2010   16.1300 C.2   169  GLN169      0.2260
     31  O          4.3980   -0.6490   15.7770 O.2   169  GLN169     -0.2867
     32  CB         6.3400   -0.7400   18.4380 C.3   169  GLN169      0.0367
     33  CG         6.4960   -0.3960   19.9110 C.3   169  GLN169      0.0905
     34  CD         7.0120   -1.5880   20.7110 C.2   169  GLN169      0.2608
     35  OE1        7.8330   -2.3940   20.2100 O.2   169  GLN169     -0.2717
     36  NE2        6.5140   -1.7370   21.9440 N.am  169  GLN169     -0.0878
     37  N          4.6060   -5.1560   16.4220 N.3   172  ARG172     -0.1245
     38  CA         3.8880   -5.6350   17.6270 C.3   172  ARG172      0.1563
     39  C          2.9560   -6.8140   17.2720 C.2   172  ARG172      0.2260
     40  O          2.4060   -6.8670   16.1660 O.2   172  ARG172     -0.2867
     41  CB         2.9870   -4.5620   18.2550 C.3   172  ARG172      0.0307
     42  CG         3.6620   -3.3750   18.8910 C.3   172  ARG172      0.0489
     43  CD         3.0120   -2.9760   20.2210 C.3   172  ARG172      0.2205
     44  NE         3.8380   -3.3400   21.3780 N.pl3 172  ARG172     -0.0865
     45  CZ         3.5350   -3.0440   22.6390 C.cat 172  ARG172      0.5346
     46  NH1        2.3980   -2.4020   22.9270 N.pl3 172  ARG172      0.1354
     47  NH2        4.3690   -3.4100   23.6230 N.pl3 172  ARG172      0.1354
     48  N         -2.3260   -5.6360   25.1790 N.3   188  ALA188     -0.1245
     49  CA        -2.1020   -4.1670   25.0610 C.3   188  ALA188      0.1562
     50  C         -2.4040   -3.5780   23.6760 C.2   188  ALA188      0.2260
     51  O         -2.3100   -2.3680   23.4980 O.2   188  ALA188     -0.2867
     52  CB        -0.6770   -3.8070   25.4710 C.3   188  ALA188      0.0290
     53  N         12.9790   -3.1080   18.4990 N.3   256  PRO256     -0.2102
     54  CA        12.0950   -2.2020   19.1730 C.3   256  PRO256      0.1504
     55  C         12.0360   -0.8990   18.3890 C.2   256  PRO256      0.2576
     56  O         13.0670   -0.3240   18.1430 O.2   256  PRO256     -0.2718
     57  CB        12.7600   -2.0240   20.5450 C.3   256  PRO256      0.0282
     58  CG        14.2100   -2.3400   20.3670 C.3   256  PRO256      0.0208
     59  CD        14.3480   -3.0610   19.0460 C.3   256  PRO256      0.0893
     60  N         10.8440   -0.4420   18.0070 N.am  257  ALA257     -0.1966
     61  CA        10.7150    0.6660   17.0640 C.3   257  ALA257      0.1728
     62  C          9.4860    1.5140   17.3840 C.2   257  ALA257      0.2616
     63  O          8.3480    1.2150   16.9550 O.2   257  ALA257     -0.2715
     64  CB        10.6380    0.1260   15.6560 C.3   257  ALA257      0.0334
     65  N          9.7290    2.5950   18.1090 N.am  258  VAL258     -0.1977
     66  CA         8.6850    3.4060   18.6600 C.3   258  VAL258      0.1596
     67  C          8.1800    4.2680   17.5630 C.2   258  VAL258      0.2287
     68  O          8.9680    4.9600   16.9140 O.2   258  VAL258     -0.2864
     69  CB         9.2240    4.2500   19.8380 C.3   258  VAL258      0.0276
     70  CG1        8.2480    5.3780   20.2080 C.3   258  VAL258      0.0022
     71  CG2        9.5140    3.3260   21.0200 C.3   258  VAL258      0.0022
     72  N          4.9070    6.0710   17.5780 N.3   260  ASN260     -0.1225
     73  CA         3.8010    6.9520   17.9280 C.3   260  ASN260      0.1785
     74  C          4.1790    8.2850   18.5230 C.2   260  ASN260      0.2597
     75  O          3.2890    9.0680   18.8540 O.2   260  ASN260     -0.2718
     76  CB         2.7520    6.2620   18.8130 C.3   260  ASN260      0.1169
     77  CG         3.2740    5.8100   20.1680 C.2   260  ASN260      0.2627
     78  OD1        2.4950    5.2770   20.9580 O.2   260  ASN260     -0.2716
     79  ND2        4.5570    5.9700   20.4390 N.am  260  ASN260     -0.0877
     80  N          5.4710    8.6000   18.5880 N.am  261  MET261     -0.1979
     81  CA         5.8350    9.8260   19.2460 C.3   261  MET261      0.1605
     82  C          5.9720   10.9750   18.2780 C.2   261  MET261      0.2287
     83  O          5.9220   10.7940   17.0390 O.2   261  MET261     -0.2864
     84  CB         7.0900    9.6000   20.0710 C.3   261  MET261      0.0413
     85  CG         6.7720    8.6980   21.2600 C.3   261  MET261      0.0598
     86  SD         8.1330    8.6220   22.4230 S.3   261  MET261     -0.1393
     87  CE         7.7800   10.0030   23.5140 C.3   261  MET261      0.0692
     88  N         11.4430    5.4790   15.2920 N.3   275  PHE275     -0.1227
     89  CA        12.8170    5.2220   15.6420 C.3   275  PHE275      0.1736
     90  C         12.9880    3.9060   16.3470 C.2   275  PHE275      0.2596
     91  O         12.0390    3.3780   16.9500 O.2   275  PHE275     -0.2718
     92  CB        13.3670    6.3410   16.4850 C.3   275  PHE275      0.0547
     93  CG        12.5960    6.6140   17.7420 C.ar  275  PHE275     -0.0202
     94  CD1       12.9950    6.0660   18.9330 C.ar  275  PHE275     -0.0042
     95  CD2       11.5170    7.4740   17.7350 C.ar  275  PHE275     -0.0042
     96  CE1       12.3290    6.3590   20.1160 C.ar  275  PHE275     -0.0003
     97  CE2       10.8240    7.7580   18.8900 C.ar  275  PHE275     -0.0003
     98  CZ        11.2470    7.2130   20.0910 C.ar  275  PHE275     -0.0000
     99  N         14.2150    3.3990   16.2620 N.am  276  SER276     -0.1938
    100  CA        14.5410    2.0940   16.7090 C.3   276  SER276      0.2055
    101  C         15.9730    2.0010   17.1840 C.2   276  SER276      0.2644
    102  O         16.8760    2.7410   16.7300 O.2   276  SER276     -0.2714
    103  CB        14.3110    1.0870   15.5760 C.3   276  SER276      0.2130
    104  OG        15.1750    1.2330   14.4410 O.3   276  SER276     -0.2179
    105  N         16.1810    1.0720   18.1090 N.am  277  GLY277     -0.1939
    106  CA        17.5220    0.6920   18.5400 C.3   277  GLY277      0.2014
    107  C         17.5520   -0.8110   18.7230 C.2   277  GLY277      0.2639
    108  O         17.3670   -1.5640   17.7960 O.2   277  GLY277     -0.2714
    109  N         17.7590   -1.2270   19.9580 N.am  278  TRP278     -0.1959
    110  CA        17.7540   -2.6140   20.3010 C.3   278  TRP278      0.1771
    111  C         17.4100   -2.7650   21.7560 C.2   278  TRP278      0.2620
    112  O         17.5580   -1.8390   22.5730 O.2   278  TRP278     -0.2715
    113  CB        19.0960   -3.2570   19.9810 C.3   278  TRP278      0.0590
    114  CG        20.2340   -2.6230   20.7160 C.ar  278  TRP278      0.0006
    115  CD1       20.5590   -2.7680   22.0650 C.ar  278  TRP278      0.0946
    116  CD2       21.2420   -1.7360   20.1720 C.ar  278  TRP278      0.0152
    117  NE1       21.6600   -2.0560   22.3720 N.ar  278  TRP278     -0.2442
    118  CE2       22.1240   -1.3980   21.2870 C.ar  278  TRP278      0.0810
    119  CE3       21.4980   -1.2030   18.9260 C.ar  278  TRP278      0.0012
    120  CZ2       23.2170   -0.5570   21.1260 C.ar  278  TRP278      0.0191
    121  CZ3       22.6090   -0.3750   18.7730 C.ar  278  TRP278      0.0001
    122  CH2       23.4410   -0.0620   19.8380 C.ar  278  TRP278      0.0015
    123  N         16.9670   -3.9700   22.0790 N.am  279  TYR279     -0.1960
    124  CA        16.2960   -4.2470   23.3460 C.3   279  TYR279      0.1771
    125  C         17.2410   -4.3720   24.5070 C.2   279  TYR279      0.2619
    126  O         18.3950   -4.8010   24.3540 O.2   279  TYR279     -0.2715
    127  CB        15.5080   -5.5410   23.2130 C.3   279  TYR279      0.0574
    128  CG        14.0420   -5.3620   22.8510 C.ar  279  TYR279     -0.0198
    129  CD1       13.4940   -5.9620   21.7240 C.ar  279  TYR279     -0.0009
    130  CD2       13.1960   -4.6480   23.6640 C.ar  279  TYR279     -0.0009
    131  CE1       12.1470   -5.8500   21.4300 C.ar  279  TYR279      0.0417
    132  CE2       11.8470   -4.5440   23.3810 C.ar  279  TYR279      0.0417
    133  CZ        11.3250   -5.1530   22.2610 C.ar  279  TYR279      0.1957
    134  OH         9.9570   -5.0380   22.0030 O.3   279  TYR279     -0.2866
    135  N         16.7490   -3.9690   25.6790 N.am  280  MET280     -0.1977
    136  CA        17.3580   -4.3420   26.9350 C.3   280  MET280      0.1605
    137  C         16.5040   -5.5400   27.3510 C.2   280  MET280      0.2287
    138  O         15.2790   -5.5030   27.2260 O.2   280  MET280     -0.2864
    139  CB        17.2990   -3.1730   27.9320 C.3   280  MET280      0.0413
    140  CG        17.8910   -3.5070   29.3150 C.3   280  MET280      0.0598
    141  SD        18.0730   -2.1060   30.4400 S.3   280  MET280     -0.1393
    142  CE        16.3790   -2.0400   31.0450 C.3   280  MET280      0.0692
    143  N         12.8500   -5.6310   29.0390 N.3   283  GLU283     -0.1245
    144  CA        11.6630   -5.0600   28.4060 C.3   283  GLU283      0.1567
    145  C         10.7880   -6.1540   27.9070 C.2   283  GLU283      0.2260
    146  O          9.5660   -6.0460   27.9640 O.2   283  GLU283     -0.2867
    147  CB        12.0090   -4.1850   27.2200 C.3   283  GLU283      0.0388
    148  CG        12.7230   -2.9040   27.5840 C.3   283  GLU283      0.1160
    149  CD        13.1300   -2.0860   26.3410 C.2   283  GLU283      0.3649
    150  OE1       12.2750   -1.3150   25.8750 O.co2 283  GLU283     -0.2457
    151  OE2       14.2900   -2.1550   25.8590 O.co2 283  GLU283     -0.2457
    152  N          8.6440   -7.1130   31.4990 N.3   287  ARG287     -0.1231
    153  CA         7.4200   -6.3600   31.1660 C.3   287  ARG287      0.1694
    154  C          6.4830   -7.0540   30.1360 C.2   287  ARG287      0.2592
    155  O          5.2880   -7.1890   30.3800 O.2   287  ARG287     -0.2718
    156  CB         7.7800   -4.9310   30.6610 C.3   287  ARG287      0.0321
    157  CG         8.6840   -4.1150   31.6170 C.3   287  ARG287      0.0489
    158  CD         8.1060   -3.9230   33.0430 C.3   287  ARG287      0.2205
    159  NE         6.7020   -3.5230   33.0010 N.pl3 287  ARG287     -0.0865
    160  CZ         6.2660   -2.2970   32.6740 C.cat 287  ARG287      0.5346
    161  NH1        7.1370   -1.3050   32.4160 N.pl3 287  ARG287      0.1354
    162  NH2        4.9460   -2.0620   32.6090 N.pl3 287  ARG287      0.1354
    163  N          7.0210   -7.4500   28.9800 N.am  288  ASP288     -0.1974
    164  CA         6.1890   -8.0340   27.9180 C.3   288  ASP288      0.1709
    165  C          5.6210   -9.4090   28.2960 C.2   288  ASP288      0.2293
    166  O          4.4570   -9.6930   28.0040 O.2   288  ASP288     -0.2864
    167  CB         6.9430   -8.0430   26.5730 C.3   288  ASP288      0.1436
    168  CG         7.2200   -6.6440   26.0800 C.2   288  ASP288      0.3671
    169  OD1        6.3470   -5.7760   26.3260 O.co2 288  ASP288     -0.2456
    170  OD2        8.3050   -6.3840   25.5040 O.co2 288  ASP288     -0.2456
    171  N         -0.2770   -8.1020   30.3330 N.3   294  ARG294     -0.1245
    172  CA         0.4130   -8.5140   29.0790 C.3   294  ARG294      0.1563
    173  C          0.3410  -10.0500   28.8570 C.2   294  ARG294      0.2260
    174  O         -0.7510  -10.6070   29.0020 O.2   294  ARG294     -0.2867
    175  CB         1.8390   -7.9470   29.0450 C.3   294  ARG294      0.0307
    176  CG         1.8890   -6.4300   29.1990 C.3   294  ARG294      0.0489
    177  CD         1.2550   -5.6960   28.0220 C.3   294  ARG294      0.2205
    178  NE         1.8710   -6.0450   26.7350 N.pl3 294  ARG294     -0.0865
    179  CZ         3.0650   -5.6170   26.3170 C.cat 294  ARG294      0.5346
    180  NH1        3.8020   -4.8060   27.0700 N.pl3 294  ARG294      0.1354
    181  NH2        3.5360   -6.0000   25.1310 N.pl3 294  ARG294      0.1354
    182  N         12.1040    5.6410   35.3480 N.3   369  TRP369     -0.1241
    183  CA        12.1610    4.8920   34.1090 C.3   369  TRP369      0.1605
    184  C         13.5130    4.2920   33.8530 C.2   369  TRP369      0.2264
    185  O         13.6090    3.2710   33.1650 O.2   369  TRP369     -0.2867
    186  CB        11.8110    5.7940   32.9330 C.3   369  TRP369      0.0550
    187  CG        10.3370    5.9190   32.7600 C.ar  369  TRP369      0.0003
    188  CD1        9.4160    6.4520   33.6580 C.ar  369  TRP369      0.0946
    189  CD2        9.5640    5.4900   31.6070 C.ar  369  TRP369      0.0152
    190  NE1        8.1560    6.3630   33.1550 N.ar  369  TRP369     -0.2442
    191  CE2        8.1770    5.8110   31.9090 C.ar  369  TRP369      0.0810
    192  CE3        9.8760    4.9350   30.3940 C.ar  369  TRP369      0.0012
    193  CZ2        7.1590    5.5420   31.0190 C.ar  369  TRP369      0.0191
    194  CZ3        8.8500    4.6720   29.4830 C.ar  369  TRP369      0.0001
    195  CH2        7.5180    4.9600   29.7970 C.ar  369  TRP369      0.0015
    196  N          5.1490   12.6510   23.7820 N.3   397  TYR397     -0.1241
    197  CA         4.0700   11.7100   23.5870 C.3   397  TYR397      0.1605
    198  C          2.9950   12.4910   22.8200 C.2   397  TYR397      0.2264
    199  O          3.0870   13.7140   22.6720 O.2   397  TYR397     -0.2867
    200  CB         3.6060   11.1650   24.9540 C.3   397  TYR397      0.0534
    201  CG         2.5350   10.0700   24.8860 C.ar  397  TYR397     -0.0201
    202  CD1        2.8870    8.7110   24.6580 C.ar  397  TYR397     -0.0009
    203  CD2        1.1540   10.3870   25.0330 C.ar  397  TYR397     -0.0009
    204  CE1        1.9030    7.7100   24.5770 C.ar  397  TYR397      0.0417
    205  CE2        0.1710    9.3980   24.9550 C.ar  397  TYR397      0.0417
    206  CZ         0.5430    8.0650   24.7360 C.ar  397  TYR397      0.1957
    207  OH        -0.4300    7.0860   24.6750 O.3   397  TYR397     -0.2866
@<TRIPOS>BOND
     1   104   103    1
     2    88    89    1
     3   103   100    1
     4    89    90    1
     5    89    92    1
     6    64    61    1
     7    31    30    2
     8    30    29    1
     9    40    39    2
    10    99    90   am
    11    99   100    1
    12    90    91    2
    13    37    38    1
    14    92    93    1
    15   100   101    1
    16   102   101    2
    17    68    67    2
    18    63    62    2
    19    83    82    2
    20    61    62    1
    21    61    60    1
    22   101   105   am
    23    39    38    1
    24    62    65   am
    25    67    66    1
    26    29    28    1
    27    29    32    1
    28    72    73    1
    29    38    41    1
    30    95    93   ar
    31    95    97   ar
    32    93    94   ar
    33   108   107    2
    34    73    74    1
    35    73    76    1
    36    60    55   am
    37   105   106    1
    38    65    66    1
    39    56    55    2
    40    41    42    1
    41    82    81    1
    42    55    54    1
    43    32    33    1
    44    53    59    1
    45    53    54    1
    46    74    80   am
    47    74    75    2
    48   106   107    1
    49    80    81    1
    50    66    69    1
    51   107   109   am
    52   121   119   ar
    53   121   122   ar
    54    76    77    1
    55    97    98   ar
    56    42    43    1
    57   119   116   ar
    58    94    96   ar
    59    59    58    1
    60    54    57    1
    61    81    84    1
    62   122   120   ar
    63    69    70    1
    64    69    71    1
    65    33    34    1
    66   109   110    1
    67   113   110    1
    68   113   114    1
    69    84    85    1
    70    98    96   ar
    71    77    79   am
    72    77    78    2
    73   116   114   ar
    74   116   118   ar
    75    35    34    2
    76    43    44    1
    77   110   111    1
    78    58    57    1
    79    34    36   am
    80   114   115   ar
    81   120   118   ar
    82    85    86    1
    83   118   117   ar
    84    44    45    2
    85   131   129   ar
    86   131   133   ar
    87   129   128   ar
    88   111   123   am
    89   111   112    2
    90   134   133    1
    91   115   117   ar
    92   123   124    1
    93   133   132   ar
    94    86    87    1
    95    45    46    1
    96    45    47    1
    97   199   198    2
    98   198   197    1
    99   128   127    1
   100   128   130   ar
   101   127   124    1
   102   124   125    1
   103   132   130   ar
   104    51    50    2
   105   197   196    1
   106   197   200    1
   107    50    49    1
   108   126   125    2
   109   125   135   am
   110   204   202   ar
   111   204   206   ar
   112   202   201   ar
   113   207   206    1
   114   206   205   ar
   115   201   200    1
   116   201   203   ar
   117   205   203   ar
   118    49    48    1
   119    49    52    1
   120   181   179    1
   121   170   168   ar
   122   135   136    1
   123   151   149   ar
   124   150   149   ar
   125   168   169   ar
   126   168   167    1
   127   179   178    2
   128   179   180    1
   129   149   148    1
   130   167   164    1
   131   178   177    1
   132   136   137    1
   133   136   139    1
   134   147   148    1
   135   147   144    1
   136   138   137    2
   137   145   146    2
   138   145   144    1
   139   164   165    1
   140   164   163    1
   141   139   140    1
   142   166   165    2
   143   177   176    1
   144    16    14    1
   145   144   143    1
   146   173   174    2
   147   173   172    1
   148   163   154   am
   149   175   172    1
   150   175   176    1
   151   172   171    1
   152    15    14    1
   153   140   141    1
   154    19    20    2
   155    19    18    1
   156   194   195   ar
   157   194   192   ar
   158    14    13    1
   159   195   193   ar
   160    21    18    1
   161    21    22    1
   162    17    18    1
   163    26    25    1
   164   154   155    2
   165   154   153    1
   166    23    22    1
   167    23    24    1
   168    13    10    1
   169   192   189   ar
   170   141   142    1
   171     8     7    1
   172   156   153    1
   173   156   157    1
   174   193   191   ar
   175   153   152    1
   176    25    24    2
   177    25    27    1
   178     4     3    2
   179    10    11    1
   180    10     9    1
   181   189   191   ar
   182   189   187   ar
   183   157   158    1
   184     7     6    1
   185   191   190   ar
   186    11    12    2
   187     3     9   am
   188     3     2    1
   189   161   160    1
   190     5     6    1
   191     5     2    1
   192   162   160    1
   193   160   159    2
   194   187   186    1
   195   187   188   ar
   196   186   183    1
   197   159   158    1
   198     2     1    1
   199   190   188   ar
   200   185   184    2
   201   184   183    1
   202   183   182    1
