@<TRIPOS>MOLECULE
tmp/4imuB03.pdb
 186 182 0 0 0
SMALL
GASTEIGER

@<TRIPOS>ATOM
      1  N         17.9310   12.1860   47.4550 N.3    38  MET38      -0.1230
      2  CA        17.7690   11.6720   48.8290 C.3    38  MET38       0.1702
      3  C         17.4670   12.7510   49.9030 C.2    38  MET38       0.2592
      4  O         16.5660   12.5590   50.7140 O.2    38  MET38      -0.2718
      5  CB        19.0160   10.8840   49.2240 C.3    38  MET38       0.0401
      6  CG        19.0430    9.4570   48.7100 C.3    38  MET38       0.0596
      7  SD        18.7990    8.3090   50.0790 S.3    38  MET38      -0.1393
      8  CE        20.4030    7.5170   50.1650 C.3    38  MET38       0.0692
      9  N         18.2250   13.8560   49.9030 N.am   39  LEU39      -0.1980
     10  CA        18.0310   14.9950   50.8440 C.3    39  LEU39       0.1596
     11  C         17.7610   16.3380   50.1320 C.2    39  LEU39       0.2287
     12  O         18.6620   17.1680   50.0150 O.2    39  LEU39      -0.2864
     13  CB        19.2580   15.1520   51.7550 C.3    39  LEU39       0.0297
     14  CG        19.6880   13.9280   52.5700 C.3    39  LEU39       0.0022
     15  CD1       21.1180   14.0500   53.0930 C.3    39  LEU39       0.0001
     16  CD2       18.7170   13.7240   53.7220 C.3    39  LEU39       0.0001
     17  N         20.2520    4.0360   63.9690 N.3   171  GLN171     -0.1245
     18  CA        19.2020    3.0620   64.2890 C.3   171  GLN171      0.1566
     19  C         19.5660    2.5350   65.6740 C.2   171  GLN171      0.2260
     20  O         20.7550    2.4200   65.9830 O.2   171  GLN171     -0.2867
     21  CB        19.1940    1.8680   63.3230 C.3   171  GLN171      0.0367
     22  CG        18.6700    2.1040   61.9000 C.3   171  GLN171      0.0905
     23  CD        18.6940    0.8140   61.0570 C.2   171  GLN171      0.2608
     24  OE1       18.3180   -0.2750   61.5230 O.2   171  GLN171     -0.2717
     25  NE2       19.1540    0.9320   59.8270 N.am  171  GLN171     -0.0878
     26  N         22.3270   -1.6690   65.3710 N.3   174  ARG174     -0.1245
     27  CA        23.1250   -1.7200   64.1410 C.3   174  ARG174      0.1563
     28  C         24.4640   -2.3430   64.4710 C.2   174  ARG174      0.2260
     29  O         24.8560   -2.3500   65.6290 O.2   174  ARG174     -0.2867
     30  CB        23.3440   -0.3030   63.5800 C.3   174  ARG174      0.0307
     31  CG        22.3040    0.0980   62.5660 C.3   174  ARG174      0.0489
     32  CD        22.7130    1.2980   61.7360 C.3   174  ARG174      0.2205
     33  NE        22.6060    0.9560   60.3240 N.pl3 174  ARG174     -0.0865
     34  CZ        22.7060    1.8160   59.3140 C.cat 174  ARG174      0.5346
     35  NH1       22.9240    3.1010   59.5430 N.pl3 174  ARG174      0.1354
     36  NH2       22.5840    1.3800   58.0680 N.pl3 174  ARG174      0.1354
     37  N         13.9580   -3.2180   63.3300 N.3   258  PRO258     -0.2116
     38  CA        14.4110   -2.0220   62.6490 C.3   258  PRO258      0.1372
     39  C         13.8530   -0.8070   63.4140 C.2   258  PRO258      0.2244
     40  O         12.6360   -0.6980   63.6260 O.2   258  PRO258     -0.2868
     41  CB        13.7660   -2.1510   61.2590 C.3   258  PRO258      0.0268
     42  CG        12.4910   -2.9110   61.5170 C.3   258  PRO258      0.0207
     43  CD        12.7360   -3.7840   62.7040 C.3   258  PRO258      0.0892
     44  N         14.4250    3.3370   63.6340 N.3   260  VAL260     -0.1245
     45  CA        15.0980    4.5630   63.1680 C.3   260  VAL260      0.1561
     46  C         15.2060    5.5320   64.3380 C.2   260  VAL260      0.2260
     47  O         14.2080    5.7930   65.0350 O.2   260  VAL260     -0.2867
     48  CB        14.3580    5.2000   61.9730 C.3   260  VAL260      0.0252
     49  CG1       14.8240    6.6400   61.6940 C.3   260  VAL260      0.0019
     50  CG2       14.6050    4.3710   60.7220 C.3   260  VAL260      0.0019
     51  N         17.4410    8.6200   64.2310 N.3   262  ASN262     -0.1225
     52  CA        18.0730    9.9130   63.8740 C.3   262  ASN262      0.1785
     53  C         17.1370   10.9520   63.2490 C.2   262  ASN262      0.2597
     54  O         17.5890   11.9930   62.7450 O.2   262  ASN262     -0.2718
     55  CB        19.2890    9.6860   62.9490 C.3   262  ASN262      0.1169
     56  CG        18.9280    8.9340   61.6550 C.2   262  ASN262      0.2627
     57  OD1       17.7720    8.5680   61.4120 O.2   262  ASN262     -0.2716
     58  ND2       19.9240    8.7030   60.8230 N.am  262  ASN262     -0.0877
     59  N         15.8340   10.7120   63.2940 N.am  263  MET263     -0.1979
     60  CA        14.9320   11.6210   62.5970 C.3   263  MET263      0.1605
     61  C         14.3010   12.5710   63.5980 C.2   263  MET263      0.2287
     62  O         14.4490   12.3780   64.7990 O.2   263  MET263     -0.2864
     63  CB        13.9000   10.8570   61.7470 C.3   263  MET263      0.0413
     64  CG        14.5780   10.1360   60.5870 C.3   263  MET263      0.0598
     65  SD        13.3900    9.4360   59.4270 S.3   263  MET263     -0.1393
     66  CE        12.9700   10.8740   58.4270 C.3   263  MET263      0.0692
     67  N         11.7950    5.2410   66.5780 N.3   277  PHE277     -0.1227
     68  CA        10.5920    4.4770   66.2300 C.3   277  PHE277      0.1736
     69  C         10.9700    3.1890   65.4950 C.2   277  PHE277      0.2596
     70  O         11.9770    3.1240   64.8150 O.2   277  PHE277     -0.2718
     71  CB         9.5860    5.3250   65.4110 C.3   277  PHE277      0.0547
     72  CG        10.1650    5.9350   64.1570 C.ar  277  PHE277     -0.0202
     73  CD1       10.2520    5.1990   62.9600 C.ar  277  PHE277     -0.0042
     74  CD2       10.6250    7.2490   64.1610 C.ar  277  PHE277     -0.0042
     75  CE1       10.7900    5.7820   61.8070 C.ar  277  PHE277     -0.0003
     76  CE2       11.1500    7.8280   63.0020 C.ar  277  PHE277     -0.0003
     77  CZ        11.2170    7.0930   61.8260 C.ar  277  PHE277     -0.0000
     78  N         10.1570    2.1640   65.6650 N.am  278  SER278     -0.1938
     79  CA        10.4630    0.8320   65.1950 C.3   278  SER278      0.2055
     80  C          9.1850    0.1750   64.6700 C.2   278  SER278      0.2644
     81  O          8.0820    0.5360   65.0900 O.2   278  SER278     -0.2714
     82  CB        11.1190   -0.0260   66.3110 C.3   278  SER278      0.2130
     83  OG        10.2300   -0.1930   67.4430 O.3   278  SER278     -0.2179
     84  N          9.3360   -0.7320   63.6960 N.am  279  GLY279     -0.1939
     85  CA         8.2330   -1.5870   63.2700 C.3   279  GLY279      0.2014
     86  C          8.8010   -3.0000   63.1270 C.2   279  GLY279      0.2639
     87  O          9.4090   -3.5470   64.0690 O.2   279  GLY279     -0.2714
     88  N          8.6380   -3.5750   61.9370 N.am  280  TRP280     -0.1959
     89  CA         9.2940   -4.8420   61.5660 C.3   280  TRP280      0.1771
     90  C          9.8250   -4.7530   60.1470 C.2   280  TRP280      0.2620
     91  O          9.4190   -3.8910   59.3810 O.2   280  TRP280     -0.2715
     92  CB         8.3570   -6.0350   61.7220 C.3   280  TRP280      0.0590
     93  CG         7.0050   -5.8860   61.0670 C.ar  280  TRP280      0.0006
     94  CD1        6.6540   -6.1370   59.7310 C.ar  280  TRP280      0.0946
     95  CD2        5.7590   -5.4720   61.7140 C.ar  280  TRP280      0.0152
     96  NE1        5.3110   -5.8720   59.5160 N.ar  280  TRP280     -0.2442
     97  CE2        4.7160   -5.4960   60.6700 C.ar  280  TRP280      0.0810
     98  CE3        5.4120   -5.0750   63.0060 C.ar  280  TRP280      0.0012
     99  CZ2        3.3940   -5.1360   60.9410 C.ar  280  TRP280      0.0191
    100  CZ3        4.0810   -4.7150   63.2570 C.ar  280  TRP280      0.0001
    101  CH2        3.1000   -4.7520   62.2420 C.ar  280  TRP280      0.0015
    102  N         10.7300   -5.6440   59.7700 N.am  281  TYR281     -0.1960
    103  CA        11.3630   -5.5630   58.4810 C.3   281  TYR281      0.1771
    104  C         10.4990   -6.0470   57.3340 C.2   281  TYR281      0.2619
    105  O          9.6660   -6.9460   57.4830 O.2   281  TYR281     -0.2715
    106  CB        12.6510   -6.3600   58.4910 C.3   281  TYR281      0.0574
    107  CG        13.8790   -5.6130   58.9100 C.ar  281  TYR281     -0.0198
    108  CD1       14.5350   -5.9300   60.0950 C.ar  281  TYR281     -0.0009
    109  CD2       14.4320   -4.6140   58.0860 C.ar  281  TYR281     -0.0009
    110  CE1       15.6890   -5.2590   60.4850 C.ar  281  TYR281      0.0417
    111  CE2       15.6070   -3.9640   58.4480 C.ar  281  TYR281      0.0417
    112  CZ        16.2270   -4.2990   59.6520 C.ar  281  TYR281      0.1957
    113  OH        17.3720   -3.6540   60.0290 O.3   281  TYR281     -0.2866
    114  N         10.6850   -5.4240   56.1780 N.am  282  MET282     -0.1977
    115  CA        10.3150   -6.0450   54.9090 C.3   282  MET282      0.1605
    116  C         11.5810   -6.7710   54.4710 C.2   282  MET282      0.2287
    117  O         12.6840   -6.2190   54.6080 O.2   282  MET282     -0.2864
    118  CB         9.8840   -4.9700   53.8930 C.3   282  MET282      0.0413
    119  CG         9.5690   -5.5010   52.4850 C.3   282  MET282      0.0598
    120  SD         8.7280   -4.2710   51.4420 S.3   282  MET282     -0.1393
    121  CE        10.1290   -3.4100   50.7250 C.3   282  MET282      0.0692
    122  N         14.8100   -5.2140   52.7320 N.3   285  GLU285     -0.1245
    123  CA        15.7090   -4.3120   53.4470 C.3   285  GLU285      0.1567
    124  C         17.0110   -5.0330   53.8760 C.2   285  GLU285      0.2260
    125  O         18.1020   -4.4850   53.7320 O.2   285  GLU285     -0.2867
    126  CB        15.0230   -3.6410   54.6440 C.3   285  GLU285      0.0388
    127  CG        13.7940   -2.8220   54.2690 C.3   285  GLU285      0.1160
    128  CD        13.1260   -2.2430   55.5180 C.2   285  GLU285      0.3649
    129  OE1       13.6310   -1.2180   56.0200 O.co2 285  GLU285     -0.2457
    130  OE2       12.1030   -2.7840   55.9850 O.co2 285  GLU285     -0.2457
    131  N         19.2280   -4.7100   50.2420 N.3   289  ARG289     -0.1231
    132  CA        20.0730   -3.5840   50.6160 C.3   289  ARG289      0.1694
    133  C         21.2350   -3.9760   51.5650 C.2   289  ARG289      0.2592
    134  O         22.3920   -3.7680   51.2240 O.2   289  ARG289     -0.2718
    135  CB        19.2210   -2.4540   51.2410 C.3   289  ARG289      0.0321
    136  CG        20.0460   -1.3700   51.9190 C.3   289  ARG289      0.0489
    137  CD        19.1930   -0.2200   52.4690 C.3   289  ARG289      0.2205
    138  NE        18.4550   -0.4380   53.7190 N.pl3 289  ARG289     -0.0865
    139  CZ        17.1230   -0.5670   53.8090 C.cat 289  ARG289      0.5346
    140  NH1       16.3930   -0.5740   52.6880 N.pl3 289  ARG289      0.1354
    141  NH2       16.5100   -0.6820   55.0110 N.pl3 289  ARG289      0.1354
    142  N         20.9180   -4.4910   52.7510 N.am  290  ASP290     -0.1974
    143  CA        21.9460   -4.6710   53.7950 C.3   290  ASP290      0.1709
    144  C         23.0020   -5.6890   53.3810 C.2   290  ASP290      0.2293
    145  O         24.1780   -5.5170   53.6760 O.2   290  ASP290     -0.2864
    146  CB        21.3240   -5.0600   55.1420 C.3   290  ASP290      0.1436
    147  CG        20.4230   -3.9650   55.6990 C.2   290  ASP290      0.3671
    148  OD1       20.6230   -2.7930   55.3380 O.co2 290  ASP290     -0.2456
    149  OD2       19.5000   -4.2800   56.4810 O.co2 290  ASP290     -0.2456
    150  N         27.7500   -2.1710   51.2770 N.3   296  ARG296     -0.1245
    151  CA        27.3010   -2.7840   52.5420 C.3   296  ARG296      0.1563
    152  C         27.9990   -4.1310   52.6980 C.2   296  ARG296      0.2260
    153  O         29.1910   -4.2250   52.4040 O.2   296  ARG296     -0.2867
    154  CB        25.7630   -2.8450   52.6340 C.3   296  ARG296      0.0307
    155  CG        25.0650   -1.4810   52.5340 C.3   296  ARG296      0.0489
    156  CD        25.2450   -0.5330   53.7420 C.3   296  ARG296      0.2205
    157  NE        24.8500   -1.1220   55.0360 N.pl3 296  ARG296     -0.0865
    158  CZ        23.5860   -1.2740   55.4580 C.cat 296  ARG296      0.5346
    159  NH1       22.5560   -0.8990   54.6790 N.pl3 296  ARG296      0.1354
    160  NH2       23.3450   -1.8140   56.6570 N.pl3 296  ARG296      0.1354
    161  N         10.9290    5.3680   46.6560 N.3   371  TRP371     -0.1241
    162  CA        11.0720    4.5900   47.8810 C.3   371  TRP371      0.1605
    163  C         10.0730    3.5010   48.0510 C.2   371  TRP371      0.2264
    164  O         10.3770    2.4880   48.6960 O.2   371  TRP371     -0.2867
    165  CB        11.0000    5.5390   49.1110 C.3   371  TRP371      0.0550
    166  CG        12.2910    6.3000   49.3030 C.ar  371  TRP371      0.0003
    167  CD1       12.9090    7.1770   48.4100 C.ar  371  TRP371      0.0946
    168  CD2       13.1870    6.2200   50.4550 C.ar  371  TRP371      0.0152
    169  NE1       14.0860    7.6480   48.9230 N.ar  371  TRP371     -0.2442
    170  CE2       14.3130    7.1010   50.1600 C.ar  371  TRP371      0.0810
    171  CE3       13.1590    5.5310   51.6830 C.ar  371  TRP371      0.0012
    172  CZ2       15.3660    7.2660   51.0590 C.ar  371  TRP371      0.0191
    173  CZ3       14.2030    5.7210   52.5930 C.ar  371  TRP371      0.0001
    174  CH2       15.2830    6.5700   52.2880 C.ar  371  TRP371      0.0015
    175  N         14.4270   14.8460   58.2250 N.3   399  TYR399     -0.1241
    176  CA        15.8570   14.5800   58.4000 C.3   399  TYR399      0.1605
    177  C         16.4880   15.6540   59.2320 C.2   399  TYR399      0.2264
    178  O         15.9890   16.7420   59.3000 O.2   399  TYR399     -0.2867
    179  CB        16.5720   14.5040   57.0590 C.3   399  TYR399      0.0534
    180  CG        16.1610   13.3090   56.2700 C.ar  399  TYR399     -0.0201
    181  CD1       15.5530   13.4690   55.0190 C.ar  399  TYR399     -0.0009
    182  CD2       16.3430   12.0140   56.7760 C.ar  399  TYR399     -0.0009
    183  CE1       15.1730   12.3710   54.2640 C.ar  399  TYR399      0.0417
    184  CE2       15.9530   10.9060   56.0450 C.ar  399  TYR399      0.0417
    185  CZ        15.3750   11.0970   54.7870 C.ar  399  TYR399      0.1957
    186  OH        14.9970   10.0350   54.0250 O.3   399  TYR399     -0.2866
@<TRIPOS>BOND
     1   161   162    1
     2     1     2    1
     3   162   163    1
     4   162   165    1
     5   163   164    2
     6   167   169   ar
     7   167   166   ar
     8     6     5    1
     9     6     7    1
    10     2     5    1
    11     2     3    1
    12   169   170   ar
    13   165   166    1
    14   166   168   ar
    15     9     3   am
    16     9    10    1
    17     3     4    2
    18    12    11    2
    19     7     8    1
    20    11    10    1
    21   170   168   ar
    22   170   172   ar
    23   131   132    1
    24   168   171   ar
    25   132   135    1
    26   132   133    1
    27   121   120    1
    28    10    13    1
    29   172   174   ar
    30   134   133    2
    31   135   136    1
    32   150   151    1
    33   120   119    1
    34   133   142   am
    35   171   173   ar
    36    13    14    1
    37   136   137    1
    38   174   173   ar
    39   153   152    2
    40   137   138    1
    41   119   118    1
    42   155   154    1
    43   155   156    1
    44   151   154    1
    45   151   152    1
    46    14    15    1
    47    14    16    1
    48   140   139    1
    49   122   123    1
    50   142   143    1
    51   144   145    2
    52   144   143    1
    53   123   124    1
    54   123   126    1
    55   138   139    2
    56   125   124    2
    57   156   157    1
    58   143   146    1
    59   139   141    1
    60   118   115    1
    61   186   185    1
    62   183   185   ar
    63   183   181   ar
    64   127   126    1
    65   127   128    1
    66   116   117    2
    67   116   115    1
    68   159   158    1
    69   185   184   ar
    70   115   114    1
    71   181   180   ar
    72   157   158    2
    73   146   147    1
    74   148   147   ar
    75   158   160    1
    76   128   130   ar
    77   128   129   ar
    78   147   149   ar
    79   184   182   ar
    80   114   104   am
    81   180   182   ar
    82   180   179    1
    83   179   176    1
    84   104   105    2
    85   104   103    1
    86    36    34    1
    87   109   111   ar
    88   109   107   ar
    89   175   176    1
    90   176   177    1
    91    66    65    1
    92   111   112   ar
    93   103   106    1
    94   103   102    1
    95   106   107    1
    96   107   108   ar
    97   177   178    2
    98    34    35    1
    99    34    33    2
   100    91    90    2
   101    65    64    1
   102    96    94   ar
   103    96    97   ar
   104   112   113    1
   105   112   110   ar
   106    94    93   ar
   107   102    90   am
   108    25    23   am
   109   108   110   ar
   110    90    89    1
   111    33    32    1
   112    64    63    1
   113    97    99   ar
   114    97    95   ar
   115    50    48    1
   116    58    56   am
   117    99   101   ar
   118    23    24    2
   119    23    22    1
   120    93    95   ar
   121    93    92    1
   122    41    42    1
   123    41    38    1
   124    57    56    2
   125    42    43    1
   126    89    92    1
   127    89    88    1
   128    56    55    1
   129    49    48    1
   130    95    98   ar
   131    32    31    1
   132    63    60    1
   133    75    77   ar
   134    75    73   ar
   135    77    76   ar
   136    22    21    1
   137    88    86   am
   138    48    45    1
   139   101   100   ar
   140    31    30    1
   141    60    59    1
   142    60    61    1
   143    38    37    1
   144    38    39    1
   145    43    37    1
   146    54    53    2
   147    55    52    1
   148    73    72   ar
   149    76    74   ar
   150    98   100   ar
   151    86    85    1
   152    86    87    2
   153    45    44    1
   154    45    46    1
   155    53    59   am
   156    53    52    1
   157    85    84    1
   158    21    18    1
   159    39    40    2
   160    30    27    1
   161    61    62    2
   162    84    80   am
   163    52    51    1
   164    17    18    1
   165    27    28    1
   166    27    26    1
   167    72    74   ar
   168    72    71    1
   169    18    19    1
   170    46    47    2
   171    28    29    2
   172    80    81    2
   173    80    79    1
   174    70    69    2
   175    79    78    1
   176    79    82    1
   177    71    68    1
   178    69    78   am
   179    69    68    1
   180    19    20    2
   181    68    67    1
   182    82    83    1
