@<TRIPOS>MOLECULE
tmp/4imwA02.pdb
 203 198 0 0 0
SMALL
GASTEIGER

@<TRIPOS>ATOM
      1  N          2.9290    8.9390   34.5430 N.3    38  MET38      -0.1230
      2  CA         3.2310    8.5920   33.1520 C.3    38  MET38       0.1702
      3  C          3.1590    9.7650   32.1580 C.2    38  MET38       0.2592
      4  O          4.1130    9.9620   31.3960 O.2    38  MET38      -0.2718
      5  CB         2.3420    7.4410   32.6670 C.3    38  MET38       0.0401
      6  CG         2.7880    6.0770   33.2280 C.3    38  MET38       0.0596
      7  SD         3.0440    4.7870   31.9770 S.3    38  MET38      -0.1393
      8  CE         3.8600    5.7600   30.7130 C.3    38  MET38       0.0692
      9  N          2.0520   10.5240   32.1900 N.am   39  LEU39      -0.1980
     10  CA         1.8360   11.7140   31.3600 C.3    39  LEU39       0.1596
     11  C          1.3720   12.9340   32.1920 C.2    39  LEU39       0.2287
     12  O          0.1750   13.0860   32.4660 O.2    39  LEU39      -0.2864
     13  CB         0.7760   11.4240   30.2960 C.3    39  LEU39       0.0297
     14  CG         0.6220   10.0130   29.7030 C.3    39  LEU39       0.0022
     15  CD1       -0.8270    9.7460   29.2490 C.3    39  LEU39       0.0001
     16  CD2        1.6300    9.7800   28.5790 C.3    39  LEU39       0.0001
     17  N         14.1560    9.5650   29.8850 N.3   105  ARG105     -0.1245
     18  CA        13.6730    8.2640   30.2250 C.3   105  ARG105      0.1563
     19  C         14.4350    7.1260   29.5980 C.2   105  ARG105      0.2260
     20  O         14.0300    6.0090   29.8430 O.2   105  ARG105     -0.2867
     21  CB        12.1860    8.1360   29.8740 C.3   105  ARG105      0.0307
     22  CG        11.3570    8.8840   30.8770 C.3   105  ARG105      0.0489
     23  CD         9.9430    8.9080   30.5050 C.3   105  ARG105      0.2205
     24  NE         9.1340    9.4170   31.5940 N.pl3 105  ARG105     -0.0865
     25  CZ         7.8240    9.6200   31.4840 C.cat 105  ARG105      0.5346
     26  NH1        7.2120    9.3720   30.3240 N.pl3 105  ARG105      0.1354
     27  NH2        7.1250   10.0580   32.5180 N.pl3 105  ARG105      0.1354
     28  N          2.0120    1.5050   17.7570 N.3   168  SER168     -0.1202
     29  CA         2.7660    2.1740   18.7780 C.3   168  SER168      0.2020
     30  C          4.2510    1.7760   18.6330 C.2   168  SER168      0.2618
     31  O          5.1130    2.5570   18.8750 O.2   168  SER168     -0.2717
     32  CB         2.2080    1.9020   20.1710 C.3   168  SER168      0.2103
     33  OG         2.5280    0.5980   20.6200 O.3   168  SER168     -0.2182
     34  N          4.4830    0.5570   18.1720 N.am  169  GLN169     -0.1979
     35  CA         5.7610    0.0680   17.6850 C.3   169  GLN169      0.1601
     36  C          5.5680   -0.4490   16.2660 C.2   169  GLN169      0.2287
     37  O          4.4720   -0.8830   15.9160 O.2   169  GLN169     -0.2864
     38  CB         6.2530   -1.0420   18.6070 C.3   169  GLN169      0.0394
     39  CG         6.6990   -0.5160   19.9380 C.3   169  GLN169      0.0908
     40  CD         6.9180   -1.6150   20.9350 C.2   169  GLN169      0.2608
     41  OE1        7.9480   -2.3100   20.8880 O.2   169  GLN169     -0.2717
     42  NE2        5.9290   -1.8120   21.8470 N.am  169  GLN169     -0.0878
     43  N          5.0040   -5.5750   16.5310 N.3   172  ARG172     -0.1245
     44  CA         4.3420   -5.9720   17.7650 C.3   172  ARG172      0.1563
     45  C          3.4010   -7.1250   17.4560 C.2   172  ARG172      0.2260
     46  O          2.9350   -7.2540   16.3150 O.2   172  ARG172     -0.2867
     47  CB         3.4850   -4.8440   18.3090 C.3   172  ARG172      0.0307
     48  CG         4.2160   -3.7730   19.0440 C.3   172  ARG172      0.0489
     49  CD         3.2240   -3.0520   20.0060 C.3   172  ARG172      0.2205
     50  NE         3.3200   -3.5700   21.3680 N.pl3 172  ARG172     -0.0865
     51  CZ         3.0370   -2.8520   22.4480 C.cat 172  ARG172      0.5346
     52  NH1        2.6610   -1.5830   22.3160 N.pl3 172  ARG172      0.1354
     53  NH2        3.1590   -3.3800   23.6630 N.pl3 172  ARG172      0.1354
     54  N         13.1470   -3.2340   18.5870 N.3   256  PRO256     -0.2116
     55  CA        12.1870   -2.3140   19.2080 C.3   256  PRO256      0.1372
     56  C         12.1710   -1.0080   18.4560 C.2   256  PRO256      0.2244
     57  O         13.2200   -0.4180   18.2330 O.2   256  PRO256     -0.2868
     58  CB        12.7550   -2.0840   20.6070 C.3   256  PRO256      0.0268
     59  CG        14.2240   -2.4310   20.5070 C.3   256  PRO256      0.0207
     60  CD        14.4540   -3.2120   19.2550 C.3   256  PRO256      0.0892
     61  N          9.9420    2.4440   18.2100 N.3   258  VAL258     -0.1245
     62  CA         8.8530    3.2560   18.7230 C.3   258  VAL258      0.1561
     63  C          8.3410    4.1080   17.6020 C.2   258  VAL258      0.2260
     64  O          9.1410    4.7500   16.8980 O.2   258  VAL258     -0.2867
     65  CB         9.2180    4.1040   19.9850 C.3   258  VAL258      0.0252
     66  CG1        8.1620    5.2840   20.2340 C.3   258  VAL258      0.0019
     67  CG2        9.2490    3.2040   21.1920 C.3   258  VAL258      0.0019
     68  N          4.8500    5.9740   17.8410 N.3   260  ASN260     -0.1225
     69  CA         3.6770    6.7920   18.1100 C.3   260  ASN260      0.1785
     70  C          4.0320    8.1440   18.6680 C.2   260  ASN260      0.2597
     71  O          3.1110    8.9010   19.0380 O.2   260  ASN260     -0.2718
     72  CB         2.6730    6.0790   19.0410 C.3   260  ASN260      0.1169
     73  CG         3.3020    5.6000   20.3630 C.2   260  ASN260      0.2627
     74  OD1        2.6130    5.0250   21.1840 O.2   260  ASN260     -0.2716
     75  ND2        4.5900    5.8460   20.5700 N.am  260  ASN260     -0.0877
     76  N          5.3330    8.4550   18.6910 N.am  261  MET261     -0.1979
     77  CA         5.8230    9.7170   19.2470 C.3   261  MET261      0.1605
     78  C          6.0810   10.8570   18.2670 C.2   261  MET261      0.2287
     79  O          6.1770   10.6660   17.0420 O.2   261  MET261     -0.2864
     80  CB         7.0440    9.4750   20.1410 C.3   261  MET261      0.0413
     81  CG         6.6210    8.8760   21.4940 C.3   261  MET261      0.0598
     82  SD         7.9840    8.4190   22.5460 S.3   261  MET261     -0.1393
     83  CE         8.1040    9.8020   23.6840 C.3   261  MET261      0.0692
     84  N         11.5390    5.3750   15.4630 N.3   275  PHE275     -0.1227
     85  CA        12.9820    5.1230   15.6860 C.3   275  PHE275      0.1736
     86  C         13.0900    3.8110   16.4120 C.2   275  PHE275      0.2596
     87  O         12.0950    3.3140   17.0060 O.2   275  PHE275     -0.2718
     88  CB        13.5560    6.2170   16.5740 C.3   275  PHE275      0.0547
     89  CG        12.6920    6.5280   17.8080 C.ar  275  PHE275     -0.0202
     90  CD1       12.9650    5.9380   19.0340 C.ar  275  PHE275     -0.0042
     91  CD2       11.6830    7.4510   17.7350 C.ar  275  PHE275     -0.0042
     92  CE1       12.2280    6.2620   20.1530 C.ar  275  PHE275     -0.0003
     93  CE2       10.9040    7.7650   18.8600 C.ar  275  PHE275     -0.0003
     94  CZ        11.1930    7.1850   20.0680 C.ar  275  PHE275     -0.0000
     95  N         14.2680    3.2480   16.3560 N.am  276  SER276     -0.1938
     96  CA        14.5180    1.9140   16.7940 C.3   276  SER276      0.2055
     97  C         15.9580    1.8830   17.2780 C.2   276  SER276      0.2644
     98  O         16.7590    2.7060   16.8730 O.2   276  SER276     -0.2714
     99  CB        14.3000    0.9370   15.6360 C.3   276  SER276      0.2130
    100  OG        15.1590    1.1580   14.5120 O.3   276  SER276     -0.2179
    101  N         16.2770    0.9470   18.1750 N.am  277  GLY277     -0.1939
    102  CA        17.6630    0.7180   18.6040 C.3   277  GLY277      0.2014
    103  C         17.7190   -0.7680   18.8620 C.2   277  GLY277      0.2639
    104  O         17.4460   -1.5700   17.9760 O.2   277  GLY277     -0.2714
    105  N         18.0190   -1.1460   20.0920 N.am  278  TRP278     -0.1959
    106  CA        17.9830   -2.5590   20.4550 C.3   278  TRP278      0.1771
    107  C         17.5370   -2.7700   21.9000 C.2   278  TRP278      0.2620
    108  O         17.6200   -1.8750   22.7380 O.2   278  TRP278     -0.2715
    109  CB        19.3580   -3.1930   20.2020 C.3   278  TRP278      0.0590
    110  CG        20.4740   -2.5670   20.9820 C.ar  278  TRP278      0.0006
    111  CD1       20.7440   -2.7490   22.3180 C.ar  278  TRP278      0.0946
    112  CD2       21.5000   -1.7010   20.4810 C.ar  278  TRP278      0.0152
    113  NE1       21.8610   -2.0320   22.6770 N.ar  278  TRP278     -0.2442
    114  CE2       22.3420   -1.3730   21.5730 C.ar  278  TRP278      0.0810
    115  CE3       21.7860   -1.1520   19.2170 C.ar  278  TRP278      0.0012
    116  CZ2       23.4600   -0.5290   21.4340 C.ar  278  TRP278      0.0191
    117  CZ3       22.9140   -0.3100   19.0770 C.ar  278  TRP278      0.0001
    118  CH2       23.7220   -0.0100   20.1740 C.ar  278  TRP278      0.0015
    119  N         17.0880   -3.9760   22.1800 N.am  279  TYR279     -0.1960
    120  CA        16.4350   -4.2830   23.4670 C.3   279  TYR279      0.1771
    121  C         17.4120   -4.3590   24.6320 C.2   279  TYR279      0.2619
    122  O         18.5610   -4.8100   24.4860 O.2   279  TYR279     -0.2715
    123  CB        15.6790   -5.5930   23.3650 C.3   279  TYR279      0.0574
    124  CG        14.2120   -5.4590   22.9840 C.ar  279  TYR279     -0.0198
    125  CD1       13.6990   -6.1140   21.8450 C.ar  279  TYR279     -0.0009
    126  CD2       13.3260   -4.7300   23.7840 C.ar  279  TYR279     -0.0009
    127  CE1       12.3400   -6.0070   21.5090 C.ar  279  TYR279      0.0417
    128  CE2       11.9600   -4.6230   23.4570 C.ar  279  TYR279      0.0417
    129  CZ        11.4850   -5.2610   22.3270 C.ar  279  TYR279      0.1957
    130  OH        10.1500   -5.1640   22.0260 O.3   279  TYR279     -0.2866
    131  N         16.9550   -3.8650   25.7750 N.am  280  MET280     -0.1977
    132  CA        17.4730   -4.3000   27.0530 C.3   280  MET280      0.1605
    133  C         16.6270   -5.5130   27.4010 C.2   280  MET280      0.2287
    134  O         15.3630   -5.4910   27.2370 O.2   280  MET280     -0.2864
    135  CB        17.3570   -3.1930   28.0960 C.3   280  MET280      0.0413
    136  CG        18.0040   -3.5330   29.4700 C.3   280  MET280      0.0598
    137  SD        18.1560   -2.0730   30.5460 S.3   280  MET280     -0.1393
    138  CE        16.4220   -1.9550   30.9610 C.3   280  MET280      0.0692
    139  N         13.1700   -5.6000   29.1620 N.3   283  GLU283     -0.1245
    140  CA        12.0450   -5.0040   28.4750 C.3   283  GLU283      0.1567
    141  C         11.1360   -6.1070   27.9740 C.2   283  GLU283      0.2260
    142  O          9.9110   -5.9360   27.9680 O.2   283  GLU283     -0.2867
    143  CB        12.4590   -4.1590   27.2970 C.3   283  GLU283      0.0388
    144  CG        12.8970   -2.7520   27.6430 C.3   283  GLU283      0.1160
    145  CD        13.4250   -1.9750   26.4370 C.2   283  GLU283      0.3649
    146  OE1       12.6630   -1.1260   25.9310 O.co2 283  GLU283     -0.2457
    147  OE2       14.5800   -2.2140   25.9730 O.co2 283  GLU283     -0.2457
    148  N          8.8520   -7.2810   31.5290 N.3   287  ARG287     -0.1231
    149  CA         7.5810   -6.5920   31.1870 C.3   287  ARG287      0.1694
    150  C          6.6890   -7.3300   30.1800 C.2   287  ARG287      0.2592
    151  O          5.4910   -7.5080   30.4220 O.2   287  ARG287     -0.2718
    152  CB         7.8070   -5.1340   30.7110 C.3   287  ARG287      0.0321
    153  CG         8.6950   -4.2370   31.6600 C.3   287  ARG287      0.0489
    154  CD         8.0810   -3.9850   33.0540 C.3   287  ARG287      0.2205
    155  NE         6.6800   -3.5690   32.9670 N.pl3 287  ARG287     -0.0865
    156  CZ         6.2480   -2.3260   32.7210 C.cat 287  ARG287      0.5346
    157  NH1        7.1070   -1.3380   32.5350 N.pl3 287  ARG287      0.1354
    158  NH2        4.9430   -2.0650   32.6500 N.pl3 287  ARG287      0.1354
    159  N          7.2700   -7.7160   29.0440 N.am  288  ASP288     -0.1974
    160  CA         6.5130   -8.3480   27.9580 C.3   288  ASP288      0.1709
    161  C          5.9750   -9.7280   28.3620 C.2   288  ASP288      0.2293
    162  O          4.7980  -10.0400   28.1010 O.2   288  ASP288     -0.2864
    163  CB         7.3300   -8.3570   26.6440 C.3   288  ASP288      0.1436
    164  CG         7.5320   -6.9360   26.0740 C.2   288  ASP288      0.3671
    165  OD1        6.6320   -6.0980   26.2520 O.co2 288  ASP288     -0.2456
    166  OD2        8.5760   -6.6290   25.4630 O.co2 288  ASP288     -0.2456
    167  N          0.0980   -8.1770   30.4750 N.3   294  ARG294     -0.1245
    168  CA         0.7980   -8.6550   29.2590 C.3   294  ARG294      0.1563
    169  C          0.6840  -10.1650   29.0210 C.2   294  ARG294      0.2260
    170  O         -0.4240  -10.6750   29.0090 O.2   294  ARG294     -0.2867
    171  CB         2.2630   -8.1530   29.2080 C.3   294  ARG294      0.0307
    172  CG         2.4230   -6.6250   29.3160 C.3   294  ARG294      0.0489
    173  CD         1.7110   -5.8740   28.1950 C.3   294  ARG294      0.2205
    174  NE         2.3400   -6.1000   26.8880 N.pl3 294  ARG294     -0.0865
    175  CZ         3.5340   -5.6240   26.5150 C.cat 294  ARG294      0.5346
    176  NH1        4.2610   -4.8740   27.3560 N.pl3 294  ARG294      0.1354
    177  NH2        4.0000   -5.9000   25.2910 N.pl3 294  ARG294      0.1354
    178  N         12.1630    5.7220   35.4380 N.3   369  TRP369     -0.1241
    179  CA        12.1330    4.9890   34.1810 C.3   369  TRP369      0.1605
    180  C         13.4710    4.3190   33.8820 C.2   369  TRP369      0.2264
    181  O         13.4890    3.2430   33.2550 O.2   369  TRP369     -0.2867
    182  CB        11.7370    5.9170   33.0400 C.3   369  TRP369      0.0550
    183  CG        10.2770    6.0480   32.9400 C.ar  369  TRP369      0.0003
    184  CD1        9.4240    6.5840   33.8770 C.ar  369  TRP369      0.0946
    185  CD2        9.4610    5.6180   31.8540 C.ar  369  TRP369      0.0152
    186  NE1        8.1450    6.5360   33.4200 N.ar  369  TRP369     -0.2442
    187  CE2        8.1270    5.9530   32.1820 C.ar  369  TRP369      0.0810
    188  CE3        9.7280    5.0110   30.6220 C.ar  369  TRP369      0.0012
    189  CZ2        7.0540    5.6750   31.3400 C.ar  369  TRP369      0.0191
    190  CZ3        8.6710    4.7360   29.7750 C.ar  369  TRP369      0.0001
    191  CH2        7.3290    5.0720   30.1420 C.ar  369  TRP369      0.0015
    192  N          4.8740   12.3910   23.8230 N.3   397  TYR397     -0.1241
    193  CA         3.7370   11.5220   23.6410 C.3   397  TYR397      0.1605
    194  C          2.7180   12.3490   22.8530 C.2   397  TYR397      0.2264
    195  O          2.7670   13.5840   22.8350 O.2   397  TYR397     -0.2867
    196  CB         3.1900   10.9920   25.0040 C.3   397  TYR397      0.0534
    197  CG         1.7550   10.3540   24.9660 C.ar  397  TYR397     -0.0201
    198  CD1        1.5750    8.9550   24.8350 C.ar  397  TYR397     -0.0009
    199  CD2        0.5970   11.1510   25.0570 C.ar  397  TYR397     -0.0009
    200  CE1        0.2780    8.3690   24.7800 C.ar  397  TYR397      0.0417
    201  CE2       -0.7180   10.5750   25.0040 C.ar  397  TYR397      0.0417
    202  CZ        -0.8660    9.1830   24.8670 C.ar  397  TYR397      0.1957
    203  OH        -2.1450    8.6200   24.8190 O.3   397  TYR397     -0.2866
@<TRIPOS>BOND
     1   100    99    1
     2    84    85    1
     3    99    96    1
     4    85    86    1
     5    85    88    1
     6    37    36    2
     7    36    35    1
     8    46    45    2
     9    95    86   am
    10    95    96    1
    11    86    87    2
    12    43    44    1
    13    88    89    1
    14    96    97    1
    15    98    97    2
    16    64    63    2
    17    79    78    2
    18    97   101   am
    19    45    44    1
    20    63    62    1
    21    35    34    1
    22    35    38    1
    23    91    89   ar
    24    91    93   ar
    25    28    29    1
    26    44    47    1
    27    89    90   ar
    28    68    69    1
    29   104   103    2
    30    69    70    1
    31    69    72    1
    32    34    30   am
    33   101   102    1
    34    61    62    1
    35    57    56    2
    36    78    77    1
    37    47    48    1
    38    56    55    1
    39    54    55    1
    40    54    60    1
    41   102   103    1
    42    38    39    1
    43    30    29    1
    44    30    31    2
    45    70    76   am
    46    70    71    2
    47    76    77    1
    48    62    65    1
    49    29    32    1
    50    93    94   ar
    51   103   105   am
    52    90    92   ar
    53    72    73    1
    54    48    49    1
    55   117   115   ar
    56   117   118   ar
    57    55    58    1
    58   115   112   ar
    59    77    80    1
    60    60    59    1
    61    39    40    1
    62    65    66    1
    63    65    67    1
    64    49    50    1
    65    94    92   ar
    66   105   106    1
    67    80    81    1
    68    32    33    1
    69   118   116   ar
    70   109   106    1
    71   109   110    1
    72    73    75   am
    73    73    74    2
    74   106   107    1
    75   112   110   ar
    76   112   114   ar
    77    59    58    1
    78    41    40    2
    79    40    42   am
    80   110   111   ar
    81    50    51    2
    82   116   114   ar
    83    81    82    1
    84   127   125   ar
    85   127   129   ar
    86   114   113   ar
    87   125   124   ar
    88   107   119   am
    89   107   108    2
    90   130   129    1
    91   119   120    1
    92    52    51    1
    93   111   113   ar
    94   129   128   ar
    95    51    53    1
    96    82    83    1
    97   195   194    2
    98   194   193    1
    99   124   123    1
   100   124   126   ar
   101   123   120    1
   102   128   126   ar
   103   120   121    1
   104   193   192    1
   105   193   196    1
   106   122   121    2
   107   121   131   am
   108   200   198   ar
   109   200   202   ar
   110   203   202    1
   111   198   197   ar
   112   202   201   ar
   113   197   196    1
   114   197   199   ar
   115   201   199   ar
   116   177   175    1
   117   166   164   ar
   118   131   132    1
   119   146   145   ar
   120   147   145   ar
   121   164   165   ar
   122   164   163    1
   123   145   144    1
   124   175   174    2
   125   175   176    1
   126   163   160    1
   127   174   173    1
   128   132   133    1
   129   132   135    1
   130   134   133    2
   131   143   144    1
   132   143   140    1
   133   160   161    1
   134   160   159    1
   135   142   141    2
   136   141   140    1
   137   135   136    1
   138   162   161    2
   139   173   172    1
   140   140   139    1
   141    16    14    1
   142   170   169    2
   143   169   168    1
   144   159   150   am
   145   171   168    1
   146   171   172    1
   147    15    14    1
   148   168   167    1
   149   136   137    1
   150    19    20    2
   151    19    18    1
   152    14    13    1
   153   190   191   ar
   154   190   188   ar
   155    21    18    1
   156    21    22    1
   157    17    18    1
   158   191   189   ar
   159   150   151    2
   160   150   149    1
   161    13    10    1
   162    26    25    1
   163    23    22    1
   164    23    24    1
   165   137   138    1
   166   188   185   ar
   167   152   149    1
   168   152   153    1
   169     8     7    1
   170   149   148    1
   171   189   187   ar
   172    10     9    1
   173    10    11    1
   174     4     3    2
   175    25    24    2
   176    25    27    1
   177   153   154    1
   178   185   187   ar
   179   185   183   ar
   180     7     6    1
   181     3     9   am
   182     3     2    1
   183   187   186   ar
   184    11    12    2
   185   157   156    1
   186   158   156    1
   187     5     2    1
   188     5     6    1
   189   156   155    2
   190   183   182    1
   191   183   184   ar
   192   155   154    1
   193   182   179    1
   194     2     1    1
   195   181   180    2
   196   186   184   ar
   197   180   179    1
   198   179   178    1
