@<TRIPOS>MOLECULE
tmp/4imxA02.pdb
 164 160 0 0 0
SMALL
GASTEIGER

@<TRIPOS>ATOM
      1  N         17.3320   11.4820   45.4130 N.3    40  VAL40      -0.1231
      2  CA        17.0640   11.6250   43.9800 C.3    40  VAL40       0.1692
      3  C         18.2420   11.0940   43.1330 C.2    40  VAL40       0.2591
      4  O         18.0300   10.2730   42.2420 O.2    40  VAL40      -0.2718
      5  CB        16.7120   13.1070   43.6080 C.3    40  VAL40       0.0266
      6  CG1       16.5000   13.2790   42.0980 C.3    40  VAL40       0.0020
      7  CG2       15.4670   13.5740   44.3610 C.3    40  VAL40       0.0020
      8  N         19.4580   11.5590   43.4320 N.am   41  LEU41      -0.1980
      9  CA        20.6890   11.0540   42.8210 C.3    41  LEU41       0.1596
     10  C         21.5870   10.4900   43.8960 C.2    41  LEU41       0.2287
     11  O         22.3430   11.2250   44.5210 O.2    41  LEU41      -0.2864
     12  CB        21.4850   12.1640   42.1290 C.3    41  LEU41       0.0297
     13  CG        20.7520   13.2940   41.4170 C.3    41  LEU41       0.0022
     14  CD1       21.7390   14.4480   41.1670 C.3    41  LEU41       0.0001
     15  CD2       20.1380   12.7820   40.1270 C.3    41  LEU41       0.0001
     16  N          8.8260    5.3120   36.8030 N.3   109  CYS109     -0.1235
     17  CA         7.7840    5.5930   35.8680 C.3   109  CYS109      0.1677
     18  C          6.4840    4.8300   36.1900 C.2   109  CYS109      0.2270
     19  O          6.4080    3.5910   36.1310 O.2   109  CYS109     -0.2867
     20  CB         8.2380    5.2910   34.4380 C.3   109  CYS109      0.0956
     21  SG         6.8710    5.5640   33.2870 S.3   109  CYS109     -0.0801
     22  N         17.3290   19.4930   29.1900 N.3   171  SER171     -0.1202
     23  CA        16.8240   18.3670   29.9980 C.3   171  SER171      0.2020
     24  C         15.5550   17.8050   29.3370 C.2   171  SER171      0.2618
     25  O         15.2830   16.6070   29.4030 O.2   171  SER171     -0.2717
     26  CB        16.5550   18.7990   31.4510 C.3   171  SER171      0.2103
     27  OG        15.3560   19.5920   31.5070 O.3   171  SER171     -0.2182
     28  N         14.7930   18.6690   28.6730 N.am  172  GLN172     -0.1979
     29  CA        13.6820   18.1740   27.8840 C.3   172  GLN172      0.1601
     30  C         13.6930   18.8740   26.5400 C.2   172  GLN172      0.2287
     31  O         14.3200   19.9540   26.4000 O.2   172  GLN172     -0.2864
     32  CB        12.3500   18.4810   28.5620 C.3   172  GLN172      0.0394
     33  CG        12.0050   17.7130   29.8010 C.3   172  GLN172      0.0908
     34  CD        10.5330   17.9670   30.2200 C.2   172  GLN172      0.2608
     35  OE1        9.7420   18.4820   29.4370 O.2   172  GLN172     -0.2717
     36  NE2       10.1890   17.6130   31.4510 N.am  172  GLN172     -0.0878
     37  N         11.0800   23.1750   27.0370 N.3   175  ARG175     -0.1245
     38  CA        11.3200   23.8260   28.3320 C.3   175  ARG175      0.1563
     39  C         11.0720   25.3300   28.2030 C.2   175  ARG175      0.2260
     40  O         11.4580   25.9410   27.2000 O.2   175  ARG175     -0.2867
     41  CB        12.7850   23.6730   28.7590 C.3   175  ARG175      0.0307
     42  CG        13.3280   22.2420   28.8950 C.3   175  ARG175      0.0489
     43  CD        13.3160   21.7890   30.3220 C.3   175  ARG175      0.2205
     44  NE        11.9610   21.5300   30.7210 N.pl3 175  ARG175     -0.0865
     45  CZ        11.5260   21.4710   31.9740 C.cat 175  ARG175      0.5346
     46  NH1       12.3500   21.6680   33.0000 N.pl3 175  ARG175      0.1354
     47  NH2       10.2380   21.1940   32.1830 N.pl3 175  ARG175      0.1354
     48  N         13.4670   26.2880   37.2600 N.3   191  ALA191     -0.1245
     49  CA        14.1980   25.0650   36.9550 C.3   191  ALA191      0.1562
     50  C         15.2290   25.2240   35.8100 C.2   191  ALA191      0.2260
     51  O         16.1930   24.4590   35.7390 O.2   191  ALA191     -0.2867
     52  CB        13.2680   23.9010   36.6650 C.3   191  ALA191      0.0290
     53  N          5.8910   15.7860   27.0050 N.3   259  PRO259     -0.2116
     54  CA         7.0140   15.6430   27.9060 C.3   259  PRO259      0.1372
     55  C          8.0640   14.7320   27.2870 C.2   259  PRO259      0.2244
     56  O          7.8240   13.5470   27.0840 O.2   259  PRO259     -0.2868
     57  CB         6.3800   14.9850   29.1490 C.3   259  PRO259      0.0268
     58  CG         5.1320   14.2670   28.6340 C.3   259  PRO259      0.0207
     59  CD         4.8710   14.7510   27.2150 C.3   259  PRO259      0.0892
     60  N         11.9790   13.6440   27.7170 N.3   261  VAL261     -0.1245
     61  CA        13.2140   13.7080   28.5060 C.3   261  VAL261      0.1561
     62  C         14.3820   13.5200   27.5680 C.2   261  VAL261      0.2260
     63  O         14.4600   12.5110   26.8620 O.2   261  VAL261     -0.2867
     64  CB        13.2620   12.6190   29.6380 C.3   261  VAL261      0.0252
     65  CG1       14.6640   12.4240   30.1750 C.3   261  VAL261      0.0019
     66  CG2       12.3590   13.0030   30.7740 C.3   261  VAL261      0.0019
     67  N         17.9330   14.3090   28.4660 N.3   263  ASN263     -0.1240
     68  CA        19.2990   14.3210   29.0270 C.3   263  ASN263      0.1653
     69  C         19.7300   12.9970   29.6410 C.2   263  ASN263      0.2266
     70  O         20.7820   12.9330   30.2730 O.2   263  ASN263     -0.2867
     71  CB        19.5060   15.4810   30.0480 C.3   263  ASN263      0.1155
     72  CG        18.6140   15.3630   31.3080 C.2   263  ASN263      0.2627
     73  OD1       18.8770   16.0610   32.3000 O.2   263  ASN263     -0.2716
     74  ND2       17.5380   14.5250   31.2670 N.am  263  ASN263     -0.0877
     75  N         13.1680   10.6260   24.7110 N.3   278  PHE278     -0.1227
     76  CA        11.9500    9.8050   24.6920 C.3   278  PHE278      0.1736
     77  C         10.8260   10.6460   25.2410 C.2   278  PHE278      0.2596
     78  O         11.0630   11.5030   26.0830 O.2   278  PHE278     -0.2718
     79  CB        12.1470    8.5290   25.5360 C.3   278  PHE278      0.0547
     80  CG        12.5150    8.7890   27.0170 C.ar  278  PHE278     -0.0202
     81  CD1       11.5220    9.0130   27.9840 C.ar  278  PHE278     -0.0042
     82  CD2       13.8510    8.7900   27.4250 C.ar  278  PHE278     -0.0042
     83  CE1       11.8530    9.2160   29.3360 C.ar  278  PHE278     -0.0003
     84  CE2       14.2030    8.9920   28.7550 C.ar  278  PHE278     -0.0003
     85  CZ        13.2000    9.2070   29.7240 C.ar  278  PHE278     -0.0000
     86  N          9.6060   10.3710   24.7960 N.am  279  SER279     -0.1938
     87  CA         8.4340   11.1290   25.1760 C.3   279  SER279      0.2055
     88  C          7.2100   10.2210   25.3640 C.2   279  SER279      0.2644
     89  O          7.1060    9.1160   24.7710 O.2   279  SER279     -0.2714
     90  CB         8.1410   12.1890   24.1060 C.3   279  SER279      0.2130
     91  OG         7.8290   11.6140   22.8480 O.3   279  SER279     -0.2179
     92  N          6.2690   10.6980   26.1690 N.am  280  GLY280     -0.1939
     93  CA         4.9960   10.0120   26.3860 C.3   280  GLY280      0.2014
     94  C          3.8850   11.0230   26.3470 C.2   280  GLY280      0.2639
     95  O          3.8370   11.8420   25.4390 O.2   280  GLY280     -0.2714
     96  N          2.9650   10.9350   27.3080 N.am  281  TRP281     -0.1959
     97  CA         2.0560   12.0260   27.5990 C.3   281  TRP281      0.1771
     98  C          2.1080   12.2950   29.1150 C.2   281  TRP281      0.2620
     99  O          2.5890   11.4630   29.8870 O.2   281  TRP281     -0.2715
    100  CB         0.6410   11.7250   27.0910 C.3   281  TRP281      0.0590
    101  CG         0.1160   10.4250   27.5380 C.ar  281  TRP281      0.0006
    102  CD1       -0.4250   10.1400   28.7720 C.ar  281  TRP281      0.0946
    103  CD2        0.1050    9.1790   26.7880 C.ar  281  TRP281      0.0152
    104  NE1       -0.7750    8.8020   28.8220 N.ar  281  TRP281     -0.2442
    105  CE2       -0.4620    8.1930   27.6290 C.ar  281  TRP281      0.0810
    106  CE3        0.5490    8.8020   25.5110 C.ar  281  TRP281      0.0012
    107  CZ2       -0.6270    6.8500   27.2200 C.ar  281  TRP281      0.0191
    108  CZ3        0.3740    7.4700   25.0930 C.ar  281  TRP281      0.0001
    109  CH2       -0.2120    6.5120   25.9500 C.ar  281  TRP281      0.0015
    110  N          1.6280   13.4690   29.5300 N.am  282  TYR282     -0.1960
    111  CA         1.7060   13.8980   30.9190 C.3   282  TYR282      0.1771
    112  C          0.6700   13.2030   31.8070 C.2   282  TYR282      0.2619
    113  O         -0.4190   12.8900   31.3730 O.2   282  TYR282     -0.2715
    114  CB         1.4660   15.4090   30.9880 C.3   282  TYR282      0.0574
    115  CG         2.7120   16.2540   30.9990 C.ar  282  TYR282     -0.0198
    116  CD1        3.6340   16.1420   32.0380 C.ar  282  TYR282     -0.0009
    117  CD2        2.9820   17.1770   29.9580 C.ar  282  TYR282     -0.0009
    118  CE1        4.8110   16.9240   32.0500 C.ar  282  TYR282      0.0417
    119  CE2        4.1630   17.9500   29.9550 C.ar  282  TYR282      0.0417
    120  CZ         5.0520   17.8350   31.0290 C.ar  282  TYR282      0.1957
    121  OH         6.1870   18.6110   31.1020 O.3   282  TYR282     -0.2866
    122  N          1.0430   12.9470   33.0480 N.am  283  MET283     -0.1977
    123  CA         0.0790   12.8120   34.0920 C.3   283  MET283      0.1605
    124  C         -0.1370   14.2160   34.6790 C.2   283  MET283      0.2287
    125  O          0.8360   14.9750   34.9180 O.2   283  MET283     -0.2864
    126  CB         0.5840   11.8510   35.1570 C.3   283  MET283      0.0413
    127  CG        -0.3970   11.6620   36.3190 C.3   283  MET283      0.0598
    128  SD         0.1760   10.3270   37.4160 S.3   283  MET283     -0.1393
    129  CE         1.4320   11.1680   38.3550 C.3   283  MET283      0.0692
    130  N          1.9390   16.2340   37.2760 N.3   286  GLU286     -0.1245
    131  CA         3.2850   16.7620   36.9450 C.3   286  GLU286      0.1567
    132  C          3.1820   18.2400   36.6350 C.2   286  GLU286      0.2260
    133  O          4.0430   19.0230   37.0610 O.2   286  GLU286     -0.2867
    134  CB         3.9190   16.0270   35.7510 C.3   286  GLU286      0.0388
    135  CG         4.0950   14.5320   35.9080 C.3   286  GLU286      0.1160
    136  CD         4.4940   13.8860   34.5920 C.2   286  GLU286      0.3649
    137  OE1        5.7340   13.9050   34.2680 O.co2 286  GLU286     -0.2457
    138  OE2        3.5710   13.3880   33.8690 O.co2 286  GLU286     -0.2457
    139  N          8.3380    7.9720   44.1020 N.3   372  TRP372     -0.1241
    140  CA         8.0780    8.5480   42.7860 C.3   372  TRP372      0.1605
    141  C          6.8020    8.0530   42.1510 C.2   372  TRP372      0.2264
    142  O          6.2670    8.7140   41.2920 O.2   372  TRP372     -0.2867
    143  CB         9.2140    8.2270   41.8350 C.3   372  TRP372      0.0550
    144  CG        10.3780    9.1370   42.0190 C.ar  372  TRP372      0.0003
    145  CD1       11.1730    9.2430   43.1090 C.ar  372  TRP372      0.0946
    146  CD2       10.8750   10.0640   41.0570 C.ar  372  TRP372      0.0152
    147  NE1       12.1590   10.2000   42.8940 N.ar  372  TRP372     -0.2442
    148  CE2       12.0060   10.7030   41.6340 C.ar  372  TRP372      0.0810
    149  CE3       10.4790   10.4100   39.7500 C.ar  372  TRP372      0.0012
    150  CZ2       12.7370   11.6750   40.9620 C.ar  372  TRP372      0.0191
    151  CZ3       11.1910   11.3840   39.0720 C.ar  372  TRP372      0.0001
    152  CH2       12.3190   12.0060   39.6750 C.ar  372  TRP372      0.0015
    153  N         20.8250    8.5560   34.7370 N.3   400  TYR400     -0.1241
    154  CA        21.2590    9.9490   34.7540 C.3   400  TYR400      0.1605
    155  C         22.7210    9.9820   34.3240 C.2   400  TYR400      0.2264
    156  O         23.4140    8.9870   34.4650 O.2   400  TYR400     -0.2867
    157  CB        21.1330   10.5310   36.1660 C.3   400  TYR400      0.0534
    158  CG        19.7100   10.5680   36.7410 C.ar  400  TYR400     -0.0201
    159  CD1       18.6970   11.2870   36.1130 C.ar  400  TYR400     -0.0009
    160  CD2       19.4050    9.9010   37.9350 C.ar  400  TYR400     -0.0009
    161  CE1       17.4080   11.3390   36.6510 C.ar  400  TYR400      0.0417
    162  CE2       18.1280    9.9520   38.4850 C.ar  400  TYR400      0.0417
    163  CZ        17.1370   10.6740   37.8310 C.ar  400  TYR400      0.1957
    164  OH        15.8710   10.7160   38.3600 O.3   400  TYR400     -0.2866
@<TRIPOS>BOND
     1    91    90    1
     2    90    87    1
     3    76    75    1
     4    76    77    1
     5    76    79    1
     6    89    88    2
     7    86    87    1
     8    86    77   am
     9   108   106   ar
    10   108   109   ar
    11    87    88    1
    12    77    78    2
    13    88    92   am
    14    95    94    2
    15   106   103   ar
    16    79    80    1
    17   109   107   ar
    18    92    93    1
    19    94    93    1
    20    94    96   am
    21    31    30    2
    22    30    29    1
    23   103   101   ar
    24   103   105   ar
    25    63    62    2
    26    53    59    1
    27    53    54    1
    28    80    82   ar
    29    80    81   ar
    30    37    38    1
    31    56    55    2
    32   100   101    1
    33   100    97    1
    34    40    39    2
    35    59    58    1
    36   107   105   ar
    37    55    54    1
    38    96    97    1
    39    82    84   ar
    40   101   102   ar
    41    62    61    1
    42    97    98    1
    43   105   104   ar
    44    60    61    1
    45    29    32    1
    46    29    28    1
    47    54    57    1
    48    81    83   ar
    49    39    38    1
    50    38    41    1
    51    67    68    1
    52    61    64    1
    53    32    33    1
    54    58    57    1
    55    28    24   am
    56    84    85   ar
    57    41    42    1
    58   102   104   ar
    59    42    43    1
    60    68    69    1
    61    68    71    1
    62    98   110   am
    63    98    99    2
    64    22    23    1
    65    83    85   ar
    66    24    25    2
    67    24    23    1
    68    35    34    2
    69   110   111    1
    70    64    65    1
    71    64    66    1
    72    69    70    2
    73    33    34    1
    74   119   117   ar
    75   119   120   ar
    76   117   115   ar
    77    23    26    1
    78    71    72    1
    79    34    36   am
    80    43    44    1
    81    44    45    2
    82   111   114    1
    83   111   112    1
    84   114   115    1
    85   115   116   ar
    86   120   121    1
    87   120   118   ar
    88    74    72   am
    89    72    73    2
    90   113   112    2
    91    26    27    1
    92   112   122   am
    93    45    47    1
    94    45    46    1
    95   116   118   ar
    96   122   123    1
    97    21    20    1
    98   138   136   ar
    99   123   124    1
   100   123   126    1
   101   137   136   ar
   102   155   156    2
   103   155   154    1
   104    20    17    1
   105   136   135    1
   106   124   125    2
   107   153   154    1
   108   154   157    1
   109   126   127    1
   110    51    50    2
   111   134   135    1
   112   134   131    1
   113    50    49    1
   114    17    18    1
   115    17    16    1
   116   159   161   ar
   117   159   158   ar
   118    19    18    2
   119   157   158    1
   120   127   128    1
   121   132   131    1
   122   132   133    2
   123   161   163   ar
   124    52    49    1
   125   158   160   ar
   126   131   130    1
   127    49    48    1
   128   128   129    1
   129   163   164    1
   130   163   162   ar
   131   160   162   ar
   132   151   152   ar
   133   151   149   ar
   134   152   150   ar
   135   149   146   ar
   136    15    13    1
   137   150   148   ar
   138   146   148   ar
   139   146   144   ar
   140    14    13    1
   141   142   141    2
   142    13    12    1
   143   148   147   ar
   144   143   144    1
   145   143   140    1
   146   144   145   ar
   147     6     5    1
   148    12     9    1
   149   141   140    1
   150     4     3    2
   151   140   139    1
   152     9     8    1
   153     9    10    1
   154   147   145   ar
   155     3     8   am
   156     3     2    1
   157     5     2    1
   158     5     7    1
   159    10    11    2
   160     2     1    1
