@<TRIPOS>MOLECULE
tmp/4imyE00.pdb
 144 136 0 0 0
SMALL
GASTEIGER

@<TRIPOS>ATOM
      1  N          5.2610   10.3890  102.1150 N.3    18  ILE18      -0.1245
      2  CA         6.7020   10.5400  102.2530 C.3    18  ILE18       0.1561
      3  C          7.3880    9.4060  101.5030 C.2    18  ILE18       0.2260
      4  O          6.9640    8.2610  101.5930 O.2    18  ILE18      -0.2867
      5  CB         7.1110   10.5130  103.7370 C.3    18  ILE18       0.0252
      6  CG1        6.8460    9.1270  104.3420 C.3    18  ILE18       0.0019
      7  CG2        6.3640   11.6050  104.4980 C.3    18  ILE18       0.0019
      8  CD1        6.5810    9.1290  105.8370 C.3    18  ILE18       0.0001
      9  N          5.0110    5.5020  100.8010 N.3    26  VAL26      -0.1245
     10  CA         4.9220    5.5680  102.2500 C.3    26  VAL26       0.1561
     11  C          4.0990    6.7830  102.6770 C.2    26  VAL26       0.2260
     12  O          4.2630    7.8740  102.1320 O.2    26  VAL26      -0.2867
     13  CB         6.3280    5.6490  102.8870 C.3    26  VAL26       0.0252
     14  CG1        6.2470    5.5110  104.3990 C.3    26  VAL26       0.0019
     15  CG2        7.2400    4.5830  102.3030 C.3    26  VAL26       0.0019
     16  N          3.6170    4.9970  110.2260 N.3    39  ALA39      -0.1245
     17  CA         4.0420    5.1580  108.8460 C.3    39  ALA39       0.1562
     18  C          3.5760    3.9450  108.0570 C.2    39  ALA39       0.2260
     19  O          3.9310    2.8120  108.3820 O.2    39  ALA39      -0.2867
     20  CB         5.5510    5.2970  108.7700 C.3    39  ALA39       0.0290
     21  N          3.7250    1.7390  104.8310 N.3    41  LYS41      -0.1245
     22  CA         4.5240    1.4280  103.6490 C.3    41  LYS41       0.1561
     23  C          3.7700    0.4410  102.7690 C.2    41  LYS41       0.2260
     24  O          3.6320   -0.7310  103.1110 O.2    41  LYS41      -0.2867
     25  CB         5.8860    0.8510  104.0470 C.3    41  LYS41       0.0271
     26  CG         6.7680    0.4830  102.8650 C.3    41  LYS41       0.0035
     27  CD         8.1140   -0.0690  103.3120 C.3    41  LYS41       0.0206
     28  CE         8.7380   -0.9180  102.2130 C.3    41  LYS41       0.1093
     29  NZ        10.1080   -1.4000  102.5390 N.3    41  LYS41      -0.1314
     30  N         11.1950   -9.3420  104.2040 N.3    59  GLU59      -0.1245
     31  CA        11.2160   -8.1410  105.0270 C.3    59  GLU59       0.1567
     32  C         10.3160   -8.2980  106.2520 C.2    59  GLU59       0.2260
     33  O         10.7010   -7.9400  107.3670 O.2    59  GLU59      -0.2867
     34  CB        10.7850   -6.9310  104.1960 C.3    59  GLU59       0.0388
     35  CG        10.8350   -5.6100  104.9380 C.3    59  GLU59       0.1160
     36  CD        10.4330   -4.4380  104.0610 C.2    59  GLU59       0.3649
     37  OE1       10.2750   -4.6370  102.8370 O.co2  59  GLU59      -0.2457
     38  OE2       10.2720   -3.3190  104.5930 O.co2  59  GLU59      -0.2457
     39  N         11.3270   -8.3080  110.1570 N.3    63  LEU63      -0.1245
     40  CA        10.7910   -7.2280  110.9760 C.3    63  LEU63       0.1561
     41  C         10.0500   -7.7830  112.1910 C.2    63  LEU63       0.2260
     42  O         10.0550   -7.1790  113.2660 O.2    63  LEU63      -0.2867
     43  CB         9.8530   -6.3490  110.1500 C.3    63  LEU63       0.0270
     44  CG        10.5360   -5.3600  109.2050 C.3    63  LEU63       0.0019
     45  CD1        9.5200   -4.7590  108.2420 C.3    63  LEU63       0.0001
     46  CD2       11.2490   -4.2630  109.9880 C.3    63  LEU63       0.0001
     47  N         13.6330   -0.3540  113.9550 N.3    72  VAL72      -0.1245
     48  CA        12.2940    0.1090  113.6010 C.3    72  VAL72       0.1561
     49  C         11.2520   -0.9450  113.9580 C.2    72  VAL72       0.2260
     50  O         11.4750   -2.1420  113.7770 O.2    72  VAL72      -0.2867
     51  CB        12.1850    0.4500  112.0980 C.3    72  VAL72       0.0252
     52  CG1       12.2360   -0.8140  111.2510 C.3    72  VAL72       0.0019
     53  CG2       10.9080    1.2240  111.8280 C.3    72  VAL72       0.0019
     54  N          4.3790    0.9100  110.5750 N.3    87  PHE87      -0.1227
     55  CA         5.4910    1.1270  111.5010 C.3    87  PHE87       0.1736
     56  C          5.1800    2.2100  112.5270 C.2    87  PHE87       0.2595
     57  O          4.3320    3.0720  112.2950 O.2    87  PHE87      -0.2718
     58  CB         6.7440    1.5520  110.7400 C.3    87  PHE87       0.0547
     59  CG         7.2180    0.5480  109.7340 C.ar   87  PHE87      -0.0202
     60  CD1        6.7500    0.5800  108.4310 C.ar   87  PHE87      -0.0042
     61  CD2        8.1490   -0.4150  110.0840 C.ar   87  PHE87      -0.0042
     62  CE1        7.1940   -0.3380  107.4990 C.ar   87  PHE87      -0.0003
     63  CE2        8.5970   -1.3370  109.1560 C.ar   87  PHE87      -0.0003
     64  CZ         8.1160   -1.3010  107.8630 C.ar   87  PHE87      -0.0000
     65  N          5.8780    2.1660  113.6580 N.am   88  ASP88      -0.1960
     66  CA         5.8540    3.2700  114.6080 C.3    88  ASP88       0.1840
     67  C          6.5480    4.4590  113.9560 C.2    88  ASP88       0.2622
     68  O          7.6810    4.3370  113.4950 O.2    88  ASP88      -0.2715
     69  CB         6.5720    2.8930  115.9060 C.3    88  ASP88       0.1450
     70  CG         5.6580    2.2080  116.9060 C.2    88  ASP88       0.3671
     71  OD1        4.4940    2.6400  117.0500 O.co2  88  ASP88      -0.2456
     72  OD2        6.1080    1.2410  117.5570 O.co2  88  ASP88      -0.2456
     73  N          5.8710    5.6030  113.9150 N.am   89  PHE89      -0.1960
     74  CA         6.3910    6.7710  113.2090 C.3    89  PHE89       0.1771
     75  C          7.7060    7.2950  113.7880 C.2    89  PHE89       0.2619
     76  O          7.9160    7.2820  115.0040 O.2    89  PHE89      -0.2715
     77  CB         5.3670    7.8980  113.1960 C.3    89  PHE89       0.0574
     78  CG         5.7560    9.0450  112.3120 C.ar   89  PHE89      -0.0200
     79  CD1        5.6830    8.9270  110.9340 C.ar   89  PHE89      -0.0042
     80  CD2        6.2010   10.2380  112.8530 C.ar   89  PHE89      -0.0042
     81  CE1        6.0430    9.9760  110.1130 C.ar   89  PHE89      -0.0003
     82  CE2        6.5620   11.2920  112.0370 C.ar   89  PHE89      -0.0003
     83  CZ         6.4830   11.1590  110.6650 C.ar   89  PHE89      -0.0000
     84  N          8.5830    7.7620  112.9020 N.am   90  CYS90      -0.1968
     85  CA         9.8420    8.3840  113.3010 C.3    90  CYS90       0.1712
     86  C          9.9870    9.7220  112.5880 C.2    90  CYS90       0.2296
     87  O         10.0110    9.7810  111.3590 O.2    90  CYS90      -0.2864
     88  CB        11.0260    7.4810  112.9640 C.3    90  CYS90       0.0983
     89  SG        11.0160    5.8940  113.8220 S.3    90  CYS90      -0.0798
     90  N         12.4520   12.0310  112.2640 N.3    92  HIS92      -0.1241
     91  CA        13.6450   12.3920  111.5050 C.3    92  HIS92       0.1621
     92  C         14.3690   11.1870  110.9210 C.2    92  HIS92       0.2264
     93  O         14.0840   10.0400  111.2650 O.2    92  HIS92      -0.2867
     94  CB        14.6240   13.1640  112.3960 C.3    92  HIS92       0.0745
     95  CG        13.9770   14.2270  113.2250 C.ar   92  HIS92       0.0817
     96  ND1       13.8660   14.1360  114.5960 N.ar   92  HIS92      -0.2268
     97  CD2       13.4010   15.4040  112.8800 C.ar   92  HIS92       0.1154
     98  CE1       13.2540   15.2100  115.0600 C.ar   92  HIS92       0.1986
     99  NE2       12.9600   15.9950  114.0390 N.ar   92  HIS92      -0.2212
    100  N         20.1620    7.5510  105.1700 N.3   137  ALA137     -0.1231
    101  CA        18.7360    7.5760  104.8600 C.3   137  ALA137      0.1694
    102  C         17.9570    6.4780  105.5940 C.2   137  ALA137      0.2592
    103  O         16.7660    6.6380  105.8750 O.2   137  ALA137     -0.2718
    104  CB        18.5300    7.4560  103.3620 C.3   137  ALA137      0.0304
    105  N         18.6230    5.3670  105.8990 N.am  138  ASN138     -0.1974
    106  CA        17.9620    4.2490  106.5670 C.3   138  ASN138      0.1688
    107  C         18.1890    4.2370  108.0760 C.2   138  ASN138      0.2292
    108  O         17.8370    3.2740  108.7590 O.2   138  ASN138     -0.2864
    109  CB        18.4020    2.9160  105.9550 C.3   138  ASN138      0.1181
    110  CG        17.8230    2.6930  104.5700 C.2   138  ASN138      0.2629
    111  OD1       16.7980    3.2740  104.2090 O.2   138  ASN138     -0.2716
    112  ND2       18.4750    1.8440  103.7890 N.am  138  ASN138     -0.0877
    113  N         16.8330    6.1000  111.1920 N.3   140  LEU140     -0.1245
    114  CA        15.7780    7.0020  111.6400 C.3   140  LEU140      0.1561
    115  C         16.0210    7.4360  113.0800 C.2   140  LEU140      0.2260
    116  O         16.7270    6.7610  113.8310 O.2   140  LEU140     -0.2867
    117  CB        14.4110    6.3220  111.5340 C.3   140  LEU140      0.0270
    118  CG        14.1380    5.5680  110.2300 C.3   140  LEU140      0.0019
    119  CD1       12.6880    5.1050  110.1710 C.3   140  LEU140      0.0001
    120  CD2       14.4840    6.4270  109.0270 C.3   140  LEU140      0.0001
    121  N         16.3330    1.0040  109.9070 N.3   150  ALA150     -0.1231
    122  CA        15.1510    0.8070  109.0800 C.3   150  ALA150      0.1694
    123  C         15.5090    0.2970  107.6900 C.2   150  ALA150      0.2592
    124  O         16.6820    0.1750  107.3400 O.2   150  ALA150     -0.2718
    125  CB        14.3600    2.1030  108.9790 C.3   150  ALA150      0.0304
    126  N         14.4710    0.0110  106.9110 N.am  151  ASP151     -0.1960
    127  CA        14.6020   -0.5540  105.5710 C.3   151  ASP151      0.1840
    128  C         15.3180   -1.8970  105.5870 C.2   151  ASP151      0.2622
    129  O         16.5020   -1.9900  105.2550 O.2   151  ASP151     -0.2715
    130  CB        15.3060    0.4130  104.6250 C.3   151  ASP151      0.1450
    131  CG        14.8270    0.2630  103.1940 C.2   151  ASP151      0.3671
    132  OD1       14.4050   -0.8590  102.8340 O.co2 151  ASP151     -0.2456
    133  OD2       14.8600    1.2600  102.4370 O.co2 151  ASP151     -0.2456
    134  N         14.5870   -2.9380  105.9720 N.am  152  PHE152     -0.1974
    135  CA        15.1210   -4.2930  105.9510 C.3   152  PHE152      0.1639
    136  C         14.7150   -5.0300  104.6750 C.2   152  PHE152      0.2290
    137  O         14.7640   -6.2600  104.6150 O.2   152  PHE152     -0.2864
    138  CB        14.6570   -5.0610  107.1860 C.3   152  PHE152      0.0560
    139  CG        15.3810   -4.6710  108.4400 C.ar  152  PHE152     -0.0200
    140  CD1       15.0260   -3.5260  109.1330 C.ar  152  PHE152     -0.0042
    141  CD2       16.4250   -5.4440  108.9200 C.ar  152  PHE152     -0.0042
    142  CE1       15.6970   -3.1600  110.2850 C.ar  152  PHE152     -0.0003
    143  CE2       17.0970   -5.0870  110.0710 C.ar  152  PHE152     -0.0003
    144  CZ        16.7330   -3.9410  110.7550 C.ar  152  PHE152     -0.0000
@<TRIPOS>BOND
     1     9    10    1
     2     3     4    2
     3     3     2    1
     4     1     2    1
     5    12    11    2
     6    28    29    1
     7    28    27    1
     8    10    11    1
     9    10    13    1
    10     2     5    1
    11    15    13    1
    12   133   131   ar
    13    23    24    2
    14    23    22    1
    15   132   131   ar
    16    37    36   ar
    17    26    27    1
    18    26    25    1
    19    13    14    1
    20   131   130    1
    21   104   101    1
    22    22    25    1
    23    22    21    1
    24     5     6    1
    25     5     7    1
    26   112   110   am
    27    36    38   ar
    28    36    35    1
    29    34    35    1
    30    34    31    1
    31    30    31    1
    32   111   110    2
    33     6     8    1
    34   110   109    1
    35   137   136    2
    36   130   127    1
    37   136   135    1
    38   101   100    1
    39   101   102    1
    40    31    32    1
    41   129   128    2
    42   127   128    1
    43   127   126    1
    44   128   134   am
    45   102   103    2
    46   102   105   am
    47   105   106    1
    48   135   134    1
    49   135   138    1
    50   109   106    1
    51    32    33    2
    52   106   107    1
    53   126   123   am
    54   138   139    1
    55   124   123    2
    56    62    64   ar
    57    62    60   ar
    58   123   122    1
    59    64    63   ar
    60    18    19    2
    61    18    17    1
    62   107   108    2
    63    45    44    1
    64    60    59   ar
    65   139   141   ar
    66   139   140   ar
    67    20    17    1
    68    17    16    1
    69   141   143   ar
    70   125   122    1
    71   120   118    1
    72   122   121    1
    73   140   142   ar
    74    63    61   ar
    75    44    46    1
    76    44    43    1
    77    59    61   ar
    78    59    58    1
    79   143   144   ar
    80    81    83   ar
    81    81    79   ar
    82    43    40    1
    83    39    40    1
    84   119   118    1
    85   118   117    1
    86   142   144   ar
    87    54    55    1
    88    83    82   ar
    89    58    55    1
    90    92    93    2
    91    92    91    1
    92    79    78   ar
    93    40    41    1
    94   113   114    1
    95    52    51    1
    96    87    86    2
    97    55    56    1
    98    91    90    1
    99    91    94    1
   100   117   114    1
   101   114   115    1
   102    53    51    1
   103    82    80   ar
   104    51    48    1
   105    41    42    2
   106    57    56    2
   107    78    80   ar
   108    78    77    1
   109    94    95    1
   110    56    65   am
   111    86    85    1
   112    97    95   ar
   113    97    99   ar
   114    84    85    1
   115    84    75   am
   116    88    85    1
   117    88    89    1
   118   115   116    2
   119    77    74    1
   120    74    75    1
   121    74    73    1
   122    95    96   ar
   123    68    67    2
   124    48    47    1
   125    48    49    1
   126    65    66    1
   127    50    49    2
   128    75    76    2
   129    73    67   am
   130    67    66    1
   131    99    98   ar
   132    96    98   ar
   133    66    69    1
   134    69    70    1
   135    70    71   ar
   136    70    72   ar
