@<TRIPOS>MOLECULE
tmp/4imzA00.pdb
 85 80 0 0 0
SMALL
GASTEIGER

@<TRIPOS>ATOM
      1  N         44.1960   35.9550    2.6870 N.3    16  SER16      -0.1217
      2  CA        44.3980   35.2020    3.9240 C.3    16  SER16       0.1889
      3  C         43.1960   34.3360    4.2820 C.2    16  SER16       0.2288
      4  O         43.1050   33.8250    5.3990 O.2    16  SER16      -0.2866
      5  CB        44.7240   36.1640    5.0710 C.3    16  SER16       0.2089
      6  OG        43.6930   37.1220    5.2440 O.3    16  SER16      -0.2183
      7  N         38.6480   41.9750    5.2820 N.3    32  HIS32      -0.1226
      8  CA        39.9330   41.8590    5.9300 C.3    32  HIS32       0.1752
      9  C         40.8560   40.7640    5.3960 C.2    32  HIS32       0.2595
     10  O         41.9780   40.7270    5.7800 O.2    32  HIS32      -0.2718
     11  CB        39.8300   41.7840    7.4410 C.3    32  HIS32       0.0759
     12  CG        39.4260   40.4580    7.9680 C.ar   32  HIS32       0.0818
     13  ND1       38.1710   40.2020    8.4460 N.ar   32  HIS32      -0.2268
     14  CD2       40.1350   39.3360    8.1670 C.ar   32  HIS32       0.1154
     15  CE1       38.1180   38.9720    8.8870 C.ar   32  HIS32       0.1986
     16  NE2       39.2910   38.4160    8.7090 N.ar   32  HIS32      -0.2212
     17  N         40.3360   39.8450    4.5800 N.am   33  VAL33      -0.1980
     18  CA        41.2220   38.8380    3.9860 C.3    33  VAL33       0.1595
     19  C         41.7940   39.2850    2.6360 C.2    33  VAL33       0.2287
     20  O         42.7190   38.6490    2.1170 O.2    33  VAL33      -0.2864
     21  CB        40.5700   37.4390    3.8230 C.3    33  VAL33       0.0276
     22  CG1       39.8340   37.0250    5.0860 C.3    33  VAL33       0.0022
     23  CG2       39.6580   37.4010    2.5980 C.3    33  VAL33       0.0022
     24  N         36.1230   43.6630   17.6380 N.3   112  GLN112     -0.1245
     25  CA        37.5080   44.0650   17.7200 C.3   112  GLN112      0.1566
     26  C         37.7640   45.5330   17.3160 C.2   112  GLN112      0.2260
     27  O         38.6040   45.8450   16.5300 O.2   112  GLN112     -0.2867
     28  CB        38.3810   43.1110   16.9360 C.3   112  GLN112      0.0367
     29  CG        38.5540   41.7660   17.6110 C.3   112  GLN112      0.0905
     30  CD        39.6860   40.9630   16.9960 C.2   112  GLN112      0.2608
     31  OE1       39.5700   40.5180   15.8900 O.2   112  GLN112     -0.2717
     32  NE2       40.7760   40.7900   17.7150 N.am  112  GLN112     -0.0878
     33  N         34.6520   26.9440   13.3600 N.3   127  THR127     -0.1203
     34  CA        35.4970   27.7200   12.4690 C.3   127  THR127      0.1994
     35  C         36.8660   28.0090   13.0760 C.2   127  THR127      0.2618
     36  O         37.0500   27.9220   14.2940 O.2   127  THR127     -0.2717
     37  CB        34.8310   29.0570   12.0640 C.3   127  THR127      0.1784
     38  OG1       34.5890   29.8570   13.2290 O.3   127  THR127     -0.2211
     39  CG2       33.5010   28.8020   11.3470 C.3   127  THR127      0.0376
     40  N         37.8100   28.3620   12.2090 N.am  128  ILE128     -0.1966
     41  CA        39.1510   28.7890   12.6070 C.3   128  ILE128      0.1712
     42  C         39.5060   30.0680   11.8590 C.2   128  ILE128      0.2458
     43  O         38.8370   30.4340   10.9000 O.2   128  ILE128     -0.2730
     44  CB        40.2180   27.6940   12.3610 C.3   128  ILE128      0.0289
     45  CG1       40.3670   27.4330   10.8610 C.3   128  ILE128      0.0022
     46  CG2       39.8580   26.4250   13.1470 C.3   128  ILE128      0.0023
     47  CD1       41.5240   26.5020   10.4890 C.3   128  ILE128      0.0001
     48  N         40.5540   30.7800   12.3100 N.am  129  PRO129     -0.2727
     49  CA        40.9180   32.0750   11.7370 C.3   129  PRO129      0.1402
     50  C         41.0990   32.0980   10.2130 C.2   129  PRO129      0.2269
     51  O         40.6840   33.0570    9.5760 O.2   129  PRO129     -0.2865
     52  CB        42.2160   32.4140   12.4750 C.3   129  PRO129      0.0296
     53  CG        41.9820   31.8140   13.8390 C.3   129  PRO129      0.0237
     54  CD        41.3320   30.4800   13.5320 C.3   129  PRO129      0.0939
     55  N         37.8940   32.7840    7.1230 N.3   132  CYS132     -0.1235
     56  CA        37.1450   33.9750    6.7760 C.3   132  CYS132      0.1677
     57  C         36.9890   34.0530    5.2730 C.2   132  CYS132      0.2270
     58  O         37.8800   33.7120    4.5960 O.2   132  CYS132     -0.2867
     59  CB        37.7500   35.2460    7.3020 C.3   132  CYS132      0.0956
     60  SG        37.6470   35.2990    9.1220 S.3   132  CYS132     -0.0801
     61  N         34.0430   35.0480   14.8090 N.3   153  ALA153     -0.1231
     62  CA        33.4120   34.0780   15.6850 C.3   153  ALA153      0.1694
     63  C         33.8490   34.3260   17.1450 C.2   153  ALA153      0.2593
     64  O         34.8320   34.9380   17.3500 O.2   153  ALA153     -0.2718
     65  CB        33.7800   32.7280   15.3160 C.3   153  ALA153      0.0304
     66  N         33.0710   33.8620   18.1160 N.am  154  THR154     -0.1939
     67  CA        33.4890   33.9760   19.5150 C.3   154  THR154      0.2028
     68  C         34.6340   32.9830   19.7520 C.2   154  THR154      0.2642
     69  O         34.8290   32.0810   19.0300 O.2   154  THR154     -0.2714
     70  CB        32.3240   33.7730   20.4690 C.3   154  THR154      0.1808
     71  OG1       31.6980   32.5380   20.2110 O.3   154  THR154     -0.2208
     72  CG2       31.3430   34.8190   20.2870 C.3   154  THR154      0.0379
     73  N         35.4530   33.1890   20.7540 N.am  155  LYS155     -0.1977
     74  CA        36.6620   32.3690   20.8830 C.3   155  LYS155      0.1596
     75  C         36.3740   30.8620   20.7370 C.2   155  LYS155      0.2287
     76  O         37.0430   30.1670   19.9750 O.2   155  LYS155     -0.2864
     77  CB        37.3840   32.6590   22.1970 C.3   155  LYS155      0.0298
     78  CG        37.6550   34.1410   22.4100 C.3   155  LYS155      0.0038
     79  CD        38.6080   34.3520   23.5350 C.3   155  LYS155      0.0206
     80  CE        38.9540   35.8380   23.6710 C.3   155  LYS155      0.1093
     81  NZ        40.0800   36.2490   22.8030 N.3   155  LYS155     -0.1314
     82  N         33.9630   29.6640   19.2110 N.3   157  GLY157     -0.1225
     83  CA        33.3660   29.3830   17.9190 C.3   157  GLY157      0.1811
     84  C         31.8500   29.1550   17.9020 C.2   157  GLY157      0.2280
     85  O         31.2700   28.9010   16.8510 O.2   157  GLY157     -0.2866
@<TRIPOS>BOND
     1    20    19    2
     2    23    21    1
     3    19    18    1
     4     1     2    1
     5    21    18    1
     6    21    22    1
     7     2     3    1
     8     2     5    1
     9    18    17    1
    10     3     4    2
    11    17     9   am
    12    58    57    2
    13     5     6    1
    14    57    56    1
    15     7     8    1
    16     9    10    2
    17     9     8    1
    18     8    11    1
    19    56    55    1
    20    56    59    1
    21    59    60    1
    22    11    12    1
    23    12    14   ar
    24    12    13   ar
    25    14    16   ar
    26    13    15   ar
    27    16    15   ar
    28    51    50    2
    29    50    49    1
    30    47    45    1
    31    45    44    1
    32    43    42    2
    33    39    37    1
    34    49    48    1
    35    49    52    1
    36    42    48   am
    37    42    41    1
    38    37    34    1
    39    37    38    1
    40    40    41    1
    41    40    35   am
    42    48    54    1
    43    44    41    1
    44    44    46    1
    45    34    35    1
    46    34    33    1
    47    52    53    1
    48    35    36    2
    49    54    53    1
    50    61    62    1
    51    65    62    1
    52    62    63    1
    53    31    30    2
    54    27    26    2
    55    85    84    2
    56    28    29    1
    57    28    25    1
    58    30    29    1
    59    30    32   am
    60    63    64    2
    61    63    66   am
    62    26    25    1
    63    24    25    1
    64    84    83    1
    65    83    82    1
    66    66    67    1
    67    69    68    2
    68    67    68    1
    69    67    70    1
    70    68    73   am
    71    76    75    2
    72    71    70    1
    73    72    70    1
    74    75    74    1
    75    73    74    1
    76    74    77    1
    77    77    78    1
    78    78    79    1
    79    81    80    1
    80    79    80    1
