@<TRIPOS>MOLECULE
tmp/4in4A00.pdb
 118 110 0 0 0
SMALL
GASTEIGER

@<TRIPOS>ATOM
      1  N         12.4690    0.4920   33.4700 N.3    13  TYR13      -0.1241
      2  CA        12.8330    1.2100   34.6780 C.3    13  TYR13       0.1605
      3  C         11.6410    1.2450   35.6210 C.2    13  TYR13       0.2264
      4  O         10.5340    1.6760   35.2410 O.2    13  TYR13      -0.2867
      5  CB        13.2170    2.6690   34.3810 C.3    13  TYR13       0.0534
      6  CG        13.8220    3.3280   35.5890 C.ar   13  TYR13      -0.0201
      7  CD1       15.1470    3.1210   35.8900 C.ar   13  TYR13      -0.0009
      8  CD2       13.0660    4.1130   36.4510 C.ar   13  TYR13      -0.0009
      9  CE1       15.7350    3.6770   36.9960 C.ar   13  TYR13       0.0417
     10  CE2       13.6420    4.6810   37.5860 C.ar   13  TYR13       0.0417
     11  CZ        14.9870    4.4530   37.8570 C.ar   13  TYR13       0.1957
     12  OH        15.6240    4.9860   38.9740 O.3    13  TYR13      -0.2866
     13  N         17.3450   -0.0520   30.8950 N.3    42  SER42      -0.1202
     14  CA        16.2210    0.8220   30.5600 C.3    42  SER42       0.2020
     15  C         16.5510    1.6000   29.2680 C.2    42  SER42       0.2619
     16  O         17.6920    1.6970   28.8790 O.2    42  SER42      -0.2717
     17  CB        15.9940    1.7710   31.6990 C.3    42  SER42       0.2103
     18  OG        17.2380    2.2660   32.1060 O.3    42  SER42      -0.2182
     19  N         15.5280    2.0930   28.5820 N.am   43  GLY43      -0.1956
     20  CA        15.6900    2.8640   27.3430 C.3    43  GLY43       0.1869
     21  C         16.3930    2.1480   26.2140 C.2    43  GLY43       0.2309
     22  O         17.1140    2.7560   25.3900 O.2    43  GLY43      -0.2863
     23  N         20.5960    1.4300   29.0030 N.3    59  ARG59      -0.1245
     24  CA        21.5290    1.6900   30.0650 C.3    59  ARG59       0.1563
     25  C         21.0960    1.0160   31.3830 C.2    59  ARG59       0.2260
     26  O         19.8860    0.7930   31.5950 O.2    59  ARG59      -0.2867
     27  CB        21.6190    3.1660   30.2170 C.3    59  ARG59       0.0307
     28  CG        22.3030    3.6320   31.4690 C.3    59  ARG59       0.0489
     29  CD        21.3530    4.5950   32.1290 C.3    59  ARG59       0.2205
     30  NE        22.0040    5.8370   32.4760 N.pl3  59  ARG59      -0.0865
     31  CZ        21.4600    6.7460   33.2550 C.cat  59  ARG59       0.5346
     32  NH1       20.2480    6.5510   33.7760 N.pl3  59  ARG59       0.1354
     33  NH2       22.1460    7.8480   33.5140 N.pl3  59  ARG59       0.1354
     34  N         20.9850    1.4970   35.1150 N.3    61  ASN61      -0.1240
     35  CA        20.9770    2.2940   36.3130 C.3    61  ASN61       0.1653
     36  C         20.7830    1.2840   37.4680 C.2    61  ASN61       0.2266
     37  O         19.7100    0.6790   37.6210 O.2    61  ASN61      -0.2867
     38  CB        19.8630    3.3240   36.1760 C.3    61  ASN61       0.1155
     39  CG        19.6990    4.1860   37.4090 C.2    61  ASN61       0.2627
     40  OD1       20.3740    5.2180   37.5760 O.2    61  ASN61      -0.2716
     41  ND2       18.7540    3.7980   38.2660 N.am   61  ASN61      -0.0877
     42  N         21.9570    4.8280   24.7790 N.3    93  ASN93      -0.1225
     43  CA        20.8430    4.8290   25.6910 C.3    93  ASN93       0.1785
     44  C         19.7340    5.7120   25.1250 C.2    93  ASN93       0.2597
     45  O         19.9890    6.7100   24.4920 O.2    93  ASN93      -0.2718
     46  CB        21.3300    5.3480   27.0170 C.3    93  ASN93       0.1169
     47  CG        20.2660    5.3130   28.1090 C.2    93  ASN93       0.2627
     48  OD1       19.2940    4.5470   28.0560 O.2    93  ASN93      -0.2716
     49  ND2       20.4830    6.1250   29.1410 N.am   93  ASN93      -0.0877
     50  N         18.4940    5.3310   25.3510 N.am   94  ARG94      -0.1979
     51  CA        17.3460    6.0860   24.8760 C.3    94  ARG94       0.1597
     52  C         17.3400    6.1340   23.3740 C.2    94  ARG94       0.2287
     53  O         17.1960    7.1710   22.7560 O.2    94  ARG94      -0.2864
     54  CB        17.2690    7.4310   25.5540 C.3    94  ARG94       0.0334
     55  CG        17.2600    7.1900   27.0360 C.3    94  ARG94       0.0492
     56  CD        17.0690    8.4070   27.9040 C.3    94  ARG94       0.2205
     57  NE        18.3310    9.0600   28.2830 N.pl3  94  ARG94      -0.0865
     58  CZ        18.7650    9.2530   29.5270 C.cat  94  ARG94       0.5346
     59  NH1       18.1240    8.7930   30.5860 N.pl3  94  ARG94       0.1354
     60  NH2       19.8780    9.9250   29.7100 N.pl3  94  ARG94       0.1354
     61  N         15.8240    9.6490   22.9580 N.3   141  GLY141     -0.1225
     62  CA        14.3720    9.5050   23.0680 C.3   141  GLY141      0.1811
     63  C         13.6320    9.5470   21.7220 C.2   141  GLY141      0.2280
     64  O         12.5240   10.0830   21.6080 O.2   141  GLY141     -0.2866
     65  N          9.4940   14.0260   23.0370 N.3   187  SER187     -0.1202
     66  CA        10.6460   13.1900   23.2640 C.3   187  SER187      0.2020
     67  C         10.2090   12.0380   24.1250 C.2   187  SER187      0.2619
     68  O          9.3360   12.2110   24.9620 O.2   187  SER187     -0.2717
     69  CB        11.7760   13.9620   23.9280 C.3   187  SER187      0.2103
     70  OG        12.9580   13.1390   23.9250 O.3   187  SER187     -0.2182
     71  N         10.7890   10.8640   23.9140 N.am  188  GLY188     -0.1956
     72  CA        10.2790    9.6300   24.5300 C.3   188  GLY188      0.1869
     73  C          8.8700    9.1510   24.1400 C.2   188  GLY188      0.2309
     74  O          8.1610    8.4790   24.9170 O.2   188  GLY188     -0.2863
     75  N          5.2730    9.0490   28.9900 N.3   234  SER234     -0.1202
     76  CA         6.4950    9.2120   28.2750 C.3   234  SER234      0.2020
     77  C          7.2030    7.8880   28.4170 C.2   234  SER234      0.2618
     78  O          6.9190    7.1700   29.3570 O.2   234  SER234     -0.2717
     79  CB         7.2850   10.2600   28.9710 C.3   234  SER234      0.2103
     80  OG         8.5080   10.4010   28.3260 O.3   234  SER234     -0.2182
     81  N          8.1110    7.5540   27.5130 N.am  235  ALA235     -0.1979
     82  CA         8.8620    6.3190   27.6240 C.3   235  ALA235      0.1597
     83  C          7.9670    5.0570   27.6810 C.2   235  ALA235      0.2287
     84  O          8.2550    4.0770   28.3620 O.2   235  ALA235     -0.2864
     85  CB         9.7810    6.3940   28.8350 C.3   235  ALA235      0.0319
     86  N          5.8400    6.7420   32.0510 N.3   251  TYR251     -0.1241
     87  CA         5.8320    7.5820   33.2420 C.3   251  TYR251      0.1605
     88  C          4.9590    8.7690   32.9540 C.2   251  TYR251      0.2264
     89  O          5.0480    9.3480   31.8710 O.2   251  TYR251     -0.2867
     90  CB         7.2360    8.0660   33.5320 C.3   251  TYR251      0.0534
     91  CG         7.3920    8.9890   34.7250 C.ar  251  TYR251     -0.0201
     92  CD1        7.1590    8.5450   36.0150 C.ar  251  TYR251     -0.0009
     93  CD2        7.8410   10.2820   34.5800 C.ar  251  TYR251     -0.0009
     94  CE1        7.3350    9.3870   37.1110 C.ar  251  TYR251      0.0417
     95  CE2        8.0310   11.1210   35.6770 C.ar  251  TYR251      0.0417
     96  CZ         7.7850   10.6760   36.9370 C.ar  251  TYR251      0.1957
     97  OH         7.9940   11.5050   38.0470 O.3   251  TYR251     -0.2866
     98  N          4.7950    5.3720   37.6470 N.3   256  PHE256     -0.1241
     99  CA         5.2070    4.4310   36.6200 C.3   256  PHE256      0.1605
    100  C          4.0190    3.4920   36.4030 C.2   256  PHE256      0.2264
    101  O          3.6460    2.7060   37.2720 O.2   256  PHE256     -0.2867
    102  CB         6.4720    3.6800   37.0310 C.3   256  PHE256      0.0534
    103  CG         7.6740    4.5680   37.1370 C.ar  256  PHE256     -0.0203
    104  CD1        7.9570    5.2380   38.3250 C.ar  256  PHE256     -0.0042
    105  CD2        8.4790    4.7920   36.0290 C.ar  256  PHE256     -0.0042
    106  CE1        9.0510    6.0810   38.4070 C.ar  256  PHE256     -0.0003
    107  CE2        9.5690    5.6250   36.1080 C.ar  256  PHE256     -0.0003
    108  CZ         9.8610    6.2830   37.2910 C.ar  256  PHE256     -0.0000
    109  N          8.6310    1.9910   33.0820 N.3   281  SER281     -0.1202
    110  CA         8.8120    2.7930   31.8770 C.3   281  SER281      0.2020
    111  C         10.0510    2.3370   31.1130 C.2   281  SER281      0.2619
    112  O         10.8260    1.5440   31.6150 O.2   281  SER281     -0.2717
    113  CB         8.9620    4.2400   32.2510 C.3   281  SER281      0.2103
    114  OG        10.1970    4.4670   32.9380 O.3   281  SER281     -0.2182
    115  N         10.2100    2.7930   29.8740 N.am  282  GLY282     -0.1956
    116  CA        11.4690    2.5660   29.1330 C.3   282  GLY282      0.1869
    117  C         11.7940    1.1420   28.7170 C.2   282  GLY282      0.2309
    118  O         12.9620    0.7640   28.6700 O.2   282  GLY282     -0.2863
@<TRIPOS>BOND
     1    64    63    2
     2    63    62    1
     3    53    52    2
     4    61    62    1
     5    65    66    1
     6    66    69    1
     7    66    67    1
     8    52    51    1
     9    71    67   am
    10    71    72    1
    11    70    69    1
    12    67    68    2
    13    73    72    1
    14    73    74    2
    15    45    44    2
    16    42    43    1
    17    51    50    1
    18    51    54    1
    19    44    50   am
    20    44    43    1
    21    22    21    2
    22    54    55    1
    23    43    46    1
    24    21    20    1
    25    46    47    1
    26    55    56    1
    27    20    19    1
    28    81    82    1
    29    81    77   am
    30    82    83    1
    31    82    85    1
    32    83    84    2
    33    56    57    1
    34    48    47    2
    35    47    49   am
    36    76    77    1
    37    76    79    1
    38    76    75    1
    39    57    58    2
    40    80    79    1
    41    77    78    2
    42    19    15   am
    43   118   117    2
    44   117   116    1
    45    16    15    2
    46    23    24    1
    47   116   115    1
    48    15    14    1
    49    58    60    1
    50    58    59    1
    51   115   111   am
    52    24    27    1
    53    24    25    1
    54    27    28    1
    55    14    13    1
    56    14    17    1
    57   111   112    2
    58   111   110    1
    59    25    26    2
    60    28    29    1
    61    17    18    1
    62    89    88    2
    63   110   113    1
    64   110   109    1
    65    86    87    1
    66    29    30    1
    67   113   114    1
    68    30    31    2
    69    88    87    1
    70    87    90    1
    71    31    33    1
    72    31    32    1
    73     1     2    1
    74    90    91    1
    75     5     2    1
    76     5     6    1
    77    93    91   ar
    78    93    95   ar
    79     2     3    1
    80    91    92   ar
    81    34    35    1
    82     4     3    2
    83     6     7   ar
    84     6     8   ar
    85    95    96   ar
    86     7     9   ar
    87    92    94   ar
    88   105   107   ar
    89   105   103   ar
    90   107   108   ar
    91    38    35    1
    92    38    39    1
    93    35    36    1
    94   100    99    1
    95   100   101    2
    96     8    10   ar
    97    99   102    1
    98    99    98    1
    99    96    94   ar
   100    96    97    1
   101     9    11   ar
   102   102   103    1
   103   103   104   ar
   104   108   106   ar
   105    39    40    2
   106    39    41   am
   107    36    37    2
   108    10    11   ar
   109    11    12    1
   110   104   106   ar
