@<TRIPOS>MOLECULE
tmp/4in4A01.pdb
 109 103 0 0 0
SMALL
GASTEIGER

@<TRIPOS>ATOM
      1  N         18.4940    5.3310   25.3510 N.3    94  ARG94      -0.1245
      2  CA        17.3460    6.0860   24.8760 C.3    94  ARG94       0.1563
      3  C         17.3400    6.1340   23.3740 C.2    94  ARG94       0.2260
      4  O         17.1960    7.1710   22.7560 O.2    94  ARG94      -0.2867
      5  CB        17.2690    7.4310   25.5540 C.3    94  ARG94       0.0307
      6  CG        17.2600    7.1900   27.0360 C.3    94  ARG94       0.0489
      7  CD        17.0690    8.4070   27.9040 C.3    94  ARG94       0.2205
      8  NE        18.3310    9.0600   28.2830 N.pl3  94  ARG94      -0.0865
      9  CZ        18.7650    9.2530   29.5270 C.cat  94  ARG94       0.5346
     10  NH1       18.1240    8.7930   30.5860 N.pl3  94  ARG94       0.1354
     11  NH2       19.8780    9.9250   29.7100 N.pl3  94  ARG94       0.1354
     12  N         25.0150   13.2730   22.6590 N.3   115  HIS115     -0.1241
     13  CA        23.7640   12.9910   22.0080 C.3   115  HIS115      0.1621
     14  C         24.0330   12.5770   20.5530 C.2   115  HIS115      0.2264
     15  O         24.3530   13.3930   19.7380 O.2   115  HIS115     -0.2867
     16  CB        22.8990   14.2250   22.1370 C.3   115  HIS115      0.0745
     17  CG        22.6480   14.6100   23.5690 C.ar  115  HIS115      0.0817
     18  ND1       23.5450   15.3540   24.3130 N.ar  115  HIS115     -0.2268
     19  CD2       21.6270   14.3050   24.4120 C.ar  115  HIS115      0.1154
     20  CE1       23.0830   15.4980   25.5430 C.ar  115  HIS115      0.1986
     21  NE2       21.9210   14.8710   25.6280 N.ar  115  HIS115     -0.2212
     22  N         18.1090   11.7280   21.0680 N.3   140  ILE140     -0.1231
     23  CA        17.8510   10.7130   22.0810 C.3   140  ILE140      0.1692
     24  C         16.3450   10.7270   22.3910 C.2   140  ILE140      0.2592
     25  O         15.6580   11.7200   22.1240 O.2   140  ILE140     -0.2718
     26  CB        18.6540   11.0120   23.3630 C.3   140  ILE140      0.0266
     27  CG1       17.9650   12.0930   24.2110 C.3   140  ILE140      0.0019
     28  CG2       20.0730   11.4320   22.9960 C.3   140  ILE140      0.0020
     29  CD1       18.3400   12.0390   25.6680 C.3   140  ILE140      0.0001
     30  N         15.8240    9.6490   22.9580 N.am  141  GLY141     -0.1957
     31  CA        14.3720    9.5050   23.0680 C.3   141  GLY141      0.1869
     32  C         13.6320    9.5470   21.7220 C.2   141  GLY141      0.2309
     33  O         12.5240   10.0830   21.6080 O.2   141  GLY141     -0.2863
     34  N         15.2820   14.4870   21.5600 N.3   157  PHE157     -0.1241
     35  CA        15.9230   15.6150   22.2530 C.3   157  PHE157      0.1605
     36  C         17.3230   15.7100   21.7280 C.2   157  PHE157      0.2264
     37  O         17.9870   14.7060   21.6380 O.2   157  PHE157     -0.2867
     38  CB        15.9350   15.3260   23.7720 C.3   157  PHE157      0.0534
     39  CG        16.6640   16.3630   24.6400 C.ar  157  PHE157     -0.0203
     40  CD1       16.0850   17.5840   24.9320 C.ar  157  PHE157     -0.0042
     41  CD2       17.8770   16.0570   25.2550 C.ar  157  PHE157     -0.0042
     42  CE1       16.7130   18.5000   25.7590 C.ar  157  PHE157     -0.0003
     43  CE2       18.5040   16.9700   26.0710 C.ar  157  PHE157     -0.0003
     44  CZ        17.9290   18.2040   26.3070 C.ar  157  PHE157     -0.0000
     45  N         13.7970   19.7760   23.0540 N.3   162  ARG162     -0.1245
     46  CA        12.9470   18.6620   22.6900 C.3   162  ARG162      0.1563
     47  C         12.3580   18.9620   21.3350 C.2   162  ARG162      0.2260
     48  O         12.1150   20.1100   20.9910 O.2   162  ARG162     -0.2867
     49  CB        11.9520   18.3660   23.8170 C.3   162  ARG162      0.0307
     50  CG        12.8080   17.7540   24.9410 C.3   162  ARG162      0.0489
     51  CD        12.3260   17.7470   26.3720 C.3   162  ARG162      0.2205
     52  NE        12.9090   18.8780   27.0480 N.pl3 162  ARG162     -0.0865
     53  CZ        13.6530   18.8560   28.1440 C.cat 162  ARG162      0.5346
     54  NH1       13.9670   17.7410   28.7630 N.pl3 162  ARG162      0.1354
     55  NH2       14.0670   20.0120   28.6280 N.pl3 162  ARG162      0.1354
     56  N          9.4940   14.0260   23.0370 N.3   187  SER187     -0.1202
     57  CA        10.6460   13.1900   23.2640 C.3   187  SER187      0.2020
     58  C         10.2090   12.0380   24.1250 C.2   187  SER187      0.2619
     59  O          9.3360   12.2110   24.9620 O.2   187  SER187     -0.2717
     60  CB        11.7760   13.9620   23.9280 C.3   187  SER187      0.2103
     61  OG        12.9580   13.1390   23.9250 O.3   187  SER187     -0.2182
     62  N         10.7890   10.8640   23.9140 N.am  188  GLY188     -0.1956
     63  CA        10.2790    9.6300   24.5300 C.3   188  GLY188      0.1869
     64  C          8.8700    9.1510   24.1400 C.2   188  GLY188      0.2309
     65  O          8.1610    8.4790   24.9170 O.2   188  GLY188     -0.2863
     66  N          7.1060   13.3700   25.8360 N.3   204  TYR204     -0.1241
     67  CA         7.3650   14.5120   26.6810 C.3   204  TYR204      0.1605
     68  C          7.6740   15.7360   25.8630 C.2   204  TYR204      0.2264
     69  O          8.4230   15.6730   24.9010 O.2   204  TYR204     -0.2867
     70  CB         8.5470   14.1890   27.5590 C.3   204  TYR204      0.0534
     71  CG         8.8300   15.2000   28.6140 C.ar  204  TYR204     -0.0201
     72  CD1        7.9230   15.4400   29.6240 C.ar  204  TYR204     -0.0009
     73  CD2       10.0050   15.9060   28.6040 C.ar  204  TYR204     -0.0009
     74  CE1        8.1790   16.3640   30.6190 C.ar  204  TYR204      0.0417
     75  CE2       10.2700   16.8490   29.5670 C.ar  204  TYR204      0.0417
     76  CZ         9.3600   17.0630   30.5840 C.ar  204  TYR204      0.1957
     77  OH         9.6710   17.9760   31.5410 O.3   204  TYR204     -0.2866
     78  N          4.2040   15.3270   30.4070 N.3   209  GLN209     -0.1245
     79  CA         4.0320   14.1290   29.6220 C.3   209  GLN209      0.1566
     80  C          2.6390   14.0710   28.9800 C.2   209  GLN209      0.2260
     81  O          1.6640   14.5890   29.5080 O.2   209  GLN209     -0.2867
     82  CB         4.4520   12.8330   30.3430 C.3   209  GLN209      0.0367
     83  CG         4.4190   12.7620   31.8340 C.3   209  GLN209      0.0905
     84  CD         5.3960   13.6580   32.5140 C.2   209  GLN209      0.2608
     85  OE1        4.9890   14.4960   33.2720 O.2   209  GLN209     -0.2717
     86  NE2        6.6700   13.5030   32.2490 N.am  209  GLN209     -0.0878
     87  N          5.2730    9.0490   28.9900 N.3   234  SER234     -0.1202
     88  CA         6.4950    9.2120   28.2750 C.3   234  SER234      0.2020
     89  C          7.2030    7.8880   28.4170 C.2   234  SER234      0.2618
     90  O          6.9190    7.1700   29.3570 O.2   234  SER234     -0.2717
     91  CB         7.2850   10.2600   28.9710 C.3   234  SER234      0.2103
     92  OG         8.5080   10.4010   28.3260 O.3   234  SER234     -0.2182
     93  N          8.1110    7.5540   27.5130 N.am  235  ALA235     -0.1979
     94  CA         8.8620    6.3190   27.6240 C.3   235  ALA235      0.1597
     95  C          7.9670    5.0570   27.6810 C.2   235  ALA235      0.2287
     96  O          8.2550    4.0770   28.3620 O.2   235  ALA235     -0.2864
     97  CB         9.7810    6.3940   28.8350 C.3   235  ALA235      0.0319
     98  N          5.8400    6.7420   32.0510 N.3   251  TYR251     -0.1241
     99  CA         5.8320    7.5820   33.2420 C.3   251  TYR251      0.1605
    100  C          4.9590    8.7690   32.9540 C.2   251  TYR251      0.2264
    101  O          5.0480    9.3480   31.8710 O.2   251  TYR251     -0.2867
    102  CB         7.2360    8.0660   33.5320 C.3   251  TYR251      0.0534
    103  CG         7.3920    8.9890   34.7250 C.ar  251  TYR251     -0.0201
    104  CD1        7.1590    8.5450   36.0150 C.ar  251  TYR251     -0.0009
    105  CD2        7.8410   10.2820   34.5800 C.ar  251  TYR251     -0.0009
    106  CE1        7.3350    9.3870   37.1110 C.ar  251  TYR251      0.0417
    107  CE2        8.0310   11.1210   35.6770 C.ar  251  TYR251      0.0417
    108  CZ         7.7850   10.6760   36.9370 C.ar  251  TYR251      0.1957
    109  OH         7.9940   11.5050   38.0470 O.3   251  TYR251     -0.2866
@<TRIPOS>BOND
     1    15    14    2
     2    14    13    1
     3    48    47    2
     4    22    23    1
     5    47    46    1
     6    34    35    1
     7    33    32    2
     8    37    36    2
     9    32    31    1
    10    36    35    1
    11    13    16    1
    12    13    12    1
    13    23    24    1
    14    23    26    1
    15    25    24    2
    16    16    17    1
    17    35    38    1
    18    24    30   am
    19    46    45    1
    20    46    49    1
    21     4     3    2
    22    30    31    1
    23    28    26    1
    24    56    57    1
    25    57    60    1
    26    57    58    1
    27    26    27    1
    28     3     2    1
    29    17    18   ar
    30    17    19   ar
    31    38    39    1
    32    49    50    1
    33    62    58   am
    34    62    63    1
    35    61    60    1
    36    58    59    2
    37    64    63    1
    38    64    65    2
    39    27    29    1
    40    18    20   ar
    41    19    21   ar
    42    39    40   ar
    43    39    41   ar
    44     2     1    1
    45     2     5    1
    46    69    68    2
    47    40    42   ar
    48    50    51    1
    49    41    43   ar
    50    20    21   ar
    51     5     6    1
    52    42    44   ar
    53    66    67    1
    54    68    67    1
    55    43    44   ar
    56    51    52    1
    57    67    70    1
    58     6     7    1
    59    52    53    2
    60    93    94    1
    61    93    89   am
    62    70    71    1
    63    94    95    1
    64    94    97    1
    65    95    96    2
    66     7     8    1
    67    53    55    1
    68    53    54    1
    69    88    89    1
    70    88    91    1
    71    88    87    1
    72     8     9    2
    73    92    91    1
    74    89    90    2
    75    73    71   ar
    76    73    75   ar
    77    71    72   ar
    78    80    81    2
    79    80    79    1
    80     9    11    1
    81     9    10    1
    82    75    76   ar
    83    79    82    1
    84    79    78    1
    85    72    74   ar
    86    82    83    1
    87    76    74   ar
    88    76    77    1
    89    83    84    1
    90   101   100    2
    91    98    99    1
    92    86    84   am
    93    84    85    2
    94   100    99    1
    95    99   102    1
    96   102   103    1
    97   105   103   ar
    98   105   107   ar
    99   103   104   ar
   100   107   108   ar
   101   104   106   ar
   102   108   106   ar
   103   108   109    1
