@<TRIPOS>MOLECULE
tmp/4in5A00.pdb
 115 116 0 0 0
SMALL
GASTEIGER

@<TRIPOS>ATOM
      1  N          2.9170   82.2660   25.5820 N.3    97  PHE97      -0.1241
      2  CA         4.2150   81.7230   25.9530 C.3    97  PHE97       0.1605
      3  C          4.0840   80.2060   26.1800 C.2    97  PHE97       0.2264
      4  O          4.9080   79.4570   25.7270 O.2    97  PHE97      -0.2867
      5  CB         4.7770   82.3640   27.2280 C.3    97  PHE97       0.0534
      6  CG         5.0450   83.8680   27.1300 C.ar   97  PHE97      -0.0203
      7  CD1        5.1790   84.5200   25.9150 C.ar   97  PHE97      -0.0042
      8  CD2        5.1530   84.6200   28.2900 C.ar   97  PHE97      -0.0042
      9  CE1        5.4250   85.8730   25.8600 C.ar   97  PHE97      -0.0003
     10  CE2        5.3690   85.9870   28.2440 C.ar   97  PHE97      -0.0003
     11  CZ         5.5220   86.6060   27.0270 C.ar   97  PHE97      -0.0000
     12  N          8.8520   85.1620   34.3940 N.3   128  TYR128     -0.1241
     13  CA         7.8470   86.1270   33.9580 C.3   128  TYR128      0.1605
     14  C          6.6400   86.0290   34.9120 C.2   128  TYR128      0.2264
     15  O          6.2330   87.0340   35.5220 O.2   128  TYR128     -0.2867
     16  CB         7.4160   85.9010   32.5100 C.3   128  TYR128      0.0534
     17  CG         6.1680   86.6890   32.0920 C.ar  128  TYR128     -0.0201
     18  CD1        6.2260   88.0650   31.8450 C.ar  128  TYR128     -0.0009
     19  CD2        4.9540   86.0660   31.9660 C.ar  128  TYR128     -0.0009
     20  CE1        5.1080   88.7860   31.4760 C.ar  128  TYR128      0.0417
     21  CE2        3.8080   86.7800   31.6120 C.ar  128  TYR128      0.0417
     22  CZ         3.8710   88.1420   31.3790 C.ar  128  TYR128      0.1957
     23  OH         2.7100   88.8510   31.0080 O.3   128  TYR128     -0.2866
     24  N          7.0930   87.4950   38.4330 N.3   131  LEU131     -0.1245
     25  CA         6.9360   88.9500   38.4500 C.3   131  LEU131      0.1561
     26  C          5.4950   89.4890   38.2670 C.2   131  LEU131      0.2260
     27  O          5.1500   90.5330   38.8660 O.2   131  LEU131     -0.2867
     28  CB         7.8290   89.6130   37.3940 C.3   131  LEU131      0.0270
     29  CG         9.3300   89.3140   37.6140 C.3   131  LEU131      0.0019
     30  CD1       10.1710   89.9910   36.5550 C.3   131  LEU131      0.0001
     31  CD2        9.8170   89.7040   38.9800 C.3   131  LEU131      0.0001
     32  N          5.2130   94.6360   36.8670 N.3   146  PHE146     -0.1241
     33  CA         5.9060   95.6270   36.0810 C.3   146  PHE146      0.1605
     34  C          5.0430   96.0640   34.9270 C.2   146  PHE146      0.2264
     35  O          4.2040   95.3160   34.5120 O.2   146  PHE146     -0.2867
     36  CB         7.2830   95.1250   35.5600 C.3   146  PHE146      0.0534
     37  CG         7.2460   93.9310   34.6080 C.ar  146  PHE146     -0.0203
     38  CD1        7.3600   92.6490   35.1000 C.ar  146  PHE146     -0.0042
     39  CD2        7.2550   94.1180   33.2290 C.ar  146  PHE146     -0.0042
     40  CE1        7.3930   91.5790   34.2280 C.ar  146  PHE146     -0.0003
     41  CE2        7.3390   93.0550   32.3590 C.ar  146  PHE146     -0.0003
     42  CZ         7.3670   91.7800   32.8690 C.ar  146  PHE146     -0.0000
     43  N          4.3930   97.2960   30.9280 N.3   148  TYR148     -0.1241
     44  CA         4.8230   96.9030   29.6420 C.3   148  TYR148      0.1605
     45  C          5.1290   98.1190   28.8710 C.2   148  TYR148      0.2264
     46  O          4.3330   98.6050   28.0900 O.2   148  TYR148     -0.2867
     47  CB         3.8080   95.9770   28.9480 C.3   148  TYR148      0.0534
     48  CG         3.4450   94.7280   29.7400 C.ar  148  TYR148     -0.0201
     49  CD1        4.3440   94.1100   30.5800 C.ar  148  TYR148     -0.0009
     50  CD2        2.1920   94.1940   29.6520 C.ar  148  TYR148     -0.0009
     51  CE1        3.9820   92.9920   31.3250 C.ar  148  TYR148      0.0417
     52  CE2        1.8150   93.0960   30.3840 C.ar  148  TYR148      0.0417
     53  CZ         2.7300   92.4860   31.2080 C.ar  148  TYR148      0.1957
     54  OH         2.3300   91.3660   31.9230 O.3   148  TYR148     -0.2866
     55  N          9.0490   99.9630   27.1990 N.3   150  ILE150     -0.1231
     56  CA        10.4510   99.7240   27.0120 C.3   150  ILE150      0.1692
     57  C         11.2570  100.3690   28.1030 C.2   150  ILE150      0.2592
     58  O         12.1260   99.7270   28.7240 O.2   150  ILE150     -0.2718
     59  CB        10.8740  100.1790   25.6050 C.3   150  ILE150      0.0266
     60  CG1       10.2720   99.1900   24.5930 C.3   150  ILE150      0.0019
     61  CG2       12.3840  100.2570   25.4850 C.3   150  ILE150      0.0020
     62  CD1       10.4290   99.6160   23.1640 C.3   150  ILE150      0.0001
     63  N         10.9880  101.6460   28.3280 N.am  151  TRP151     -0.1976
     64  CA        11.6840  102.3960   29.3720 C.3   151  TRP151      0.1640
     65  C         10.9650  102.3410   30.6830 C.2   151  TRP151      0.2290
     66  O         11.6210  102.2700   31.7340 O.2   151  TRP151     -0.2864
     67  CB        11.9010  103.8460   28.9360 C.3   151  TRP151      0.0576
     68  CG        12.8510  103.8960   27.8360 C.ar  151  TRP151      0.0006
     69  CD1       12.5700  104.1150   26.5190 C.ar  151  TRP151      0.0946
     70  CD2       14.2560  103.6470   27.9130 C.ar  151  TRP151      0.0152
     71  NE1       13.7170  104.0340   25.7760 N.ar  151  TRP151     -0.2442
     72  CE2       14.7700  103.7570   26.6100 C.ar  151  TRP151      0.0810
     73  CE3       15.1360  103.3910   28.9600 C.ar  151  TRP151      0.0012
     74  CZ2       16.1250  103.5930   26.3230 C.ar  151  TRP151      0.0191
     75  CZ3       16.5080  103.2250   28.6670 C.ar  151  TRP151      0.0001
     76  CH2       16.9720  103.3180   27.3730 C.ar  151  TRP151      0.0015
     77  N          9.5170   99.8300   32.1270 N.3   153  HIS153     -0.1226
     78  CA         9.8320   98.6150   32.9440 C.3   153  HIS153      0.1752
     79  C         11.1460   98.7210   33.6720 C.2   153  HIS153      0.2595
     80  O         11.2970   98.1890   34.7770 O.2   153  HIS153     -0.2718
     81  CB         9.6120   97.2770   32.1250 C.3   153  HIS153      0.0759
     82  CG        10.7720   96.8070   31.2980 C.ar  153  HIS153      0.0818
     83  ND1       11.2570   97.5110   30.2180 N.ar  153  HIS153     -0.2268
     84  CD2       11.4800   95.6460   31.3490 C.ar  153  HIS153      0.1154
     85  CE1       12.2370   96.8160   29.6540 C.ar  153  HIS153      0.1986
     86  NE2       12.3670   95.6700   30.2980 N.ar  153  HIS153     -0.2212
     87  N         12.0700   99.4750   33.0900 N.am  154  LEU154     -0.1980
     88  CA        13.3230   99.8820   33.7550 C.3   154  LEU154      0.1596
     89  C         13.1600  100.8150   34.9690 C.2   154  LEU154      0.2287
     90  O         13.8730  100.6270   35.9950 O.2   154  LEU154     -0.2864
     91  CB        14.2700  100.5490   32.7340 C.3   154  LEU154      0.0297
     92  CG        15.1560   99.4540   32.0670 C.3   154  LEU154      0.0022
     93  CD1       14.4040   98.4170   31.2660 C.3   154  LEU154      0.0001
     94  CD2       16.2720  100.0500   31.2190 C.3   154  LEU154      0.0001
     95  N         10.5050  100.6480   36.7900 N.3   156  TRP156     -0.1227
     96  CA        10.0160   99.6690   37.7930 C.3   156  TRP156      0.1737
     97  C         11.1430   98.8770   38.4570 C.2   156  TRP156      0.2595
     98  O         11.1170   98.6120   39.6570 O.2   156  TRP156     -0.2718
     99  CB         9.0100   98.7500   37.1780 C.3   156  TRP156      0.0564
    100  CG         8.5040   97.6640   38.0860 C.ar  156  TRP156      0.0003
    101  CD1        7.3340   97.6590   38.8350 C.ar  156  TRP156      0.0946
    102  CD2        9.1080   96.3900   38.2890 C.ar  156  TRP156      0.0152
    103  NE1        7.2230   96.4780   39.5220 N.ar  156  TRP156     -0.2442
    104  CE2        8.2800   95.6710   39.1950 C.ar  156  TRP156      0.0810
    105  CE3       10.2570   95.7850   37.8000 C.ar  156  TRP156      0.0012
    106  CZ2        8.5760   94.3780   39.6170 C.ar  156  TRP156      0.0191
    107  CZ3       10.5640   94.4840   38.2520 C.ar  156  TRP156      0.0001
    108  CH2        9.7420   93.8250   39.1590 C.ar  156  TRP156      0.0015
    109  N         12.1300   98.5030   37.6620 N.am  157  VAL157     -0.1980
    110  CA        13.2620   97.7450   38.1630 C.3   157  VAL157      0.1595
    111  C         14.0110   98.6180   39.1510 C.2   157  VAL157      0.2287
    112  O         14.3390   98.1920   40.2510 O.2   157  VAL157     -0.2864
    113  CB        14.2280   97.2850   37.0260 C.3   157  VAL157      0.0276
    114  CG1       15.4840   96.6770   37.6530 C.3   157  VAL157      0.0022
    115  CG2       13.5740   96.2220   36.1690 C.3   157  VAL157      0.0022
@<TRIPOS>BOND
     1    62    60    1
     2    60    59    1
     3    61    59    1
     4     1     2    1
     5    59    56    1
     6     4     3    2
     7    71    69   ar
     8    71    72   ar
     9     9     7   ar
    10     9    11   ar
    11     7     6   ar
    12     2     3    1
    13     2     5    1
    14    74    72   ar
    15    74    76   ar
    16    69    68   ar
    17    72    70   ar
    18    56    55    1
    19    56    57    1
    20    11    10   ar
    21     6     5    1
    22     6     8   ar
    23    76    75   ar
    24    68    70   ar
    25    68    67    1
    26    70    73   ar
    27    46    45    2
    28    57    63   am
    29    57    58    2
    30    10     8   ar
    31    63    64    1
    32    75    73   ar
    33    45    44    1
    34    67    64    1
    35    47    44    1
    36    47    48    1
    37    64    65    1
    38    44    43    1
    39    50    48   ar
    40    50    52   ar
    41    85    83   ar
    42    85    86   ar
    43    48    49   ar
    44    83    82   ar
    45    86    84   ar
    46    52    53   ar
    47    49    51   ar
    48    65    66    2
    49    23    22    1
    50    53    51   ar
    51    53    54    1
    52    94    92    1
    53    93    92    1
    54    82    84   ar
    55    82    81    1
    56    22    20   ar
    57    22    21   ar
    58    20    18   ar
    59    21    19   ar
    60    18    17   ar
    61    19    17   ar
    62    92    91    1
    63    17    16    1
    64    81    78    1
    65    77    78    1
    66    41    42   ar
    67    41    39   ar
    68    16    13    1
    69    91    88    1
    70    42    40   ar
    71    78    79    1
    72    87    79   am
    73    87    88    1
    74    39    37   ar
    75    79    80    2
    76    88    89    1
    77    13    12    1
    78    13    14    1
    79    40    38   ar
    80    35    34    2
    81    37    38   ar
    82    37    36    1
    83    14    15    2
    84    34    33    1
    85    89    90    2
    86    36    33    1
    87    33    32    1
    88   115   113    1
    89    30    29    1
    90    95    96    1
    91   113   114    1
    92   113   110    1
    93    99    96    1
    94    99   100    1
    95    28    29    1
    96    28    25    1
    97    29    31    1
    98   109   110    1
    99   109    97   am
   100    96    97    1
   101   105   107   ar
   102   105   102   ar
   103   100   102   ar
   104   100   101   ar
   105   110   111    1
   106   107   108   ar
   107    26    25    1
   108    26    27    2
   109   102   104   ar
   110    24    25    1
   111    97    98    2
   112   101   103   ar
   113   111   112    2
   114   108   106   ar
   115   104   103   ar
   116   104   106   ar
