@<TRIPOS>MOLECULE
tmp/4in7C00.pdb
 126 124 0 0 0
SMALL
GASTEIGER

@<TRIPOS>ATOM
      1  N         43.2110   77.5330   16.7730 N.3   143  GLY143     -0.1210
      2  CA        42.8900   78.9290   16.6420 C.3   143  GLY143      0.1956
      3  C         43.0730   79.6630   17.9660 C.2   143  GLY143      0.2612
      4  O         43.1950   79.0450   19.0670 O.2   143  GLY143     -0.2717
      5  N         43.0680   80.9920   17.8650 N.am  144  LYS144     -0.1965
      6  CA        43.2850   81.8730   19.0400 C.3   144  LYS144      0.1728
      7  C         41.9920   82.4840   19.6240 C.2   144  LYS144      0.2616
      8  O         42.0460   83.4850   20.3460 O.2   144  LYS144     -0.2715
      9  CB        44.2850   82.9850   18.6880 C.3   144  LYS144      0.0311
     10  CG        45.6310   82.5090   18.1770 C.3   144  LYS144      0.0038
     11  CD        46.2950   81.4490   19.0640 C.3   144  LYS144      0.0206
     12  CE        47.5240   80.8860   18.3880 C.3   144  LYS144      0.1093
     13  NZ        47.2040   80.0790   17.1670 N.3   144  LYS144     -0.1314
     14  N         40.8590   81.8460   19.3520 N.am  145  HIS145     -0.1973
     15  CA        39.5710   82.3790   19.7340 C.3   145  HIS145      0.1656
     16  C         39.4620   82.5760   21.2220 C.2   145  HIS145      0.2291
     17  O         38.9190   83.5630   21.6610 O.2   145  HIS145     -0.2864
     18  CB        38.4590   81.4700   19.2760 C.3   145  HIS145      0.0771
     19  CG        38.4730   81.2350   17.8050 C.ar  145  HIS145      0.0820
     20  ND1       39.3450   80.3540   17.2040 N.ar  145  HIS145     -0.2267
     21  CD2       37.7430   81.7760   16.8120 C.ar  145  HIS145      0.1154
     22  CE1       39.1190   80.3380   15.9070 C.ar  145  HIS145      0.1986
     23  NE2       38.1560   81.1940   15.6440 N.ar  145  HIS145     -0.2212
     24  N         41.3300   85.6890   22.1740 N.3   148  TRP148     -0.1227
     25  CA        40.5590   86.8910   21.7140 C.3   148  TRP148      0.1737
     26  C         39.3140   87.1200   22.5820 C.2   148  TRP148      0.2595
     27  O         39.0910   88.2210   23.0280 O.2   148  TRP148     -0.2718
     28  CB        40.2780   86.9490   20.1940 C.3   148  TRP148      0.0564
     29  CG        41.5530   86.8030   19.3690 C.ar  148  TRP148      0.0003
     30  CD1       41.7680   85.8890   18.3720 C.ar  148  TRP148      0.0946
     31  CD2       42.8160   87.5270   19.5180 C.ar  148  TRP148      0.0152
     32  NE1       43.0590   86.0120   17.8770 N.ar  148  TRP148     -0.2442
     33  CE2       43.7210   86.9960   18.5670 C.ar  148  TRP148      0.0810
     34  CE3       43.2590   88.5610   20.3470 C.ar  148  TRP148      0.0012
     35  CZ2       45.0430   87.4560   18.4380 C.ar  148  TRP148      0.0191
     36  CZ3       44.5800   89.0200   20.2080 C.ar  148  TRP148      0.0001
     37  CH2       45.4470   88.4650   19.2660 C.ar  148  TRP148      0.0015
     38  N         38.5740   86.0700   22.9060 N.am  149  ALA149     -0.1980
     39  CA        37.4160   86.1970   23.7820 C.3   149  ALA149      0.1597
     40  C         37.7870   86.6690   25.1780 C.2   149  ALA149      0.2287
     41  O         37.1430   87.5570   25.7500 O.2   149  ALA149     -0.2864
     42  CB        36.6740   84.8820   23.8770 C.3   149  ALA149      0.0319
     43  N         40.0950   88.5000   25.9550 N.3   151  LEU151     -0.1231
     44  CA        40.5380   89.8680   25.8820 C.3   151  LEU151      0.1693
     45  C         39.3400   90.8250   26.0840 C.2   151  LEU151      0.2592
     46  O         39.4710   91.9240   26.6490 O.2   151  LEU151     -0.2718
     47  CB        41.2980   90.0800   24.5700 C.3   151  LEU151      0.0284
     48  CG        42.1720   91.3470   24.4270 C.3   151  LEU151      0.0019
     49  CD1       43.3310   91.3450   25.4170 C.3   151  LEU151      0.0001
     50  CD2       42.7220   91.5130   23.0130 C.3   151  LEU151      0.0001
     51  N         38.1590   90.3710   25.6780 N.am  152  SER152     -0.1952
     52  CA        36.9420   91.1200   25.9130 C.3   152  SER152      0.1924
     53  C         36.6680   91.3250   27.4130 C.2   152  SER152      0.2314
     54  O         36.3190   92.4710   27.8680 O.2   152  SER152     -0.2863
     55  CB        35.7770   90.4210   25.2740 C.3   152  SER152      0.2116
     56  OG        34.7140   91.3580   25.1050 O.3   152  SER152     -0.2180
     57  N         39.2040   93.6770   28.8370 N.3   155  TRP155     -0.1241
     58  CA        38.8910   95.0650   28.5090 C.3   155  TRP155      0.1605
     59  C         38.0260   95.7160   29.6120 C.2   155  TRP155      0.2264
     60  O         38.4080   96.7280   30.1500 O.2   155  TRP155     -0.2867
     61  CB        38.2580   95.1300   27.1390 C.3   155  TRP155      0.0550
     62  CG        37.4230   96.2970   26.8130 C.ar  155  TRP155      0.0003
     63  CD1       36.0520   96.3110   26.6710 C.ar  155  TRP155      0.0946
     64  CD2       37.8740   97.6120   26.4820 C.ar  155  TRP155      0.0152
     65  NE1       35.6250   97.5620   26.2620 N.ar  155  TRP155     -0.2442
     66  CE2       36.7160   98.3840   26.1450 C.ar  155  TRP155      0.0810
     67  CE3       39.1280   98.2320   26.4750 C.ar  155  TRP155      0.0012
     68  CZ2       36.7890   99.7510   25.8080 C.ar  155  TRP155      0.0191
     69  CZ3       39.2010   99.5730   26.1370 C.ar  155  TRP155      0.0001
     70  CH2       38.0380  100.3250   25.8090 C.ar  155  TRP155      0.0015
     71  N         29.5980   80.6160   16.7180 N.3   267  ARG267     -0.1245
     72  CA        29.9690   82.0020   16.4300 C.3   267  ARG267      0.1563
     73  C         28.9410   82.9520   17.0010 C.2   267  ARG267      0.2260
     74  O         29.2790   84.0370   17.4310 O.2   267  ARG267     -0.2867
     75  CB        30.0510   82.2440   14.9220 C.3   267  ARG267      0.0307
     76  CG        30.9490   81.2920   14.2050 C.3   267  ARG267      0.0489
     77  CD        31.3630   81.7960   12.8250 C.3   267  ARG267      0.2205
     78  NE        32.4200   80.8870   12.3880 N.pl3 267  ARG267     -0.0865
     79  CZ        33.7180   81.1240   12.5330 C.cat 267  ARG267      0.5346
     80  NH1       34.1390   82.2930   13.0110 N.pl3 267  ARG267      0.1354
     81  NH2       34.5950   80.1830   12.1840 N.pl3 267  ARG267      0.1354
     82  N         30.1810   82.7450   20.6690 N.3   270  ILE270     -0.1231
     83  CA        31.3470   83.5120   21.0660 C.3   270  ILE270      0.1692
     84  C         30.9720   85.0070   21.0590 C.2   270  ILE270      0.2592
     85  O         31.3890   85.7520   21.9450 O.2   270  ILE270     -0.2718
     86  CB        32.6460   83.1740   20.2690 C.3   270  ILE270      0.0266
     87  CG1       33.8530   83.8020   20.9670 C.3   270  ILE270      0.0019
     88  CG2       32.5920   83.6470   18.8200 C.3   270  ILE270      0.0020
     89  CD1       35.1950   83.2990   20.5060 C.3   270  ILE270      0.0001
     90  N         30.1180   85.4300   20.1310 N.am  271  TRP271     -0.1976
     91  CA        29.8520   86.8610   20.0060 C.3   271  TRP271      0.1640
     92  C         28.8560   87.3890   21.0530 C.2   271  TRP271      0.2290
     93  O         29.1010   88.4360   21.6630 O.2   271  TRP271     -0.2864
     94  CB        29.4470   87.2430   18.5690 C.3   271  TRP271      0.0576
     95  CG        30.6440   87.3540   17.6560 C.ar  271  TRP271      0.0006
     96  CD1       31.0890   86.4340   16.7210 C.ar  271  TRP271      0.0946
     97  CD2       31.5820   88.4160   17.6340 C.ar  271  TRP271      0.0152
     98  NE1       32.2270   86.8820   16.1320 N.ar  271  TRP271     -0.2442
     99  CE2       32.5510   88.0970   16.6690 C.ar  271  TRP271      0.0810
    100  CE3       31.6970   89.6210   18.3400 C.ar  271  TRP271      0.0012
    101  CZ2       33.6110   88.9330   16.3920 C.ar  271  TRP271      0.0191
    102  CZ3       32.7420   90.4560   18.0520 C.ar  271  TRP271      0.0001
    103  CH2       33.6870   90.1140   17.0890 C.ar  271  TRP271      0.0015
    104  N         30.9610   87.7700   24.1440 N.3   274  VAL274     -0.1245
    105  CA        32.0390   88.7370   24.2660 C.3   274  VAL274      0.1561
    106  C         31.4800   90.1390   24.2410 C.2   274  VAL274      0.2260
    107  O         32.1490   91.0680   24.7140 O.2   274  VAL274     -0.2867
    108  CB        33.2090   88.6340   23.2380 C.3   274  VAL274      0.0252
    109  CG1       33.7220   87.2200   23.0950 C.3   274  VAL274      0.0019
    110  CG2       32.8860   89.2610   21.9030 C.3   274  VAL274      0.0019
    111  N         32.2840   93.8950   26.1130 N.3   278  LEU278     -0.1245
    112  CA        32.7970   94.7650   25.1040 C.3   278  LEU278      0.1561
    113  C         31.9840   96.0800   25.1540 C.2   278  LEU278      0.2260
    114  O         32.5200   97.1490   25.4180 O.2   278  LEU278     -0.2867
    115  CB        32.6770   93.9970   23.7730 C.3   278  LEU278      0.0270
    116  CG        33.5930   94.1830   22.5810 C.3   278  LEU278      0.0019
    117  CD1       33.2720   95.5250   21.9110 C.3   278  LEU278      0.0001
    118  CD2       35.0330   94.0690   23.0440 C.3   278  LEU278      0.0001
    119  N         33.0300   99.9960   27.0690 N.3   282  ILE282     -0.1245
    120  CA        32.8100  101.2860   26.4320 C.3   282  ILE282      0.1561
    121  C         31.8950  102.1230   27.3160 C.2   282  ILE282      0.2260
    122  O         32.1740  103.2690   27.5860 O.2   282  ILE282     -0.2867
    123  CB        32.2130  101.1310   25.0240 C.3   282  ILE282      0.0252
    124  CG1       33.2390  100.4640   24.1170 C.3   282  ILE282      0.0019
    125  CG2       31.8750  102.4980   24.4290 C.3   282  ILE282      0.0019
    126  CD1       32.6890   99.9800   22.7830 C.3   282  ILE282      0.0001
@<TRIPOS>BOND
     1    81    79    1
     2    78    79    2
     3    78    77    1
     4    79    80    1
     5    77    76    1
     6    76    75    1
     7    75    72    1
     8    23    22   ar
     9    23    21   ar
    10    22    20   ar
    11    98    99   ar
    12    98    96   ar
    13   101    99   ar
    14   101   103   ar
    15    72    71    1
    16    72    73    1
    17     2     1    1
    18     2     3    1
    19    99    97   ar
    20    96    95   ar
    21    21    19   ar
    22    73    74    2
    23   103   102   ar
    24    13    12    1
    25    20    19   ar
    26    97    95   ar
    27    97   100   ar
    28    95    94    1
    29    19    18    1
    30     5     3   am
    31     5     6    1
    32    32    30   ar
    33    32    33   ar
    34     3     4    2
    35   102   100   ar
    36    10     9    1
    37    10    11    1
    38    30    29   ar
    39    12    11    1
    40    35    33   ar
    41    35    37   ar
    42    33    31   ar
    43    94    91    1
    44     9     6    1
    45    88    86    1
    46     6     7    1
    47    37    36   ar
    48    18    15    1
    49    14     7   am
    50    14    15    1
    51    29    31   ar
    52    29    28    1
    53    31    34   ar
    54     7     8    2
    55    15    16    1
    56    91    90    1
    57    91    92    1
    58    90    84   am
    59    28    25    1
    60    36    34   ar
    61    86    87    1
    62    86    83    1
    63    89    87    1
    64    82    83    1
    65    92    93    2
    66    84    83    1
    67    84    85    2
    68    16    17    2
    69    25    24    1
    70    25    26    1
    71   110   108    1
    72   117   116    1
    73   116   118    1
    74   116   115    1
    75    26    38   am
    76    26    27    2
    77   126   124    1
    78    38    39    1
    79    50    48    1
    80   109   108    1
    81   108   105    1
    82   115   112    1
    83    39    42    1
    84    39    40    1
    85   124   123    1
    86   104   105    1
    87   106   105    1
    88   106   107    2
    89    48    47    1
    90    48    49    1
    91   125   123    1
    92    47    44    1
    93   123   120    1
    94   112   113    1
    95   112   111    1
    96    56    55    1
    97   113   114    2
    98    40    41    2
    99    55    52    1
   100    51    52    1
   101    51    45   am
   102    68    70   ar
   103    68    66   ar
   104    70    69   ar
   105    44    43    1
   106    44    45    1
   107    52    53    1
   108    45    46    2
   109    69    67   ar
   110    66    65   ar
   111    66    64   ar
   112    65    63   ar
   113   120   119    1
   114   120   121    1
   115    67    64   ar
   116    64    62   ar
   117    63    62   ar
   118    62    61    1
   119    61    58    1
   120   121   122    2
   121    53    54    2
   122    58    57    1
   123    58    59    1
   124    59    60    2
