@<TRIPOS>MOLECULE
tmp/4inbA00.pdb
 179 173 0 0 0
SMALL
GASTEIGER

@<TRIPOS>ATOM
      1  N         27.8310   14.6150   27.7260 N.3    23  TRP23      -0.1227
      2  CA        28.1460   14.5030   29.1500 C.3    23  TRP23       0.1737
      3  C         27.3870   13.3610   29.8410 C.2    23  TRP23       0.2595
      4  O         27.9650   12.6070   30.6300 O.2    23  TRP23      -0.2718
      5  CB        27.8480   15.8310   29.8560 C.3    23  TRP23       0.0564
      6  CG        28.2080   15.8460   31.3140 C.ar   23  TRP23       0.0003
      7  CD1       27.3780   16.1290   32.3570 C.ar   23  TRP23       0.0946
      8  CD2       29.4890   15.5540   31.8910 C.ar   23  TRP23       0.0152
      9  NE1       28.0590   16.0290   33.5460 N.ar   23  TRP23      -0.2442
     10  CE2       29.3570   15.6780   33.2870 C.ar   23  TRP23       0.0810
     11  CE3       30.7330   15.2000   31.3590 C.ar   23  TRP23       0.0012
     12  CZ2       30.4190   15.4600   34.1620 C.ar   23  TRP23       0.0191
     13  CZ3       31.7890   14.9850   32.2300 C.ar   23  TRP23       0.0001
     14  CH2       31.6250   15.1160   33.6160 C.ar   23  TRP23       0.0015
     15  N         26.0950   13.2310   29.5560 N.am   24  VAL24      -0.1980
     16  CA        25.3080   12.1660   30.1660 C.3    24  VAL24       0.1595
     17  C         25.8760   10.8120   29.7550 C.2    24  VAL24       0.2287
     18  O         25.8640    9.8620   30.5360 O.2    24  VAL24      -0.2864
     19  CB        23.8250   12.2390   29.7450 C.3    24  VAL24       0.0276
     20  CG1       23.0240   11.1710   30.4770 C.3    24  VAL24       0.0022
     21  CG2       23.2670   13.6130   30.0560 C.3    24  VAL24       0.0022
     22  N         29.0040   10.1660   32.0350 N.3    27  VAL27      -0.1231
     23  CA        28.6020    9.7490   33.3720 C.3    27  VAL27       0.1692
     24  C         28.0600    8.3170   33.3580 C.2    27  VAL27       0.2591
     25  O         28.3300    7.5350   34.2700 O.2    27  VAL27      -0.2718
     26  CB        27.5180   10.6910   33.9550 C.3    27  VAL27       0.0266
     27  CG1       27.0480   10.1730   35.3070 C.3    27  VAL27       0.0020
     28  CG2       28.0740   12.0980   34.1010 C.3    27  VAL27       0.0020
     29  N         27.3010    7.9730   32.3220 N.am   28  GLU28      -0.1979
     30  CA        26.7310    6.6350   32.2140 C.3    28  GLU28       0.1602
     31  C         27.8110    5.5610   32.1220 C.2    28  GLU28       0.2287
     32  O         27.6740    4.4880   32.7130 O.2    28  GLU28      -0.2864
     33  CB        25.8020    6.5470   30.9970 C.3    28  GLU28       0.0415
     34  CG        24.4960    7.3120   31.1680 C.3    28  GLU28       0.1163
     35  CD        23.6130    7.2850   29.9320 C.2    28  GLU28       0.3649
     36  OE1       22.5030    7.8560   29.9880 O.co2  28  GLU28      -0.2457
     37  OE2       24.0250    6.7020   28.9040 O.co2  28  GLU28      -0.2457
     38  N         31.0630    6.0000   33.1190 N.3    30  LYS30      -0.1231
     39  CA        31.9900    6.0900   34.2420 C.3    30  LYS30       0.1693
     40  C         31.2600    6.4000   35.5380 C.2    30  LYS30       0.2592
     41  O         31.7080    7.2280   36.3230 O.2    30  LYS30      -0.2718
     42  CB        33.0370    7.1740   33.9730 C.3    30  LYS30       0.0285
     43  CG        33.9380    6.8780   32.7840 C.3    30  LYS30       0.0035
     44  CD        33.9830    8.0520   31.8140 C.3    30  LYS30       0.0206
     45  CE        35.3760    8.6390   31.7020 C.3    30  LYS30       0.1093
     46  NZ        35.8670    9.1580   33.0080 N.3    30  LYS30      -0.1314
     47  N         30.1400    5.7200   35.7560 N.am   31  ALA31      -0.1966
     48  CA        29.3310    5.9220   36.9460 C.3    31  ALA31       0.1728
     49  C         30.1290    5.8270   38.2440 C.2    31  ALA31       0.2616
     50  O         30.7590    4.8080   38.5280 O.2    31  ALA31      -0.2715
     51  CB        28.1910    4.9210   36.9680 C.3    31  ALA31       0.0334
     52  N         30.0930    6.9060   39.0220 N.am   32  PHE32      -0.1960
     53  CA        30.7740    6.9770   40.3090 C.3    32  PHE32       0.1771
     54  C         32.2930    6.9920   40.2040 C.2    32  PHE32       0.2620
     55  O         32.9910    6.6500   41.1590 O.2    32  PHE32      -0.2715
     56  CB        30.3170    5.8140   41.1830 C.3    32  PHE32       0.0574
     57  CG        28.8290    5.7560   41.3670 C.ar   32  PHE32      -0.0200
     58  CD1       28.1600    4.5450   41.3490 C.ar   32  PHE32      -0.0042
     59  CD2       28.0990    6.9160   41.5590 C.ar   32  PHE32      -0.0042
     60  CE1       26.7920    4.4950   41.5170 C.ar   32  PHE32      -0.0003
     61  CE2       26.7330    6.8700   41.7280 C.ar   32  PHE32      -0.0003
     62  CZ        26.0780    5.6580   41.7070 C.ar   32  PHE32      -0.0000
     63  N         32.7950    7.4050   39.0470 N.am   33  SER33      -0.1950
     64  CA        34.2320    7.4800   38.8010 C.3    33  SER33       0.1924
     65  C         34.7880    8.8700   39.0940 C.2    33  SER33       0.2314
     66  O         34.3160    9.8690   38.5580 O.2    33  SER33      -0.2863
     67  CB        34.5310    7.1100   37.3490 C.3    33  SER33       0.2116
     68  OG        35.8560    7.4720   36.9990 O.3    33  SER33      -0.2180
     69  N         35.4660   11.8280   36.6200 N.3    36  VAL36      -0.1231
     70  CA        34.3430   12.6080   36.1350 C.3    36  VAL36       0.1692
     71  C         34.2770   13.9550   36.8440 C.2    36  VAL36       0.2591
     72  O         33.8570   14.9500   36.2620 O.2    36  VAL36      -0.2718
     73  CB        33.0150   11.8530   36.3580 C.3    36  VAL36       0.0266
     74  CG1       31.8330   12.8050   36.2310 C.3    36  VAL36       0.0020
     75  CG2       32.8920   10.7310   35.3520 C.3    36  VAL36       0.0020
     76  N         34.7090   13.9900   38.1020 N.am   37  ILE37      -0.1980
     77  CA        34.6510   15.2240   38.8650 C.3    37  ILE37       0.1595
     78  C         35.4660   16.3760   38.2900 C.2    37  ILE37       0.2287
     79  O         34.9770   17.5010   38.2130 O.2    37  ILE37      -0.2864
     80  CB        35.0400   14.9770   40.3310 C.3    37  ILE37       0.0276
     81  CG1       34.0740   13.9570   40.9430 C.3    37  ILE37       0.0022
     82  CG2       35.0100   16.2840   41.0920 C.3    37  ILE37       0.0022
     83  CD1       34.3270   13.6350   42.4130 C.3    37  ILE37       0.0001
     84  N         33.6290   17.5690   35.3850 N.3    40  PHE40      -0.1241
     85  CA        32.4390   18.3350   35.7120 C.3    40  PHE40       0.1605
     86  C         32.8480   19.7860   35.9610 C.2    40  PHE40       0.2264
     87  O         32.2170   20.7150   35.4730 O.2    40  PHE40      -0.2867
     88  CB        31.7690   17.7780   36.9650 C.3    40  PHE40       0.0534
     89  CG        30.6350   18.6230   37.4600 C.ar   40  PHE40      -0.0203
     90  CD1       29.4140   18.6220   36.8040 C.ar   40  PHE40      -0.0042
     91  CD2       30.8000   19.4490   38.5600 C.ar   40  PHE40      -0.0042
     92  CE1       28.3770   19.4360   37.2340 C.ar   40  PHE40      -0.0003
     93  CE2       29.7650   20.2670   38.9950 C.ar   40  PHE40      -0.0003
     94  CZ        28.5520   20.2560   38.3270 C.ar   40  PHE40      -0.0000
     95  N         22.6140   21.0270   34.1220 N.3    55  MET55      -0.1230
     96  CA        23.5170   19.8920   33.9560 C.3    55  MET55       0.1702
     97  C         23.1050   18.7650   34.8930 C.2    55  MET55       0.2592
     98  O         22.9960   17.6160   34.4800 O.2    55  MET55      -0.2718
     99  CB        24.9670   20.2850   34.2540 C.3    55  MET55       0.0401
    100  CG        25.8490   20.4080   33.0160 C.3    55  MET55       0.0596
    101  SD        27.5960   20.6320   33.4400 S.3    55  MET55      -0.1393
    102  CE        27.4990   22.2500   34.2160 C.3    55  MET55       0.0692
    103  N         22.8820   19.0940   36.1620 N.am   56  LEU56      -0.1980
    104  CA        22.4830   18.0810   37.1390 C.3    56  LEU56       0.1596
    105  C         21.1810   17.3740   36.7580 C.2    56  LEU56       0.2287
    106  O         21.0950   16.1490   36.8260 O.2    56  LEU56      -0.2864
    107  CB        22.3300   18.7130   38.5240 C.3    56  LEU56       0.0297
    108  CG        23.6130   19.2510   39.1580 C.3    56  LEU56       0.0022
    109  CD1       23.2770   19.8420   40.5220 C.3    56  LEU56       0.0001
    110  CD2       24.6390   18.1420   39.2990 C.3    56  LEU56       0.0001
    111  N         21.6500   15.0080   33.7110 N.3    59  VAL59      -0.1231
    112  CA        22.3390   13.7740   34.0440 C.3    59  VAL59       0.1692
    113  C         21.4360   12.8430   34.8530 C.2    59  VAL59       0.2593
    114  O         21.3760   11.6420   34.5930 O.2    59  VAL59      -0.2718
    115  CB        23.6280   14.0680   34.8460 C.3    59  VAL59       0.0266
    116  CG1       24.2740   12.7630   35.2960 C.3    59  VAL59       0.0020
    117  CG2       24.5950   14.8710   33.9800 C.3    59  VAL59       0.0020
    118  N         20.7030   13.3920   35.8110 N.am   60  GLY60      -0.1942
    119  CA        19.8400   12.5430   36.6110 C.3    60  GLY60       0.2014
    120  C         20.7090   11.5940   37.4120 C.2    60  GLY60       0.2639
    121  O         21.6350   12.0280   38.0990 O.2    60  GLY60      -0.2714
    122  N         20.4240   10.2990   37.3160 N.am   61  GLY61      -0.1939
    123  CA        21.2060    9.3150   38.0460 C.3    61  GLY61       0.2014
    124  C         20.3570    8.3960   38.9120 C.2    61  GLY61       0.2638
    125  O         19.1480    8.2720   38.7030 O.2    61  GLY61      -0.2714
    126  N         20.9940    7.7410   39.8820 N.am   62  HIS62      -0.1973
    127  CA        20.2890    6.8410   40.7930 C.3    62  HIS62       0.1656
    128  C         19.5460    7.6220   41.8870 C.2    62  HIS62       0.2291
    129  O         20.1380    8.4760   42.5370 O.2    62  HIS62      -0.2864
    130  CB        21.2640    5.8640   41.4720 C.3    62  HIS62       0.0771
    131  CG        21.9880    4.9640   40.5170 C.ar   62  HIS62       0.0820
    132  ND1       23.2100    5.2890   39.9710 N.ar   62  HIS62      -0.2267
    133  CD2       21.6410    3.7720   39.9720 C.ar   62  HIS62       0.1154
    134  CE1       23.5850    4.3410   39.1310 C.ar   62  HIS62       0.1986
    135  NE2       22.6510    3.4090   39.1120 N.ar   62  HIS62      -0.2212
    136  N         21.6240    8.1630   44.9620 N.3    65  ALA65      -0.1231
    137  CA        22.8000    9.0210   44.8030 C.3    65  ALA65       0.1694
    138  C         22.3990   10.4850   44.6700 C.2    65  ALA65       0.2591
    139  O         23.0810   11.3850   45.1690 O.2    65  ALA65      -0.2718
    140  CB        23.6000    8.5800   43.5970 C.3    65  ALA65       0.0304
    141  N         21.2860   10.7120   43.9890 N.am   66  MET66      -0.1979
    142  CA        20.7750   12.0560   43.8090 C.3    66  MET66       0.1605
    143  C         20.3850   12.6090   45.1820 C.2    66  MET66       0.2287
    144  O         20.4800   13.8100   45.4340 O.2    66  MET66      -0.2864
    145  CB        19.5580   12.0290   42.8850 C.3    66  MET66       0.0413
    146  CG        19.8580   11.5170   41.4920 C.3    66  MET66       0.0598
    147  SD        18.4150   11.6100   40.4380 S.3    66  MET66      -0.1393
    148  CE        18.4890   13.3010   39.9100 C.3    66  MET66       0.0692
    149  N         23.3550   13.8130   47.0310 N.3    69  LEU69      -0.1245
    150  CA        23.7950   15.0430   46.3970 C.3    69  LEU69       0.1561
    151  C         22.9320   16.1950   46.8850 C.2    69  LEU69       0.2260
    152  O         23.4510   17.2200   47.3240 O.2    69  LEU69      -0.2867
    153  CB        23.7120   14.9250   44.8720 C.3    69  LEU69       0.0270
    154  CG        24.0890   16.1890   44.0940 C.3    69  LEU69       0.0019
    155  CD1       25.4590   16.6980   44.5570 C.3    69  LEU69       0.0001
    156  CD2       24.1030   15.8770   42.5980 C.3    69  LEU69       0.0001
    157  N         29.4650   15.1850   45.0450 N.3   138  LEU138     -0.1245
    158  CA        29.9200   14.1790   44.0910 C.3   138  LEU138      0.1561
    159  C         31.0210   13.3380   44.7210 C.2   138  LEU138      0.2260
    160  O         31.0690   12.1240   44.5240 O.2   138  LEU138     -0.2867
    161  CB        30.4390   14.8290   42.8000 C.3   138  LEU138      0.0270
    162  CG        29.4280   15.6210   41.9590 C.3   138  LEU138      0.0019
    163  CD1       30.1020   16.1380   40.6920 C.3   138  LEU138      0.0001
    164  CD2       28.2450   14.7300   41.5970 C.3   138  LEU138      0.0001
    165  N         29.4020   10.8580   46.9420 N.3   141  ILE141     -0.1231
    166  CA        28.7950    9.7690   46.1950 C.3   141  ILE141      0.1692
    167  C         29.8200    8.7110   45.7940 C.2   141  ILE141      0.2591
    168  O         29.5920    7.5190   46.0130 O.2   141  ILE141     -0.2718
    169  CB        28.0980   10.2930   44.9290 C.3   141  ILE141      0.0266
    170  CG1       26.7560   10.9360   45.2910 C.3   141  ILE141      0.0019
    171  CG2       27.8970    9.1640   43.9460 C.3   141  ILE141      0.0020
    172  CD1       26.0280   11.5090   44.0980 C.3   141  ILE141      0.0001
    173  N         30.9380    9.1490   45.2120 N.am  142  VAL142     -0.1980
    174  CA        32.0140    8.2460   44.7810 C.3   142  VAL142      0.1595
    175  C         32.5100    7.3620   45.8970 C.2   142  VAL142      0.2287
    176  O         32.9630    6.2340   45.6730 O.2   142  VAL142     -0.2864
    177  CB        33.2290    9.0330   44.2550 C.3   142  VAL142      0.0276
    178  CG1       34.5250    8.2860   44.5400 C.3   142  VAL142      0.0022
    179  CG2       33.0880    9.2200   42.7780 C.3   142  VAL142      0.0022
@<TRIPOS>BOND
     1     1     2    1
     2    37    35   ar
     3     2     3    1
     4     2     5    1
     5    15     3   am
     6    15    16    1
     7    19    21    1
     8    19    16    1
     9    19    20    1
    10    17    16    1
    11    17    18    2
    12     3     4    2
    13     5     6    1
    14    35    36   ar
    15    35    34    1
    16    33    34    1
    17    33    30    1
    18     6     8   ar
    19     6     7   ar
    20    11     8   ar
    21    11    13   ar
    22    45    44    1
    23    45    46    1
    24    44    43    1
    25     8    10   ar
    26    22    23    1
    27    31    30    1
    28    31    32    2
    29    30    29    1
    30    13    14   ar
    31    29    24   am
    32     7     9   ar
    33    43    42    1
    34   100   101    1
    35   100    99    1
    36    38    39    1
    37    10     9   ar
    38    10    12   ar
    39    24    23    1
    40    24    25    2
    41    23    26    1
    42   101   102    1
    43    14    12   ar
    44   111   112    1
    45    26    28    1
    46    26    27    1
    47    96    95    1
    48    96    99    1
    49    96    97    1
    50    42    39    1
    51   117   115    1
    52   112   115    1
    53   112   113    1
    54    39    40    1
    55    98    97    2
    56   114   113    2
    57   115   116    1
    58   113   118   am
    59    97   103   am
    60    75    73    1
    61    84    85    1
    62    87    86    2
    63    40    47   am
    64    40    41    2
    65    85    86    1
    66    85    88    1
    67    47    48    1
    68   118   119    1
    69    70    73    1
    70    70    69    1
    71    70    71    1
    72   103   104    1
    73    74    73    1
    74    72    71    2
    75   119   120    1
    76   105   106    2
    77   105   104    1
    78    90    92   ar
    79    90    89   ar
    80    71    76   am
    81    48    51    1
    82    48    49    1
    83    88    89    1
    84    68    67    1
    85   104   107    1
    86    92    94   ar
    87   122   120   am
    88   122   123    1
    89    67    64    1
    90   120   121    2
    91    89    91   ar
    92   123   124    1
    93    76    77    1
    94    79    78    2
    95    49    50    2
    96    49    52   am
    97    78    77    1
    98    94    93   ar
    99   107   108    1
   100    66    65    2
   101    91    93   ar
   102   125   124    2
   103    64    63    1
   104    64    65    1
   105    77    80    1
   106   124   126   am
   107    52    53    1
   108    63    54   am
   109   135   134   ar
   110   135   133   ar
   111   134   132   ar
   112   108   110    1
   113   108   109    1
   114   126   127    1
   115   148   147    1
   116   132   131   ar
   117   133   131   ar
   118    54    53    1
   119    54    55    2
   120    53    56    1
   121    80    81    1
   122    80    82    1
   123   147   146    1
   124   131   130    1
   125   163   162    1
   126   127   130    1
   127   127   128    1
   128    81    83    1
   129    56    57    1
   130    58    57   ar
   131    58    60   ar
   132    57    59   ar
   133   146   145    1
   134    60    62   ar
   135    59    61   ar
   136   164   162    1
   137    62    61   ar
   138   128   129    2
   139   162   161    1
   140   156   154    1
   141   179   177    1
   142   161   158    1
   143   145   142    1
   144   140   137    1
   145   142   141    1
   146   142   143    1
   147   171   169    1
   148   141   138   am
   149   158   159    1
   150   158   157    1
   151   154   155    1
   152   154   153    1
   153   172   170    1
   154   177   178    1
   155   177   174    1
   156   160   159    2
   157   138   137    1
   158   138   139    2
   159   174   173    1
   160   174   175    1
   161   137   136    1
   162   153   150    1
   163   169   170    1
   164   169   166    1
   165   143   144    2
   166   173   167   am
   167   176   175    2
   168   167   168    2
   169   167   166    1
   170   166   165    1
   171   150   151    1
   172   150   149    1
   173   151   152    2
