@<TRIPOS>MOLECULE
tmp/4ineA01.pdb
 156 153 0 0 0
SMALL
GASTEIGER

@<TRIPOS>ATOM
      1  N         24.7890  -39.3160  -14.0890 N.3   182  GLN182     -0.1231
      2  CA        25.4900  -39.9560  -12.9950 C.3   182  GLN182      0.1698
      3  C         24.9600  -39.6040  -11.6170 C.2   182  GLN182      0.2592
      4  O         25.0200  -40.4200  -10.7060 O.2   182  GLN182     -0.2718
      5  CB        26.9950  -39.6300  -13.0990 C.3   182  GLN182      0.0381
      6  CG        27.8600  -40.3720  -12.0990 C.3   182  GLN182      0.0905
      7  CD        29.3470  -40.1670  -12.3540 C.2   182  GLN182      0.2608
      8  OE1       29.7630  -39.3340  -13.1650 O.2   182  GLN182     -0.2717
      9  NE2       30.1610  -40.9530  -11.6550 N.am  182  GLN182     -0.0878
     10  N         24.4160  -38.4000  -11.4670 N.am  183  TYR183     -0.1976
     11  CA        24.0440  -37.9080  -10.1550 C.3   183  TYR183      0.1639
     12  C         22.5350  -37.6010  -10.0940 C.2   183  TYR183      0.2290
     13  O         22.0760  -36.5400   -9.6380 O.2   183  TYR183     -0.2864
     14  CB        24.9180  -36.6920   -9.7870 C.3   183  TYR183      0.0560
     15  CG        26.4100  -36.9920   -9.8140 C.ar  183  TYR183     -0.0198
     16  CD1       26.9580  -37.8900   -8.9130 C.ar  183  TYR183     -0.0009
     17  CD2       27.2400  -36.3700  -10.7200 C.ar  183  TYR183     -0.0009
     18  CE1       28.3180  -38.1810   -8.9140 C.ar  183  TYR183      0.0417
     19  CE2       28.6040  -36.6650  -10.7440 C.ar  183  TYR183      0.0417
     20  CZ        29.1250  -37.5580   -9.8290 C.ar  183  TYR183      0.1957
     21  OH        30.4880  -37.8450   -9.8070 O.3   183  TYR183     -0.2866
     22  N         25.4270  -44.5510   -4.4420 N.3   191  TYR191     -0.1241
     23  CA        26.8200  -44.2300   -4.1880 C.3   191  TYR191      0.1605
     24  C         27.0600  -43.9610   -2.7040 C.2   191  TYR191      0.2264
     25  O         28.0780  -44.3910   -2.1610 O.2   191  TYR191     -0.2867
     26  CB        27.2310  -42.9850   -4.9750 C.3   191  TYR191      0.0534
     27  CG        27.6600  -43.1700   -6.4320 C.ar  191  TYR191     -0.0201
     28  CD1       28.5200  -44.2020   -6.8290 C.ar  191  TYR191     -0.0009
     29  CD2       27.2820  -42.2400   -7.4020 C.ar  191  TYR191     -0.0009
     30  CE1       28.9360  -44.3170   -8.1480 C.ar  191  TYR191      0.0417
     31  CE2       27.6910  -42.3510   -8.7170 C.ar  191  TYR191      0.0417
     32  CZ        28.5440  -43.3670   -9.0860 C.ar  191  TYR191      0.1957
     33  OH        28.9510  -43.4430  -10.3840 O.3   191  TYR191     -0.2866
     34  N         29.9850  -45.7250   -0.5010 N.3   195  PHE195     -0.1241
     35  CA        31.1740  -44.9930   -0.0610 C.3   195  PHE195      0.1605
     36  C         31.1760  -44.6620    1.4270 C.2   195  PHE195      0.2264
     37  O         32.2480  -44.5320    2.0290 O.2   195  PHE195     -0.2867
     38  CB        31.3120  -43.6590   -0.8250 C.3   195  PHE195      0.0534
     39  CG        31.7250  -43.8050   -2.2600 C.ar  195  PHE195     -0.0203
     40  CD1       32.9620  -44.3500   -2.5800 C.ar  195  PHE195     -0.0042
     41  CD2       30.9100  -43.3510   -3.3030 C.ar  195  PHE195     -0.0042
     42  CE1       33.3770  -44.4660   -3.8840 C.ar  195  PHE195     -0.0003
     43  CE2       31.3250  -43.4520   -4.6340 C.ar  195  PHE195     -0.0003
     44  CZ        32.5720  -44.0140   -4.9210 C.ar  195  PHE195     -0.0000
     45  N         30.6930  -39.2690   -1.4430 N.3   200  ILE200     -0.1245
     46  CA        30.5700  -39.8140   -2.7880 C.3   200  ILE200      0.1561
     47  C         31.9990  -39.9570   -3.3290 C.2   200  ILE200      0.2260
     48  O         32.2860  -39.6420   -4.4800 O.2   200  ILE200     -0.2867
     49  CB        29.6800  -38.9200   -3.6910 C.3   200  ILE200      0.0252
     50  CG1       28.3420  -38.6140   -3.0090 C.3   200  ILE200      0.0019
     51  CG2       29.4340  -39.5820   -5.0440 C.3   200  ILE200      0.0019
     52  CD1       27.4080  -39.8050   -2.8570 C.3   200  ILE200      0.0001
     53  N         35.9600  -42.4000   -2.6780 N.3   202  PRO202     -0.2116
     54  CA        36.5760  -43.5970   -2.0950 C.3   202  PRO202      0.1372
     55  C         36.8650  -43.5110   -0.5930 C.2   202  PRO202      0.2244
     56  O         37.5260  -42.5740   -0.1120 O.2   202  PRO202     -0.2868
     57  CB        37.8730  -43.7190   -2.9130 C.3   202  PRO202      0.0268
     58  CG        37.4900  -43.2400   -4.2540 C.3   202  PRO202      0.0207
     59  CD        36.5020  -42.1090   -4.0190 C.3   202  PRO202      0.0892
     60  N         38.1430  -35.9580   -5.7280 N.3   295  ASP295     -0.1239
     61  CA        37.6020  -36.8990   -6.7140 C.3   295  ASP295      0.1674
     62  C         36.4790  -36.3000   -7.5360 C.2   295  ASP295      0.2266
     63  O         35.3930  -36.8960   -7.6970 O.2   295  ASP295     -0.2867
     64  CB        37.2380  -38.2210   -6.0160 C.3   295  ASP295      0.1410
     65  CG        38.4640  -38.8430   -5.3380 C.2   295  ASP295      0.3668
     66  OD1       39.5840  -38.6600   -5.8890 O.co2 295  ASP295     -0.2456
     67  OD2       38.3360  -39.4580   -4.2490 O.co2 295  ASP295     -0.2456
     68  N         38.2510  -35.0800  -12.6870 N.3   298  GLN298     -0.1231
     69  CA        38.1040  -35.9020  -13.8820 C.3   298  GLN298      0.1698
     70  C         36.8790  -35.4680  -14.7240 C.2   298  GLN298      0.2592
     71  O         36.7880  -35.8080  -15.8880 O.2   298  GLN298     -0.2718
     72  CB        38.0140  -37.3850  -13.5490 C.3   298  GLN298      0.0381
     73  CG        36.8020  -37.7720  -12.6920 C.3   298  GLN298      0.0905
     74  CD        37.0390  -37.6820  -11.1860 C.2   298  GLN298      0.2608
     75  OE1       38.1110  -37.2470  -10.7120 O.2   298  GLN298     -0.2717
     76  NE2       36.0360  -38.0870  -10.4150 N.am  298  GLN298     -0.0878
     77  N         35.9460  -34.7330  -14.1140 N.am  299  HIS299     -0.1976
     78  CA        34.7440  -34.2080  -14.8040 C.3   299  HIS299      0.1656
     79  C         35.0280  -32.9360  -15.5790 C.2   299  HIS299      0.2291
     80  O         34.1840  -32.4990  -16.3720 O.2   299  HIS299     -0.2864
     81  CB        33.6380  -33.8750  -13.7960 C.3   299  HIS299      0.0771
     82  CG        32.9100  -35.0810  -13.1960 C.ar  299  HIS299      0.0820
     83  ND1       31.9530  -35.7910  -13.8820 N.ar  299  HIS299     -0.2267
     84  CD2       32.9750  -35.6370  -11.9220 C.ar  299  HIS299      0.1154
     85  CE1       31.4760  -36.7720  -13.0750 C.ar  299  HIS299      0.1986
     86  NE2       32.0630  -36.6620  -11.8720 N.ar  299  HIS299     -0.2212
     87  N         40.4780  -39.0980  -10.2820 N.3   325  TYR325     -0.1241
     88  CA        40.6960  -40.1800  -11.2290 C.3   325  TYR325      0.1605
     89  C         41.6200  -39.6590  -12.3300 C.2   325  TYR325      0.2264
     90  O         41.4490  -38.5470  -12.8390 O.2   325  TYR325     -0.2867
     91  CB        39.3730  -40.5940  -11.8570 C.3   325  TYR325      0.0534
     92  CG        38.4080  -41.3720  -10.9730 C.ar  325  TYR325     -0.0201
     93  CD1       38.6780  -41.6520   -9.6260 C.ar  325  TYR325     -0.0009
     94  CD2       37.1810  -41.7800  -11.4930 C.ar  325  TYR325     -0.0009
     95  CE1       37.7850  -42.3890   -8.8460 C.ar  325  TYR325      0.0417
     96  CE2       36.2810  -42.5140  -10.7230 C.ar  325  TYR325      0.0417
     97  CZ        36.5760  -42.8000   -9.3980 C.ar  325  TYR325      0.1957
     98  OH        35.6560  -43.5240   -8.6570 O.3   325  TYR325     -0.2866
     99  N         33.6500  -46.6430  -20.8730 N.3   339  TYR339     -0.1241
    100  CA        33.3860  -46.0830  -19.5440 C.3   339  TYR339      0.1605
    101  C         33.7370  -44.5860  -19.5020 C.2   339  TYR339      0.2264
    102  O         32.9180  -43.7590  -19.1030 O.2   339  TYR339     -0.2867
    103  CB        34.1950  -46.8620  -18.5060 C.3   339  TYR339      0.0534
    104  CG        34.3770  -46.2510  -17.1200 C.ar  339  TYR339     -0.0201
    105  CD1       33.3410  -46.1950  -16.1920 C.ar  339  TYR339     -0.0009
    106  CD2       35.6210  -45.7880  -16.7270 C.ar  339  TYR339     -0.0009
    107  CE1       33.5390  -45.6560  -14.9300 C.ar  339  TYR339      0.0417
    108  CE2       35.8260  -45.2630  -15.4600 C.ar  339  TYR339      0.0417
    109  CZ        34.7950  -45.1980  -14.5590 C.ar  339  TYR339      0.1957
    110  OH        35.0050  -44.6940  -13.2980 O.3   339  TYR339     -0.2866
    111  N         30.8920  -41.6110  -18.9800 N.3   343  ARG343     -0.1245
    112  CA        31.0340  -40.7240  -17.8420 C.3   343  ARG343      0.1563
    113  C         31.4140  -39.2940  -18.2250 C.2   343  ARG343      0.2260
    114  O         31.2990  -38.4020  -17.3780 O.2   343  ARG343     -0.2867
    115  CB        32.1210  -41.2580  -16.8910 C.3   343  ARG343      0.0307
    116  CG        31.7750  -42.5680  -16.1980 C.3   343  ARG343      0.0489
    117  CD        30.7270  -42.3440  -15.1100 C.3   343  ARG343      0.2205
    118  NE        30.7140  -43.4160  -14.1190 N.pl3 343  ARG343     -0.0865
    119  CZ        30.0000  -44.5360  -14.2050 C.cat 343  ARG343      0.5346
    120  NH1       29.2380  -44.7830  -15.2780 N.pl3 343  ARG343      0.1354
    121  NH2       30.0870  -45.4230  -13.2160 N.pl3 343  ARG343      0.1354
    122  N         34.5250  -38.3610  -18.7630 N.3   345  TYR345     -0.1241
    123  CA        35.7420  -38.0340  -18.0300 C.3   345  TYR345      0.1605
    124  C         36.8330  -37.5370  -18.9700 C.2   345  TYR345      0.2264
    125  O         36.9340  -37.9720  -20.1350 O.2   345  TYR345     -0.2867
    126  CB        36.2670  -39.2500  -17.2680 C.3   345  TYR345      0.0534
    127  CG        35.4440  -39.7070  -16.0780 C.ar  345  TYR345     -0.0201
    128  CD1       34.5810  -38.8400  -15.4050 C.ar  345  TYR345     -0.0009
    129  CD2       35.5570  -41.0270  -15.6040 C.ar  345  TYR345     -0.0009
    130  CE1       33.8540  -39.2710  -14.2910 C.ar  345  TYR345      0.0417
    131  CE2       34.8450  -41.4540  -14.4990 C.ar  345  TYR345      0.0417
    132  CZ        33.9840  -40.5790  -13.8530 C.ar  345  TYR345      0.1957
    133  OH        33.2440  -41.0230  -12.7660 O.3   345  TYR345     -0.2866
    134  N         32.4000  -51.7020   -9.6810 N.3   408  TRP408     -0.1241
    135  CA        33.5880  -51.8530   -8.8520 C.3   408  TRP408      0.1605
    136  C         34.5300  -52.9000   -9.4260 C.2   408  TRP408      0.2264
    137  O         35.7420  -52.7020   -9.4470 O.2   408  TRP408     -0.2867
    138  CB        33.2110  -52.1380   -7.3890 C.3   408  TRP408      0.0550
    139  CG        33.1790  -50.8860   -6.5210 C.ar  408  TRP408      0.0003
    140  CD1       33.9280  -50.6510   -5.3810 C.ar  408  TRP408      0.0946
    141  CD2       32.3900  -49.6420   -6.7270 C.ar  408  TRP408      0.0152
    142  NE1       33.6710  -49.4050   -4.8580 N.ar  408  TRP408     -0.2442
    143  CE2       32.7830  -48.7390   -5.6430 C.ar  408  TRP408      0.0810
    144  CE3       31.4560  -49.2160   -7.6600 C.ar  408  TRP408      0.0012
    145  CZ2       32.2280  -47.4700   -5.4960 C.ar  408  TRP408      0.0191
    146  CZ3       30.9090  -47.9230   -7.5150 C.ar  408  TRP408      0.0001
    147  CH2       31.2860  -47.0820   -6.4530 C.ar  408  TRP408      0.0015
    148  N         36.3440  -51.3120  -12.3780 N.3   411  LYS411     -0.1245
    149  CA        37.4580  -50.4470  -11.9740 C.3   411  LYS411      0.1561
    150  C         38.6730  -51.2360  -11.4810 C.2   411  LYS411      0.2260
    151  O         39.8130  -50.8770  -11.7770 O.2   411  LYS411     -0.2867
    152  CB        36.9970  -49.4320  -10.9180 C.3   411  LYS411      0.0271
    153  CG        36.1110  -48.3330  -11.5160 C.3   411  LYS411      0.0035
    154  CD        35.5670  -47.3460  -10.4720 C.3   411  LYS411      0.0206
    155  CE        34.4820  -47.9650   -9.5880 C.3   411  LYS411      0.1093
    156  NZ        33.8290  -46.9250   -8.7380 N.3   411  LYS411     -0.1314
@<TRIPOS>BOND
     1    99   100    1
     2   125   124    2
     3   100   101    1
     4   100   103    1
     5   101   102    2
     6   111   112    1
     7   124   123    1
     8   122   123    1
     9   103   104    1
    10   113   112    1
    11   113   114    2
    12   123   126    1
    13   112   115    1
    14   126   127    1
    15   104   106   ar
    16   104   105   ar
    17   115   116    1
    18   106   108   ar
    19    80    79    2
    20   116   117    1
    21   105   107   ar
    22   127   129   ar
    23   127   128   ar
    24    71    70    2
    25   129   131   ar
    26    79    78    1
    27   108   109   ar
    28   128   130   ar
    29   120   119    1
    30   117   118    1
    31   107   109   ar
    32    78    77    1
    33    78    81    1
    34    70    77   am
    35    70    69    1
    36   109   110    1
    37   131   132   ar
    38   130   132   ar
    39   119   118    2
    40   119   121    1
    41     1     2    1
    42    83    82   ar
    43    83    85   ar
    44    69    72    1
    45    69    68    1
    46   132   133    1
    47    81    82    1
    48    72    73    1
    49    82    84   ar
    50     8     7    2
    51     5     2    1
    52     5     6    1
    53    85    86   ar
    54     2     3    1
    55    90    89    2
    56    73    74    1
    57   148   149    1
    58     7     6    1
    59     7     9   am
    60    89    88    1
    61   149   150    1
    62   149   152    1
    63    84    86   ar
    64    91    88    1
    65    91    92    1
    66   151   150    2
    67     3    10   am
    68     3     4    2
    69   153   152    1
    70   153   154    1
    71    94    92   ar
    72    94    96   ar
    73    10    11    1
    74    88    87    1
    75    74    75    2
    76    74    76   am
    77    92    93   ar
    78    19    17   ar
    79    19    20   ar
    80    96    97   ar
    81    17    15   ar
    82   154   155    1
    83    33    32    1
    84    11    12    1
    85    11    14    1
    86    12    13    2
    87    20    21    1
    88    20    18   ar
    89    15    14    1
    90    15    16   ar
    91   134   135    1
    92    93    95   ar
    93   155   156    1
    94   137   136    2
    95   136   135    1
    96    97    95   ar
    97    97    98    1
    98    32    31   ar
    99    32    30   ar
   100    18    16   ar
   101   135   138    1
   102    31    29   ar
   103    30    28   ar
   104    63    62    2
   105   144   146   ar
   106   144   141   ar
   107    62    61    1
   108   146   147   ar
   109    29    27   ar
   110   138   139    1
   111    28    27   ar
   112   141   139   ar
   113   141   143   ar
   114    61    64    1
   115    61    60    1
   116   139   140   ar
   117   147   145   ar
   118    27    26    1
   119    64    65    1
   120    66    65   ar
   121   143   145   ar
   122   143   142   ar
   123   140   142   ar
   124    65    67   ar
   125    51    49    1
   126    26    23    1
   127    44    43   ar
   128    44    42   ar
   129    43    41   ar
   130    48    47    2
   131    22    23    1
   132    58    59    1
   133    58    57    1
   134    23    24    1
   135    59    53    1
   136    42    40   ar
   137    49    50    1
   138    49    46    1
   139    47    46    1
   140    41    39   ar
   141    50    52    1
   142    57    54    1
   143    46    45    1
   144    24    25    2
   145    53    54    1
   146    40    39   ar
   147    39    38    1
   148    54    55    1
   149    38    35    1
   150    55    56    2
   151    34    35    1
   152    35    36    1
   153    36    37    2
