@<TRIPOS>MOLECULE
tmp/4ineA00.pdb
 220 212 0 0 0
SMALL
GASTEIGER

@<TRIPOS>ATOM
      1  N         25.4620  -28.8060  -19.1230 N.3   174  PHE174     -0.1241
      2  CA        26.2400  -29.7380  -18.3280 C.3   174  PHE174      0.1605
      3  C         25.6300  -30.0000  -16.9470 C.2   174  PHE174      0.2264
      4  O         25.6540  -31.1320  -16.4700 O.2   174  PHE174     -0.2867
      5  CB        27.6910  -29.2530  -18.2140 C.3   174  PHE174      0.0534
      6  CG        28.6060  -30.2630  -17.5710 C.ar  174  PHE174     -0.0203
      7  CD1       28.7810  -31.5230  -18.1400 C.ar  174  PHE174     -0.0042
      8  CD2       29.2450  -29.9700  -16.3880 C.ar  174  PHE174     -0.0042
      9  CE1       29.6260  -32.4550  -17.5470 C.ar  174  PHE174     -0.0003
     10  CE2       30.0710  -30.9130  -15.7800 C.ar  174  PHE174     -0.0003
     11  CZ        30.2600  -32.1460  -16.3690 C.ar  174  PHE174     -0.0000
     12  N         24.8100  -33.7630  -15.4500 N.3   178  LEU178     -0.1245
     13  CA        25.1460  -34.3190  -14.1330 C.3   178  LEU178      0.1561
     14  C         23.9070  -34.8130  -13.3790 C.2   178  LEU178      0.2260
     15  O         23.8840  -35.9310  -12.8510 O.2   178  LEU178     -0.2867
     16  CB        25.8790  -33.2560  -13.2910 C.3   178  LEU178      0.0270
     17  CG        27.2700  -32.8460  -13.8210 C.3   178  LEU178      0.0019
     18  CD1       27.6910  -31.5900  -13.0670 C.3   178  LEU178      0.0001
     19  CD2       28.2820  -33.9640  -13.6310 C.3   178  LEU178      0.0001
     20  N         24.4160  -38.4000  -11.4670 N.3   183  TYR183     -0.1241
     21  CA        24.0440  -37.9080  -10.1550 C.3   183  TYR183      0.1605
     22  C         22.5350  -37.6010  -10.0940 C.2   183  TYR183      0.2264
     23  O         22.0760  -36.5400   -9.6380 O.2   183  TYR183     -0.2867
     24  CB        24.9180  -36.6920   -9.7870 C.3   183  TYR183      0.0534
     25  CG        26.4100  -36.9920   -9.8140 C.ar  183  TYR183     -0.0201
     26  CD1       26.9580  -37.8900   -8.9130 C.ar  183  TYR183     -0.0009
     27  CD2       27.2400  -36.3700  -10.7200 C.ar  183  TYR183     -0.0009
     28  CE1       28.3180  -38.1810   -8.9140 C.ar  183  TYR183      0.0417
     29  CE2       28.6040  -36.6650  -10.7440 C.ar  183  TYR183      0.0417
     30  CZ        29.1250  -37.5580   -9.8290 C.ar  183  TYR183      0.1957
     31  OH        30.4880  -37.8450   -9.8070 O.3   183  TYR183     -0.2866
     32  N         27.4150  -39.4120    3.8940 N.3   198  ASN198     -0.1225
     33  CA        27.8650  -38.0480    3.5260 C.3   198  ASN198      0.1785
     34  C         28.9630  -37.9670    2.4490 C.2   198  ASN198      0.2597
     35  O         29.3540  -36.8590    2.0610 O.2   198  ASN198     -0.2718
     36  CB        28.2830  -37.2210    4.7540 C.3   198  ASN198      0.1169
     37  CG        27.1690  -37.0590    5.7630 C.2   198  ASN198      0.2627
     38  OD1       26.0400  -36.7150    5.4070 O.2   198  ASN198     -0.2716
     39  ND2       27.4820  -37.2880    7.0340 N.am  198  ASN198     -0.0877
     40  N         29.4170  -39.1130    1.9410 N.am  199  PHE199     -0.1962
     41  CA        30.4870  -39.1320    0.9370 C.3   199  PHE199      0.1771
     42  C         30.1280  -39.8110   -0.3600 C.2   199  PHE199      0.2619
     43  O         29.3790  -40.8150   -0.3850 O.2   199  PHE199     -0.2715
     44  CB        31.7720  -39.7460    1.5180 C.3   199  PHE199      0.0574
     45  CG        32.4260  -38.8710    2.5550 C.ar  199  PHE199     -0.0200
     46  CD1       33.3860  -37.9300    2.1740 C.ar  199  PHE199     -0.0042
     47  CD2       32.0690  -38.9570    3.8850 C.ar  199  PHE199     -0.0042
     48  CE1       33.9660  -37.0850    3.1160 C.ar  199  PHE199     -0.0003
     49  CE2       32.6410  -38.1150    4.8350 C.ar  199  PHE199     -0.0003
     50  CZ        33.6090  -37.1890    4.4550 C.ar  199  PHE199     -0.0000
     51  N         30.6930  -39.2690   -1.4430 N.am  200  ILE200     -0.1963
     52  CA        30.5700  -39.8140   -2.7880 C.3   200  ILE200      0.1727
     53  C         31.9990  -39.9570   -3.3290 C.2   200  ILE200      0.2616
     54  O         32.2860  -39.6420   -4.4800 O.2   200  ILE200     -0.2715
     55  CB        29.6800  -38.9200   -3.6910 C.3   200  ILE200      0.0290
     56  CG1       28.3420  -38.6140   -3.0090 C.3   200  ILE200      0.0022
     57  CG2       29.4340  -39.5820   -5.0440 C.3   200  ILE200      0.0023
     58  CD1       27.4080  -39.8050   -2.8570 C.3   200  ILE200      0.0001
     59  N         32.8840  -40.4640   -2.4750 N.am  201  SER201     -0.1950
     60  CA        34.2810  -40.6170   -2.8700 C.3   201  SER201      0.1924
     61  C         34.9180  -41.7710   -2.0870 C.2   201  SER201      0.2314
     62  O         34.4910  -42.0700   -0.9740 O.2   201  SER201     -0.2863
     63  CB        35.0440  -39.3060   -2.6340 C.3   201  SER201      0.2116
     64  OG        34.9550  -38.9370   -1.2790 O.3   201  SER201     -0.2180
     65  N         38.9060  -39.5940    3.8290 N.3   208  ASN208     -0.1240
     66  CA        38.9930  -38.1530    3.6330 C.3   208  ASN208      0.1653
     67  C         39.7930  -37.4720    4.7240 C.2   208  ASN208      0.2266
     68  O         40.5670  -36.5290    4.4350 O.2   208  ASN208     -0.2867
     69  CB        37.6090  -37.5160    3.5150 C.3   208  ASN208      0.1155
     70  CG        37.6760  -36.1630    2.8240 C.2   208  ASN208      0.2627
     71  OD1       37.8860  -36.1000    1.6140 O.2   208  ASN208     -0.2716
     72  ND2       37.4760  -35.0900    3.5810 N.am  208  ASN208     -0.0877
     73  N         36.1020  -25.7670   -1.4630 N.3   226  ASP226     -0.1239
     74  CA        35.9590  -27.1700   -1.8350 C.3   226  ASP226      0.1674
     75  C         35.2770  -27.2540   -3.1850 C.2   226  ASP226      0.2266
     76  O         34.0940  -26.8600   -3.3370 O.2   226  ASP226     -0.2867
     77  CB        35.2080  -27.9350   -0.7390 C.3   226  ASP226      0.1410
     78  CG        35.1080  -29.4180   -1.0260 C.2   226  ASP226      0.3668
     79  OD1       34.8580  -29.7900   -2.1940 O.co2 226  ASP226     -0.2456
     80  OD2       35.2900  -30.2160   -0.0680 O.co2 226  ASP226     -0.2456
     81  N         33.6160  -29.1910   -6.0780 N.3   228  GLY228     -0.1210
     82  CA        32.8960  -30.4520   -6.2740 C.3   228  GLY228      0.1956
     83  C         32.5230  -31.0850   -4.9500 C.2   228  GLY228      0.2612
     84  O         32.8080  -32.2640   -4.7220 O.2   228  GLY228     -0.2717
     85  N         31.9140  -30.2980   -4.0700 N.am  229  VAL229     -0.1965
     86  CA        31.6900  -30.6580   -2.6700 C.3   229  VAL229      0.1727
     87  C         30.6450  -31.7540   -2.4880 C.2   229  VAL229      0.2617
     88  O         30.5460  -32.3250   -1.4000 O.2   229  VAL229     -0.2715
     89  CB        31.3500  -29.3890   -1.8630 C.3   229  VAL229      0.0290
     90  CG1       29.9210  -28.9120   -2.1810 C.3   229  VAL229      0.0023
     91  CG2       31.5700  -29.6330   -0.3700 C.3   229  VAL229      0.0023
     92  N         29.8950  -32.0650   -3.5450 N.am  230  GLY230     -0.1940
     93  CA        28.9390  -33.2050   -3.4930 C.3   230  GLY230      0.2014
     94  C         27.8540  -33.0250   -2.4490 C.2   230  GLY230      0.2639
     95  O         27.2390  -31.9600   -2.3790 O.2   230  GLY230     -0.2714
     96  N         27.6330  -34.0630   -1.6240 N.am  231  ILE231     -0.1963
     97  CA        26.5710  -33.9980   -0.6180 C.3   231  ILE231      0.1727
     98  C         27.1070  -33.4510    0.7040 C.2   231  ILE231      0.2617
     99  O         26.4160  -33.4370    1.7110 O.2   231  ILE231     -0.2715
    100  CB        25.7880  -35.3280   -0.4330 C.3   231  ILE231      0.0290
    101  CG1       26.7250  -36.4590    0.0020 C.3   231  ILE231      0.0022
    102  CG2       25.0320  -35.6820   -1.7040 C.3   231  ILE231      0.0023
    103  CD1       25.9540  -37.7370    0.3510 C.3   231  ILE231      0.0001
    104  N         28.3830  -33.0190    0.6980 N.am  232  GLY232     -0.1940
    105  CA        28.8970  -32.1440    1.7490 C.3   232  GLY232      0.2014
    106  C         29.7780  -32.7500    2.8390 C.2   232  GLY232      0.2639
    107  O         30.2600  -32.0220    3.7000 O.2   232  GLY232     -0.2714
    108  N         29.9610  -34.0690    2.8060 N.am  233  GLY233     -0.1954
    109  CA        30.6700  -34.7220    3.9110 C.3   233  GLY233      0.1869
    110  C         32.0530  -34.1730    4.2130 C.2   233  GLY233      0.2309
    111  O         32.4310  -34.0300    5.3900 O.2   233  GLY233     -0.2863
    112  N         31.4590  -25.7160   -3.5600 N.3   249  ILE249     -0.1231
    113  CA        30.7500  -25.4970   -4.8210 C.3   249  ILE249      0.1692
    114  C         30.5070  -26.8100   -5.5420 C.2   249  ILE249      0.2592
    115  O         31.3000  -27.7540   -5.4370 O.2   249  ILE249     -0.2718
    116  CB        31.4650  -24.4780   -5.7310 C.3   249  ILE249      0.0266
    117  CG1       32.7880  -25.0360   -6.3050 C.3   249  ILE249      0.0019
    118  CG2       31.6980  -23.1760   -4.9550 C.3   249  ILE249      0.0020
    119  CD1       33.3540  -24.1850   -7.4280 C.3   249  ILE249      0.0001
    120  N         29.3800  -26.8960   -6.2480 N.am  250  ASP250     -0.1960
    121  CA        29.0970  -28.0770   -7.0340 C.3   250  ASP250      0.1840
    122  C         28.0860  -27.6920   -8.0990 C.2   250  ASP250      0.2622
    123  O         27.1960  -26.8680   -7.8170 O.2   250  ASP250     -0.2715
    124  CB        28.5290  -29.2000   -6.1380 C.3   250  ASP250      0.1450
    125  CG        28.7120  -30.5660   -6.7530 C.2   250  ASP250      0.3671
    126  OD1       29.5680  -31.3450   -6.2640 O.co2 250  ASP250     -0.2456
    127  OD2       28.0380  -30.8700   -7.7540 O.co2 250  ASP250     -0.2456
    128  N         28.2310  -28.2710   -9.2880 N.am  251  LEU251     -0.1963
    129  CA        27.3340  -27.9970  -10.4030 C.3   251  LEU251      0.1728
    130  C         26.1100  -28.9310  -10.4190 C.2   251  LEU251      0.2616
    131  O         25.1300  -28.6160  -11.1010 O.2   251  LEU251     -0.2715
    132  CB        28.1110  -28.0360  -11.7320 C.3   251  LEU251      0.0311
    133  CG        27.3420  -27.5330  -12.9560 C.3   251  LEU251      0.0022
    134  CD1       26.7710  -26.1180  -12.7750 C.3   251  LEU251      0.0001
    135  CD2       28.2550  -27.6540  -14.1750 C.3   251  LEU251      0.0001
    136  N         26.1150  -30.0130   -9.6480 N.am  252  SER252     -0.1950
    137  CA        24.9160  -30.8710   -9.5410 C.3   252  SER252      0.1924
    138  C         23.9680  -30.2680   -8.4940 C.2   252  SER252      0.2314
    139  O         24.2670  -30.2070   -7.2920 O.2   252  SER252     -0.2863
    140  CB        25.3340  -32.2720   -9.0880 C.3   252  SER252      0.2116
    141  OG        24.1610  -33.0440   -8.7370 O.3   252  SER252     -0.2180
    142  N         23.0480  -33.0330   -5.9350 N.3   255  MET255     -0.1245
    143  CA        24.0370  -33.2060   -4.8920 C.3   255  MET255      0.1570
    144  C         23.8990  -32.1110   -3.8540 C.2   255  MET255      0.2261
    145  O         23.8050  -32.3680   -2.6490 O.2   255  MET255     -0.2867
    146  CB        25.4440  -33.1210   -5.5120 C.3   255  MET255      0.0387
    147  CG        25.8480  -34.3540   -6.3140 C.3   255  MET255      0.0595
    148  SD        26.2280  -35.7950   -5.2680 S.3   255  MET255     -0.1393
    149  CE        28.0110  -35.9610   -5.3050 C.3   255  MET255      0.0692
    150  N         27.1130  -24.0140   -8.8010 N.3   276  THR276     -0.1203
    151  CA        27.8610  -23.2560   -9.8000 C.3   276  THR276      0.1994
    152  C         28.9170  -24.1440  -10.4390 C.2   276  THR276      0.2618
    153  O         29.3150  -25.1490   -9.8600 O.2   276  THR276     -0.2717
    154  CB        28.5240  -22.0220   -9.1470 C.3   276  THR276      0.1784
    155  OG1       29.0430  -21.1240  -10.1530 O.3   276  THR276     -0.2211
    156  CG2       29.6550  -22.4400   -8.1790 C.3   276  THR276      0.0376
    157  N         29.3520  -23.7510  -11.6310 N.am  277  ASP277     -0.1959
    158  CA        30.4810  -24.4000  -12.3400 C.3   277  ASP277      0.1840
    159  C         31.7960  -23.8170  -11.8330 C.2   277  ASP277      0.2622
    160  O         31.9670  -22.5930  -11.7610 O.2   277  ASP277     -0.2715
    161  CB        30.2880  -24.1380  -13.8370 C.3   277  ASP277      0.1450
    162  CG        31.2290  -24.9220  -14.7210 C.2   277  ASP277      0.3671
    163  OD1       32.3510  -25.2940  -14.3230 O.co2 277  ASP277     -0.2456
    164  OD2       30.8220  -25.1820  -15.8730 O.co2 277  ASP277     -0.2456
    165  N         32.7000  -24.7140  -11.4450 N.am  278  ALA278     -0.1963
    166  CA        34.0590  -24.3140  -11.0420 C.3   278  ALA278      0.1728
    167  C         34.7790  -23.4100  -12.0550 C.2   278  ALA278      0.2616
    168  O         35.6660  -22.6420  -11.6650 O.2   278  ALA278     -0.2715
    169  CB        34.9100  -25.5570  -10.7340 C.3   278  ALA278      0.0334
    170  N         34.4020  -23.4790  -13.3300 N.am  279  LEU279     -0.1977
    171  CA        35.0180  -22.6080  -14.3450 C.3   279  LEU279      0.1596
    172  C         34.2750  -21.2870  -14.5850 C.2   279  LEU279      0.2287
    173  O         34.7090  -20.4520  -15.3940 O.2   279  LEU279     -0.2864
    174  CB        35.1630  -23.3680  -15.6580 C.3   279  LEU279      0.0297
    175  CG        36.0350  -24.6260  -15.6260 C.3   279  LEU279      0.0022
    176  CD1       36.0800  -25.2380  -17.0240 C.3   279  LEU279      0.0001
    177  CD2       37.4310  -24.2570  -15.1400 C.3   279  LEU279      0.0001
    178  N         38.1460  -33.1470   -4.0210 N.3   294  ARG294     -0.1231
    179  CA        38.1840  -34.5590   -3.7420 C.3   294  ARG294      0.1694
    180  C         37.4120  -35.3440   -4.8110 C.2   294  ARG294      0.2592
    181  O         36.1600  -35.3790   -4.8120 O.2   294  ARG294     -0.2718
    182  CB        37.6200  -34.8240   -2.3440 C.3   294  ARG294      0.0321
    183  CG        37.7470  -36.2660   -1.9000 C.3   294  ARG294      0.0489
    184  CD        39.1900  -36.7050   -1.5790 C.3   294  ARG294      0.2205
    185  NE        39.1850  -38.1360   -1.8300 N.pl3 294  ARG294     -0.0865
    186  CZ        38.6390  -39.0360   -1.0080 C.cat 294  ARG294      0.5346
    187  NH1       38.2640  -38.6890    0.2240 N.pl3 294  ARG294      0.1354
    188  NH2       38.5640  -40.2990   -1.4090 N.pl3 294  ARG294      0.1354
    189  N         38.1430  -35.9580   -5.7280 N.am  295  ASP295     -0.1960
    190  CA        37.6020  -36.8990   -6.7140 C.3   295  ASP295      0.1840
    191  C         36.4790  -36.3000   -7.5360 C.2   295  ASP295      0.2622
    192  O         35.3930  -36.8960   -7.6970 O.2   295  ASP295     -0.2715
    193  CB        37.2380  -38.2210   -6.0160 C.3   295  ASP295      0.1450
    194  CG        38.4640  -38.8430   -5.3380 C.2   295  ASP295      0.3671
    195  OD1       39.5840  -38.6600   -5.8890 O.co2 295  ASP295     -0.2456
    196  OD2       38.3360  -39.4580   -4.2490 O.co2 295  ASP295     -0.2456
    197  N         36.7830  -35.0990   -8.0270 N.am  296  CYS296     -0.1968
    198  CA        35.9060  -34.2830   -8.8640 C.3   296  CYS296      0.1712
    199  C         36.4950  -33.9820  -10.2430 C.2   296  CYS296      0.2296
    200  O         35.7830  -34.0670  -11.2560 O.2   296  CYS296     -0.2864
    201  CB        35.5770  -32.9490   -8.1470 C.3   296  CYS296      0.0983
    202  SG        35.0470  -31.5870   -9.2380 S.3   296  CYS296     -0.0798
    203  N         35.9460  -34.7330  -14.1140 N.3   299  HIS299     -0.1226
    204  CA        34.7440  -34.2080  -14.8040 C.3   299  HIS299      0.1752
    205  C         35.0280  -32.9360  -15.5790 C.2   299  HIS299      0.2595
    206  O         34.1840  -32.4990  -16.3720 O.2   299  HIS299     -0.2718
    207  CB        33.6380  -33.8750  -13.7960 C.3   299  HIS299      0.0759
    208  CG        32.9100  -35.0810  -13.1960 C.ar  299  HIS299      0.0818
    209  ND1       31.9530  -35.7910  -13.8820 N.ar  299  HIS299     -0.2268
    210  CD2       32.9750  -35.6370  -11.9220 C.ar  299  HIS299      0.1154
    211  CE1       31.4760  -36.7720  -13.0750 C.ar  299  HIS299      0.1986
    212  NE2       32.0630  -36.6620  -11.8720 N.ar  299  HIS299     -0.2212
    213  N         36.1910  -32.3110  -15.3440 N.am  300  ILE300     -0.1980
    214  CA        36.4370  -30.9540  -15.8660 C.3   300  ILE300      0.1595
    215  C         37.4790  -30.9960  -16.9820 C.2   300  ILE300      0.2287
    216  O         38.6410  -31.3130  -16.7390 O.2   300  ILE300     -0.2864
    217  CB        36.8900  -30.0160  -14.7150 C.3   300  ILE300      0.0276
    218  CG1       35.7900  -29.9730  -13.6230 C.3   300  ILE300      0.0022
    219  CG2       37.2290  -28.6240  -15.2670 C.3   300  ILE300      0.0022
    220  CD1       36.1420  -29.1270  -12.4240 C.3   300  ILE300      0.0001
@<TRIPOS>BOND
     1     1     2    1
     2     2     5    1
     3     2     3    1
     4     5     6    1
     5     7     6   ar
     6     7     9   ar
     7     6     8   ar
     8     9    11   ar
     9   176   175    1
    10   215   216    2
    11   215   214    1
    12     3     4    2
    13     8    10   ar
    14   206   205    2
    15    11    10   ar
    16   164   162   ar
    17   214   213    1
    18   214   217    1
    19   174   175    1
    20   174   171    1
    21   175   177    1
    22   205   213   am
    23   205   204    1
    24    12    13    1
    25   173   172    2
    26   219   217    1
    27   204   203    1
    28   204   207    1
    29   162   163   ar
    30   162   161    1
    31   217   218    1
    32   172   171    1
    33   171   170    1
    34   135   133    1
    35    13    14    1
    36    13    16    1
    37   209   208   ar
    38   209   211   ar
    39   161   158    1
    40    17    19    1
    41    17    16    1
    42    17    18    1
    43   207   208    1
    44   218   220    1
    45    14    15    2
    46   170   167   am
    47   208   210   ar
    48   211   212   ar
    49   133   134    1
    50   133   132    1
    51   158   159    1
    52   158   157    1
    53   167   168    2
    54   167   166    1
    55   210   212   ar
    56   159   160    2
    57   159   165   am
    58   132   129    1
    59   157   152   am
    60    20    21    1
    61   165   166    1
    62   200   199    2
    63   131   130    2
    64   166   169    1
    65    29    27   ar
    66    29    30   ar
    67    27    25   ar
    68   152   153    2
    69   152   151    1
    70   130   129    1
    71   130   136   am
    72   129   128    1
    73   199   198    1
    74    21    22    1
    75    21    24    1
    76   155   154    1
    77    22    23    2
    78    30    31    1
    79    30    28   ar
    80    25    24    1
    81    25    26   ar
    82   151   154    1
    83   151   150    1
    84   136   137    1
    85   137   140    1
    86   137   138    1
    87   128   122   am
    88   202   201    1
    89   154   156    1
    90   140   141    1
    91    28    26   ar
    92   198   201    1
    93   198   197    1
    94   138   139    2
    95   122   123    2
    96   122   121    1
    97   197   191   am
    98   127   125   ar
    99   192   191    2
   100   191   190    1
   101   119   117    1
   102   121   120    1
   103   121   124    1
   104   125   126   ar
   105   125   124    1
   106   190   193    1
   107   190   189    1
   108   147   146    1
   109   147   148    1
   110   117   116    1
   111    82    81    1
   112    82    83    1
   113   120   114   am
   114   193   194    1
   115   142   143    1
   116   195   194   ar
   117   116   118    1
   118   116   113    1
   119   189   180   am
   120   114   115    2
   121   114   113    1
   122   146   143    1
   123   194   196   ar
   124   149   148    1
   125    57    55    1
   126    83    84    2
   127    83    85   am
   128   143   144    1
   129   113   112    1
   130   181   180    2
   131   180   179    1
   132    54    53    2
   133    85    86    1
   134   178   179    1
   135   144   145    2
   136   179   182    1
   137    55    56    1
   138    55    52    1
   139    92    93    1
   140    92    87   am
   141    93    94    1
   142    76    75    2
   143    53    52    1
   144    53    59   am
   145    75    74    1
   146    56    58    1
   147    60    63    1
   148    60    59    1
   149    60    61    1
   150    52    51    1
   151    86    87    1
   152    86    89    1
   153    63    64    1
   154    87    88    2
   155    94    95    2
   156    94    96   am
   157   182   183    1
   158    79    78   ar
   159    90    89    1
   160    61    62    2
   161   183   184    1
   162    89    91    1
   163    74    73    1
   164    74    77    1
   165   185   184    1
   166   185   186    2
   167   102   100    1
   168    96    97    1
   169    51    42   am
   170   188   186    1
   171    78    77    1
   172    78    80   ar
   173   186   187    1
   174    97   100    1
   175    97    98    1
   176   100   101    1
   177    43    42    2
   178    42    41    1
   179   101   103    1
   180   104    98   am
   181   104   105    1
   182    98    99    2
   183    41    44    1
   184    41    40    1
   185    44    45    1
   186    71    70    2
   187   105   106    1
   188    40    34   am
   189    35    34    2
   190    46    45   ar
   191    46    48   ar
   192    34    33    1
   193    45    47   ar
   194   108   106   am
   195   108   109    1
   196    70    69    1
   197    70    72   am
   198   106   107    2
   199    48    50   ar
   200    69    66    1
   201    33    32    1
   202    33    36    1
   203    66    65    1
   204    66    67    1
   205    47    49   ar
   206   109   110    1
   207   110   111    2
   208    68    67    2
   209    50    49   ar
   210    36    37    1
   211    38    37    2
   212    37    39   am
