@<TRIPOS>MOLECULE
tmp/4inhD00.pdb
 179 169 0 0 0
SMALL
GASTEIGER

@<TRIPOS>ATOM
      1  N         58.9040   63.9680   34.0650 N.3    16  SER16      -0.1217
      2  CA        59.3880   62.6100   33.8520 C.3    16  SER16       0.1889
      3  C         58.4900   61.8520   32.8790 C.2    16  SER16       0.2288
      4  O         58.2160   60.6670   33.0690 O.2    16  SER16      -0.2866
      5  CB        59.4760   61.8570   35.1810 C.3    16  SER16       0.2089
      6  OG        58.2130   61.8050   35.8220 O.3    16  SER16      -0.2183
      7  N         51.5480   62.3010   38.1740 N.3    32  HIS32      -0.1226
      8  CA        52.8050   61.8790   38.7780 C.3    32  HIS32       0.1752
      9  C         54.0450   62.1970   37.9500 C.2    32  HIS32       0.2595
     10  O         55.1720   62.0660   38.4580 O.2    32  HIS32      -0.2718
     11  CB        52.7760   60.3970   39.1710 C.3    32  HIS32       0.0759
     12  CG        52.8960   59.4560   38.0040 C.ar   32  HIS32       0.0818
     13  ND1       51.7960   58.8770   37.4110 N.ar   32  HIS32      -0.2268
     14  CD2       53.9750   58.9940   37.3430 C.ar   32  HIS32       0.1154
     15  CE1       52.1960   58.1060   36.4170 C.ar   32  HIS32       0.1986
     16  NE2       53.5160   58.1430   36.3590 N.ar   32  HIS32      -0.2212
     17  N         53.8870   62.6400   36.7040 N.am   33  VAL33      -0.1980
     18  CA        55.0840   63.1090   35.9780 C.3    33  VAL33       0.1595
     19  C         55.3400   64.6230   36.1110 C.2    33  VAL33       0.2287
     20  O         56.3710   65.1160   35.6690 O.2    33  VAL33      -0.2864
     21  CB        55.0690   62.7600   34.4570 C.3    33  VAL33       0.0276
     22  CG1       54.6300   61.3040   34.2210 C.3    33  VAL33       0.0022
     23  CG2       54.2130   63.7470   33.6840 C.3    33  VAL33       0.0022
     24  N         44.9620   61.3690   38.9820 N.3    56  GLU56      -0.1245
     25  CA        46.1530   61.2680   38.1140 C.3    56  GLU56       0.1567
     26  C         46.0350   62.0030   36.7850 C.2    56  GLU56       0.2260
     27  O         46.9290   61.9210   35.9300 O.2    56  GLU56      -0.2867
     28  CB        46.6080   59.8110   37.9160 C.3    56  GLU56       0.0388
     29  CG        47.4520   59.2640   39.0630 C.3    56  GLU56       0.1160
     30  CD        48.7210   60.0910   39.2880 C.2    56  GLU56       0.3649
     31  OE1       49.5560   60.1660   38.3610 O.co2  56  GLU56      -0.2457
     32  OE2       48.8820   60.6620   40.3960 O.co2  56  GLU56      -0.2457
     33  N         40.5700   53.3340   40.3900 N.3   109  MET109     -0.1230
     34  CA        41.4970   52.3190   40.8840 C.3   109  MET109      0.1702
     35  C         42.5090   52.9560   41.7980 C.2   109  MET109      0.2592
     36  O         42.6010   54.1820   41.8960 O.2   109  MET109     -0.2718
     37  CB        42.3110   51.7500   39.7300 C.3   109  MET109      0.0401
     38  CG        41.5550   51.5880   38.4910 C.3   109  MET109      0.0596
     39  SD        42.6870   51.4420   37.1030 S.3   109  MET109     -0.1393
     40  CE        41.4940   51.7130   35.8110 C.3   109  MET109      0.0692
     41  N         43.3340   52.1200   42.4070 N.am  110  ARG110     -0.1966
     42  CA        44.4970   52.6210   43.1040 C.3   110  ARG110      0.1729
     43  C         45.7090   51.8630   42.5910 C.2   110  ARG110      0.2616
     44  O         45.7410   50.6400   42.6200 O.2   110  ARG110     -0.2715
     45  CB        44.3250   52.4520   44.6100 C.3   110  ARG110      0.0348
     46  CG        45.5640   52.8030   45.4120 C.3   110  ARG110      0.0492
     47  CD        45.1920   53.0190   46.8680 C.3   110  ARG110      0.2205
     48  NE        44.1670   54.0530   46.9690 N.pl3 110  ARG110     -0.0865
     49  CZ        44.3370   55.2220   47.5770 C.cat 110  ARG110      0.5346
     50  NH1       45.4940   55.5090   48.1610 N.pl3 110  ARG110      0.1354
     51  NH2       43.3450   56.1010   47.6140 N.pl3 110  ARG110      0.1354
     52  N         46.7130   52.5730   42.1040 N.am  111  ILE111     -0.1963
     53  CA        47.7600   51.8590   41.3790 C.3   111  ILE111      0.1727
     54  C         49.0940   51.6490   42.0920 C.2   111  ILE111      0.2616
     55  O         49.5020   50.5020   42.3070 O.2   111  ILE111     -0.2715
     56  CB        47.8860   52.3120   39.9180 C.3   111  ILE111      0.0290
     57  CG1       46.6060   51.8900   39.2020 C.3   111  ILE111      0.0022
     58  CG2       49.1340   51.7000   39.2820 C.3   111  ILE111      0.0023
     59  CD1       46.6100   52.0880   37.6950 C.3   111  ILE111      0.0001
     60  N         49.7970   52.6930   42.4750 N.am  112  GLN112     -0.1977
     61  CA        50.8910   52.4000   43.3990 C.3   112  GLN112      0.1601
     62  C         50.7300   53.3360   44.5570 C.2   112  GLN112      0.2287
     63  O         51.5450   54.2290   44.7930 O.2   112  GLN112     -0.2864
     64  CB        52.2630   52.4870   42.7280 C.3   112  GLN112      0.0394
     65  CG        52.6750   51.1510   42.1070 C.3   112  GLN112      0.0908
     66  CD        53.8570   51.2640   41.1800 C.2   112  GLN112      0.2608
     67  OE1       53.9220   52.1690   40.3480 O.2   112  GLN112     -0.2717
     68  NE2       54.8180   50.3520   41.3310 N.am  112  GLN112     -0.0878
     69  N         48.4190   55.4160   44.5050 N.3   114  ARG114     -0.1245
     70  CA        47.7500   56.5920   43.9580 C.3   114  ARG114      0.1563
     71  C         46.3730   56.2900   43.4230 C.2   114  ARG114      0.2260
     72  O         46.1750   55.2950   42.7180 O.2   114  ARG114     -0.2867
     73  CB        48.5520   57.1860   42.8160 C.3   114  ARG114      0.0307
     74  CG        49.8410   57.7920   43.2450 C.3   114  ARG114      0.0489
     75  CD        50.1350   58.9740   42.3770 C.3   114  ARG114      0.2205
     76  NE        51.4540   59.4920   42.6790 N.pl3 114  ARG114     -0.0865
     77  CZ        51.8750   60.7110   42.3590 C.cat 114  ARG114      0.5346
     78  NH1       51.0660   61.5570   41.7140 N.pl3 114  ARG114      0.1354
     79  NH2       53.1080   61.0810   42.6930 N.pl3 114  ARG114      0.1354
     80  N         43.6130   56.5410   40.8470 N.3   116  VAL116     -0.1245
     81  CA        43.5610   56.7970   39.4200 C.3   116  VAL116      0.1561
     82  C         42.1330   56.7130   38.9330 C.2   116  VAL116      0.2260
     83  O         41.4430   55.7090   39.1440 O.2   116  VAL116     -0.2867
     84  CB        44.4120   55.7820   38.6350 C.3   116  VAL116      0.0252
     85  CG1       44.3620   56.0880   37.1480 C.3   116  VAL116      0.0019
     86  CG2       45.8660   55.8170   39.1170 C.3   116  VAL116      0.0019
     87  N         40.8230   51.4220   31.2690 N.3   120  SER120     -0.1217
     88  CA        41.7690   50.3630   30.9390 C.3   120  SER120      0.1889
     89  C         41.6650   50.0840   29.4570 C.2   120  SER120      0.2288
     90  O         40.6390   50.3590   28.8270 O.2   120  SER120     -0.2866
     91  CB        41.4870   49.0650   31.7090 C.3   120  SER120      0.2089
     92  OG        41.5640   49.2770   33.1080 O.3   120  SER120     -0.2183
     93  N         54.2520   49.9930   25.9670 N.3   128  THR128     -0.1203
     94  CA        54.7310   51.1700   26.6850 C.3   128  THR128      0.1994
     95  C         55.8670   50.8140   27.6370 C.2   128  THR128      0.2618
     96  O         56.1050   49.6340   27.9280 O.2   128  THR128     -0.2717
     97  CB        53.6000   51.7880   27.4860 C.3   128  THR128      0.1784
     98  OG1       53.0730   50.8100   28.4110 O.3   128  THR128     -0.2211
     99  CG2       52.4950   52.2320   26.5390 C.3   128  THR128      0.0376
    100  N         56.5730   51.8440   28.1010 N.am  129  ILE129     -0.1966
    101  CA        57.6530   51.6910   29.0590 C.3   129  ILE129      0.1712
    102  C         57.5470   52.8520   30.0480 C.2   129  ILE129      0.2458
    103  O         56.8480   53.8300   29.7900 O.2   129  ILE129     -0.2730
    104  CB        59.0380   51.7100   28.3640 C.3   129  ILE129      0.0289
    105  CG1       59.3010   53.0590   27.6790 C.3   129  ILE129      0.0022
    106  CG2       59.1630   50.5490   27.3700 C.3   129  ILE129      0.0023
    107  CD1       60.6700   53.0970   26.9820 C.3   129  ILE129      0.0001
    108  N         58.2360   52.7480   31.1970 N.am  130  PRO130     -0.2727
    109  CA        58.0950   53.7580   32.2550 C.3   130  PRO130      0.1402
    110  C         58.1810   55.2320   31.8560 C.2   130  PRO130      0.2269
    111  O         57.4680   56.0480   32.4220 O.2   130  PRO130     -0.2865
    112  CB        59.2030   53.3570   33.2350 C.3   130  PRO130      0.0296
    113  CG        59.1360   51.8470   33.1640 C.3   130  PRO130      0.0237
    114  CD        58.9660   51.5630   31.6740 C.3   130  PRO130      0.0939
    115  N         54.6100   57.9690   30.3620 N.3   133  CYS133     -0.1235
    116  CA        53.3780   58.5310   30.9210 C.3   133  CYS133      0.1677
    117  C         53.1450   59.9650   30.4400 C.2   133  CYS133      0.2270
    118  O         54.0980   60.7630   30.2270 O.2   133  CYS133     -0.2867
    119  CB        53.3350   58.4940   32.4480 C.3   133  CYS133      0.0956
    120  SG        53.4030   56.7520   33.0090 S.3   133  CYS133     -0.0801
    121  N         48.5080   58.6090   29.2360 N.3   151  HIS151     -0.1226
    122  CA        48.9930   57.3180   29.6860 C.3   151  HIS151      0.1752
    123  C         49.4210   57.3820   31.1580 C.2   151  HIS151      0.2596
    124  O         50.1590   58.3060   31.5450 O.2   151  HIS151     -0.2718
    125  CB        50.1710   56.8730   28.8320 C.3   151  HIS151      0.0759
    126  CG        50.6510   55.4950   29.2170 C.ar  151  HIS151      0.0818
    127  ND1       49.8780   54.3970   29.0410 N.ar  151  HIS151     -0.2268
    128  CD2       51.8240   55.1000   29.7780 C.ar  151  HIS151      0.1154
    129  CE1       50.5440   53.3250   29.5010 C.ar  151  HIS151      0.1986
    130  NE2       51.7020   53.7220   29.9430 N.ar  151  HIS151     -0.2212
    131  N         48.9400   56.4320   31.9740 N.am  152  ALA152     -0.1966
    132  CA        49.2200   56.4720   33.4300 C.3   152  ALA152      0.1728
    133  C         49.8430   55.2130   34.0070 C.2   152  ALA152      0.2616
    134  O         50.5840   55.2940   34.9930 O.2   152  ALA152     -0.2715
    135  CB        47.9670   56.8000   34.2080 C.3   152  ALA152      0.0334
    136  N         49.5610   54.0560   33.4190 N.am  153  ALA153     -0.1963
    137  CA        49.9740   52.7950   34.0560 C.3   153  ALA153      0.1728
    138  C         49.9240   51.6270   33.0880 C.2   153  ALA153      0.2616
    139  O         49.2940   51.7070   32.0380 O.2   153  ALA153     -0.2715
    140  CB        49.0770   52.4900   35.2410 C.3   153  ALA153      0.0334
    141  N         50.5630   50.5230   33.4590 N.am  154  ALA154     -0.1963
    142  CA        50.4130   49.3220   32.6670 C.3   154  ALA154      0.1728
    143  C         50.8240   48.1480   33.5370 C.2   154  ALA154      0.2617
    144  O         51.5930   48.3090   34.4900 O.2   154  ALA154     -0.2715
    145  CB        51.2820   49.4060   31.3990 C.3   154  ALA154      0.0334
    146  N         50.2860   46.9840   33.2190 N.am  155  THR155     -0.1937
    147  CA        50.6710   45.7720   33.9190 C.3   155  THR155      0.2028
    148  C         52.0590   45.3730   33.4400 C.2   155  THR155      0.2642
    149  O         52.5810   45.9220   32.4730 O.2   155  THR155     -0.2714
    150  CB        49.6920   44.6410   33.6040 C.3   155  THR155      0.1808
    151  OG1       49.7200   44.4030   32.1950 O.3   155  THR155     -0.2208
    152  CG2       48.2790   45.0170   34.0380 C.3   155  THR155      0.0379
    153  N         52.6510   44.4040   34.1200 N.am  156  LYS156     -0.1977
    154  CA        54.0160   43.9820   33.8490 C.3   156  LYS156      0.1596
    155  C         54.2100   43.3980   32.4440 C.2   156  LYS156      0.2287
    156  O         55.1970   43.7140   31.7780 O.2   156  LYS156     -0.2864
    157  CB        54.5280   43.0510   34.9590 C.3   156  LYS156      0.0298
    158  CG        53.4840   42.1190   35.6180 C.3   156  LYS156      0.0038
    159  CD        52.0140   42.5530   35.5050 C.3   156  LYS156      0.0206
    160  CE        51.6370   43.6880   36.4490 C.3   156  LYS156      0.1093
    161  NZ        50.1870   43.6390   36.7780 N.3   156  LYS156     -0.1314
    162  N         52.6750   44.4460   30.1260 N.3   158  GLY158     -0.1225
    163  CA        52.4190   45.6020   29.2860 C.3   158  GLY158      0.1811
    164  C         51.1290   45.4180   28.4860 C.2   158  GLY158      0.2280
    165  O         50.7010   46.3120   27.7380 O.2   158  GLY158     -0.2866
    166  N         47.9630   45.1740   29.4070 N.3   160  THR160     -0.1218
    167  CA        46.8770   46.0550   29.8060 C.3   160  THR160      0.1862
    168  C         47.4760   47.3960   30.1470 C.2   160  THR160      0.2287
    169  O         48.4430   47.4620   30.8980 O.2   160  THR160     -0.2866
    170  CB        46.1710   45.5470   31.0730 C.3   160  THR160      0.1770
    171  OG1       45.6890   44.2180   30.8380 O.3   160  THR160     -0.2211
    172  CG2       45.0130   46.4720   31.4460 C.3   160  THR160      0.0375
    173  N         46.4490   51.6350   31.2460 N.3   162  VAL162     -0.1245
    174  CA        45.4130   52.5140   31.7730 C.3   162  VAL162      0.1561
    175  C         45.7300   53.9610   31.4230 C.2   162  VAL162      0.2260
    176  O         46.8730   54.4120   31.6060 O.2   162  VAL162     -0.2867
    177  CB        45.3380   52.4360   33.3060 C.3   162  VAL162      0.0252
    178  CG1       44.3170   53.4510   33.8080 C.3   162  VAL162      0.0019
    179  CG2       44.9840   51.0210   33.7570 C.3   162  VAL162      0.0019
@<TRIPOS>BOND
     1    93    94    1
     2    99    97    1
     3    94    97    1
     4    94    95    1
     5   107   105    1
     6   106   104    1
     7    97    98    1
     8    95    96    2
     9    95   100   am
    10   105   104    1
    11   165   164    2
    12   100   101    1
    13   104   101    1
    14   164   163    1
    15    90    89    2
    16   125   126    1
    17   125   122    1
    18   127   126   ar
    19   127   129   ar
    20   101   102    1
    21   126   128   ar
    22   121   122    1
    23   163   162    1
    24   166   167    1
    25    89    88    1
    26   129   130   ar
    27   122   123    1
    28   128   130   ar
    29   103   102    2
    30   167   168    1
    31   167   170    1
    32   102   108   am
    33   168   169    2
    34   118   117    2
    35   115   116    1
    36   117   116    1
    37   171   170    1
    38   116   119    1
    39    88    87    1
    40    88    91    1
    41   170   172    1
    42   123   124    2
    43   123   131   am
    44   108   114    1
    45   108   109    1
    46   173   174    1
    47   145   142    1
    48   175   176    2
    49   175   174    1
    50   114   113    1
    51    91    92    1
    52   174   177    1
    53   156   155    2
    54   110   109    1
    55   110   111    2
    56   131   132    1
    57   139   138    2
    58   151   150    1
    59   109   112    1
    60   155   154    1
    61   119   120    1
    62   149   148    2
    63   142   141    1
    64   142   143    1
    65     3     4    2
    66     3     2    1
    67   138   141   am
    68   138   137    1
    69   113   112    1
    70   146   143   am
    71   146   147    1
    72   177   179    1
    73   177   178    1
    74   136   133   am
    75   136   137    1
    76   132   133    1
    77   132   135    1
    78   148   147    1
    79   148   153   am
    80   143   144    2
    81   150   147    1
    82   150   152    1
    83    23    21    1
    84   154   153    1
    85   154   157    1
    86     2     1    1
    87     2     5    1
    88   133   134    2
    89   137   140    1
    90    22    21    1
    91    21    18    1
    92   157   158    1
    93     5     6    1
    94   159   158    1
    95   159   160    1
    96    20    19    2
    97    40    39    1
    98    27    26    2
    99    18    19    1
   100    18    17    1
   101    16    15   ar
   102    16    14   ar
   103    15    13   ar
   104   160   161    1
   105    17     9   am
   106    26    25    1
   107    39    38    1
   108    85    84    1
   109    14    12   ar
   110    13    12   ar
   111    59    57    1
   112    28    25    1
   113    28    29    1
   114     9    10    2
   115     9     8    1
   116    12    11    1
   117    25    24    1
   118     7     8    1
   119    31    30   ar
   120    38    37    1
   121    84    86    1
   122    84    81    1
   123     8    11    1
   124    82    83    2
   125    82    81    1
   126    29    30    1
   127    57    56    1
   128    58    56    1
   129    30    32   ar
   130    81    80    1
   131    37    34    1
   132    56    53    1
   133    67    66    2
   134    33    34    1
   135    34    35    1
   136    66    68   am
   137    66    65    1
   138    53    54    1
   139    53    52    1
   140    78    77    1
   141    35    36    2
   142    35    41   am
   143    54    55    2
   144    54    60   am
   145    52    43   am
   146    65    64    1
   147    77    76    2
   148    77    79    1
   149    75    76    1
   150    75    74    1
   151    41    42    1
   152    60    61    1
   153    43    44    2
   154    43    42    1
   155    72    71    2
   156    64    61    1
   157    73    74    1
   158    73    70    1
   159    42    45    1
   160    61    62    1
   161    71    70    1
   162    70    69    1
   163    62    63    2
   164    45    46    1
   165    46    47    1
   166    47    48    1
   167    48    49    2
   168    49    51    1
   169    49    50    1
