@<TRIPOS>MOLECULE
tmp/4iniA00.pdb
 143 137 0 0 0
SMALL
GASTEIGER

@<TRIPOS>ATOM
      1  N        -27.5110   10.5120  -30.3440 N.3     2  SER2       -0.1202
      2  CA       -27.1950   10.6600  -28.9170 C.3     2  SER2        0.2020
      3  C        -26.9270   12.1340  -28.5980 C.2     2  SER2        0.2618
      4  O        -26.8020   12.9580  -29.5000 O.2     2  SER2       -0.2717
      5  CB       -25.9750    9.8090  -28.5400 C.3     2  SER2        0.2103
      6  OG       -25.5370   10.0840  -27.2180 O.3     2  SER2       -0.2182
      7  N        -26.8480   12.4680  -27.3130 N.am    3  LEU3       -0.1979
      8  CA       -26.4840   13.8190  -26.8980 C.3     3  LEU3        0.1596
      9  C        -24.9640   13.9880  -26.9870 C.2     3  LEU3        0.2287
     10  O        -24.2250   13.0160  -26.8230 O.2     3  LEU3       -0.2864
     11  CB       -26.9440   14.0650  -25.4580 C.3     3  LEU3        0.0297
     12  CG       -28.3800   13.6660  -25.1250 C.3     3  LEU3        0.0022
     13  CD1      -28.6500   13.8350  -23.6340 C.3     3  LEU3        0.0001
     14  CD2      -29.3730   14.4750  -25.9490 C.3     3  LEU3        0.0001
     15  N        -21.4110   14.4970  -25.7510 N.3     5  ALA5       -0.1245
     16  CA       -20.8250   14.2920  -24.4290 C.3     5  ALA5        0.1562
     17  C        -20.0330   15.5150  -23.9840 C.2     5  ALA5        0.2260
     18  O        -19.2910   16.0970  -24.7790 O.2     5  ALA5       -0.2867
     19  CB       -19.9350   13.0500  -24.4290 C.3     5  ALA5        0.0290
     20  N        -14.9700   12.0770  -20.5980 N.3    17  PHE17      -0.1227
     21  CA       -16.3090   12.5800  -20.9300 C.3    17  PHE17       0.1736
     22  C        -17.4050   12.0120  -20.0240 C.2    17  PHE17       0.2595
     23  O        -17.2380   10.9460  -19.4230 O.2    17  PHE17      -0.2718
     24  CB       -16.6350   12.3670  -22.4250 C.3    17  PHE17       0.0547
     25  CG       -16.6580   10.9170  -22.8550 C.ar   17  PHE17      -0.0202
     26  CD1      -17.8570   10.2220  -22.9190 C.ar   17  PHE17      -0.0042
     27  CD2      -15.4870   10.2610  -23.1990 C.ar   17  PHE17      -0.0042
     28  CE1      -17.8900    8.8950  -23.3150 C.ar   17  PHE17      -0.0003
     29  CE2      -15.5080    8.9300  -23.5990 C.ar   17  PHE17      -0.0003
     30  CZ       -16.7100    8.2460  -23.6490 C.ar   17  PHE17      -0.0000
     31  N        -18.5160   12.7360  -19.8990 N.am   18  ARG18      -0.1966
     32  CA       -19.5990   12.2950  -19.0220 C.3    18  ARG18       0.1729
     33  C        -20.3880   11.1360  -19.6190 C.2    18  ARG18       0.2616
     34  O        -20.6870   11.1240  -20.8160 O.2    18  ARG18      -0.2715
     35  CB       -20.5710   13.4400  -18.7100 C.3    18  ARG18       0.0348
     36  CG       -19.9850   14.5730  -17.9020 C.3    18  ARG18       0.0492
     37  CD       -21.0920   15.4410  -17.3160 C.3    18  ARG18       0.2205
     38  NE       -20.5510   16.6860  -16.7860 N.pl3  18  ARG18      -0.0865
     39  CZ       -19.8800   16.7820  -15.6440 C.cat  18  ARG18       0.5346
     40  NH1      -19.6620   15.7030  -14.9010 N.pl3  18  ARG18       0.1354
     41  NH2      -19.4190   17.9580  -15.2460 N.pl3  18  ARG18       0.1354
     42  N        -20.7330   10.1730  -18.7710 N.am   19  ASP19      -0.1957
     43  CA       -21.5470    9.0410  -19.1690 C.3    19  ASP19       0.1840
     44  C        -22.9700    9.5220  -19.4420 C.2    19  ASP19       0.2622
     45  O        -23.5280   10.2990  -18.6580 O.2    19  ASP19      -0.2715
     46  CB       -21.5340    7.9770  -18.0660 C.3    19  ASP19       0.1450
     47  CG       -21.9110    6.6020  -18.5750 C.2    19  ASP19       0.3671
     48  OD1      -23.0050    6.4520  -19.1500 O.co2  19  ASP19      -0.2456
     49  OD2      -21.1040    5.6620  -18.4180 O.co2  19  ASP19      -0.2456
     50  N        -23.5400    9.0780  -20.5620 N.am   20  VAL20      -0.1963
     51  CA       -24.9090    9.4400  -20.9420 C.3    20  VAL20       0.1727
     52  C        -25.9450    8.7130  -20.0740 C.2    20  VAL20       0.2616
     53  O        -27.1150    9.1050  -20.0160 O.2    20  VAL20      -0.2715
     54  CB       -25.1600    9.1470  -22.4400 C.3    20  VAL20       0.0290
     55  CG1      -25.3780    7.6620  -22.6600 C.3    20  VAL20       0.0023
     56  CG2      -26.3460    9.9450  -22.9590 C.3    20  VAL20       0.0023
     57  N        -25.5070    7.6600  -19.3850 N.am   21  ALA21      -0.1977
     58  CA       -26.3720    6.9050  -18.4850 C.3    21  ALA21       0.1597
     59  C        -25.7270    6.8790  -17.1090 C.2    21  ALA21       0.2287
     60  O        -25.2640    5.8310  -16.6560 O.2    21  ALA21      -0.2864
     61  CB       -26.5800    5.4900  -19.0000 C.3    21  ALA21       0.0319
     62  N        -24.6350    6.5810  -13.3730 N.3    23  GLN23      -0.1245
     63  CA       -25.0210    5.7160  -12.2630 C.3    23  GLN23       0.1566
     64  C        -24.8130    6.4070  -10.9150 C.2    23  GLN23       0.2260
     65  O        -24.9760    5.7920   -9.8610 O.2    23  GLN23      -0.2867
     66  CB       -24.2140    4.4140  -12.3160 C.3    23  GLN23       0.0367
     67  CG       -24.3270    3.6850  -13.6490 C.3    23  GLN23       0.0905
     68  CD       -25.7370    3.2130  -13.9080 C.2    23  GLN23       0.2608
     69  OE1      -26.2960    2.4500  -13.1200 O.2    23  GLN23      -0.2717
     70  NE2      -26.3370    3.6840  -15.0050 N.am   23  GLN23      -0.0878
     71  N        -20.6250   10.9980  -12.8740 N.3    27  HIS27      -0.1241
     72  CA       -20.1830    9.7530  -13.4920 C.3    27  HIS27       0.1621
     73  C        -19.5080   10.0950  -14.8010 C.2    27  HIS27       0.2264
     74  O        -20.1590   10.5110  -15.7650 O.2    27  HIS27      -0.2867
     75  CB       -21.3650    8.7990  -13.7000 C.3    27  HIS27       0.0745
     76  CG       -20.9940    7.4640  -14.2770 C.ar   27  HIS27       0.0817
     77  ND1      -21.9270    6.4680  -14.4910 N.ar   27  HIS27      -0.2268
     78  CD2      -19.8070    6.9550  -14.6950 C.ar   27  HIS27       0.1154
     79  CE1      -21.3380    5.4110  -15.0180 C.ar   27  HIS27       0.1986
     80  NE2      -20.0470    5.6820  -15.1540 N.ar   27  HIS27      -0.2212
     81  N        -16.0620    9.1480  -17.6870 N.3    29  LEU29      -0.1245
     82  CA       -15.3670    8.0340  -18.3110 C.3    29  LEU29       0.1561
     83  C        -14.0130    8.5160  -18.8140 C.2    29  LEU29       0.2260
     84  O        -13.9320    9.5280  -19.5260 O.2    29  LEU29      -0.2867
     85  CB       -16.1870    7.5160  -19.5000 C.3    29  LEU29       0.0270
     86  CG       -17.6250    7.1130  -19.1680 C.3    29  LEU29       0.0019
     87  CD1      -18.5020    7.1010  -20.4150 C.3    29  LEU29       0.0001
     88  CD2      -17.6590    5.7500  -18.4770 C.3    29  LEU29       0.0001
     89  N        -14.5010   -2.4420  -16.3410 N.3    75  ASN75      -0.1240
     90  CA       -15.2100   -3.6720  -16.6660 C.3    75  ASN75       0.1653
     91  C        -14.5070   -4.4180  -17.7790 C.2    75  ASN75       0.2266
     92  O        -14.1560   -3.8300  -18.8010 O.2    75  ASN75      -0.2867
     93  CB       -16.6420   -3.3740  -17.1190 C.3    75  ASN75       0.1155
     94  CG       -17.4660   -2.6790  -16.0540 C.2    75  ASN75       0.2627
     95  OD1      -17.3290   -2.9530  -14.8550 O.2    75  ASN75      -0.2716
     96  ND2      -18.3400   -1.7710  -16.4920 N.am   75  ASN75      -0.0877
     97  N        -19.6780   -7.0060  -17.3110 N.3    81  ALA81      -0.1231
     98  CA       -20.6780   -6.0800  -17.8500 C.3    81  ALA81       0.1694
     99  C        -20.0570   -4.9820  -18.7090 C.2    81  ALA81       0.2592
    100  O        -20.5610   -3.8570  -18.7690 O.2    81  ALA81      -0.2718
    101  CB       -21.5690   -5.4820  -16.7350 C.3    81  ALA81       0.0304
    102  N        -18.9650   -5.3150  -19.3900 N.am   82  GLN82      -0.1966
    103  CA       -18.4090   -4.3930  -20.3720 C.3    82  GLN82       0.1733
    104  C        -19.3660   -4.3060  -21.5570 C.2    82  GLN82       0.2617
    105  O        -19.8640   -5.3280  -22.0340 O.2    82  GLN82      -0.2715
    106  CB       -17.0340   -4.8660  -20.8490 C.3    82  GLN82       0.0408
    107  CG       -16.3380   -3.8460  -21.7460 C.3    82  GLN82       0.0908
    108  CD       -14.9400   -4.2620  -22.1820 C.2    82  GLN82       0.2608
    109  OE1      -14.4540   -5.3490  -21.8510 O.2    82  GLN82      -0.2717
    110  NE2      -14.2790   -3.3800  -22.9200 N.am   82  GLN82      -0.0878
    111  N        -19.6300   -3.0930  -22.0330 N.am   83  SER83      -0.1936
    112  CA       -20.5790   -2.9060  -23.1290 C.3    83  SER83       0.2055
    113  C        -19.9270   -2.3070  -24.3720 C.2    83  SER83       0.2642
    114  O        -20.3910   -2.5380  -25.4860 O.2    83  SER83      -0.2714
    115  CB       -21.7790   -2.0600  -22.6720 C.3    83  SER83       0.2130
    116  OG       -21.4030   -0.7380  -22.3370 O.3    83  SER83      -0.2179
    117  N        -18.8460   -1.5480  -24.1870 N.am   84  VAL84      -0.1977
    118  CA       -18.1370   -0.9440  -25.3150 C.3    84  VAL84       0.1596
    119  C        -16.7180   -1.4850  -25.3180 C.2    84  VAL84       0.2287
    120  O        -16.0150   -1.3600  -24.3140 O.2    84  VAL84      -0.2864
    121  CB       -18.0930    0.5950  -25.1980 C.3    84  VAL84       0.0276
    122  CG1      -17.2940    1.1960  -26.3550 C.3    84  VAL84       0.0022
    123  CG2      -19.5050    1.1560  -25.1810 C.3    84  VAL84       0.0022
    124  N        -12.5360    1.7530  -20.9040 N.3    88  HIS88      -0.1241
    125  CA       -13.1440    2.9010  -20.2220 C.3    88  HIS88       0.1621
    126  C        -12.8930    2.7560  -18.7280 C.2    88  HIS88       0.2264
    127  O        -13.2160    1.7160  -18.1410 O.2    88  HIS88      -0.2867
    128  CB       -14.6760    2.9400  -20.3880 C.3    88  HIS88       0.0745
    129  CG       -15.1680    3.3950  -21.7340 C.ar   88  HIS88       0.0817
    130  ND1      -14.8330    2.7600  -22.9060 N.ar   88  HIS88      -0.2268
    131  CD2      -16.0180    4.3930  -22.0750 C.ar   88  HIS88       0.1154
    132  CE1      -15.4340    3.3620  -23.9200 C.ar   88  HIS88       0.1986
    133  NE2      -16.1630    4.3530  -23.4430 N.ar   88  HIS88      -0.2212
    134  N        -14.3690    4.0980  -15.3710 N.3    90  HIS90      -0.1241
    135  CA       -15.4860    4.8370  -14.7720 C.3    90  HIS90       0.1621
    136  C        -15.0430    5.5580  -13.5130 C.2    90  HIS90       0.2264
    137  O        -14.3300    5.0010  -12.6890 O.2    90  HIS90      -0.2867
    138  CB       -16.6300    3.8910  -14.3780 C.3    90  HIS90       0.0745
    139  CG       -17.2170    3.1440  -15.5310 C.ar   90  HIS90       0.0817
    140  ND1      -18.3940    3.5250  -16.1460 N.ar   90  HIS90      -0.2268
    141  CD2      -16.7860    2.0460  -16.1960 C.ar   90  HIS90       0.1154
    142  CE1      -18.6640    2.6920  -17.1330 C.ar   90  HIS90       0.1986
    143  NE2      -17.7010    1.7830  -17.1860 N.ar   90  HIS90      -0.2212
@<TRIPOS>BOND
     1     1     2    1
     2     4     3    2
     3     2     3    1
     4     2     5    1
     5     3     7   am
     6     5     6    1
     7     7     8    1
     8     9     8    1
     9     9    10    2
    10     8    11    1
    11   122   121    1
    12    14    12    1
    13    15    16    1
    14   114   113    2
    15    11    12    1
    16   119   118    1
    17   119   120    2
    18   118   121    1
    19   118   117    1
    20   121   123    1
    21    12    13    1
    22    18    17    2
    23    19    16    1
    24    16    17    1
    25   113   117   am
    26   113   112    1
    27   132   133   ar
    28   132   130   ar
    29    30    29   ar
    30    30    28   ar
    31    29    27   ar
    32   133   131   ar
    33    28    26   ar
    34    27    25   ar
    35   112   115    1
    36   112   111    1
    37    56    54    1
    38   110   108   am
    39    26    25   ar
    40   130   129   ar
    41    25    24    1
    42   115   116    1
    43    55    54    1
    44    54    51    1
    45    24    21    1
    46   108   109    2
    47   108   107    1
    48   131   129   ar
    49   105   104    2
    50   111   104   am
    51   107   106    1
    52   129   128    1
    53   104   103    1
    54    51    50    1
    55    51    52    1
    56    21    20    1
    57    21    22    1
    58   124   125    1
    59   106   103    1
    60    34    33    2
    61    50    44   am
    62    87    86    1
    63   128   125    1
    64   103   102    1
    65   125   126    1
    66    52    53    2
    67    52    57   am
    68    22    31   am
    69    22    23    2
    70    31    32    1
    71    33    32    1
    72    33    42   am
    73    84    83    2
    74    85    86    1
    75    85    82    1
    76    44    43    1
    77    44    45    2
    78   102    99   am
    79    57    58    1
    80    43    42    1
    81    43    46    1
    82    86    88    1
    83    48    47   ar
    84    32    35    1
    85    61    58    1
    86    83    82    1
    87    92    91    2
    88   100    99    2
    89   126   127    2
    90    35    36    1
    91    99    98    1
    92    47    49   ar
    93    47    46    1
    94    58    59    1
    95    82    81    1
    96    36    37    1
    97    98    97    1
    98    98   101    1
    99    91    90    1
   100    37    38    1
   101   143   142   ar
   102   143   141   ar
   103   142   140   ar
   104    93    90    1
   105    93    94    1
   106    59    60    2
   107    38    39    2
   108    90    89    1
   109    96    94   am
   110   141   139   ar
   111   140   139   ar
   112    94    95    2
   113    74    73    2
   114    39    41    1
   115    39    40    1
   116   139   138    1
   117   134   135    1
   118    80    79   ar
   119    80    78   ar
   120    79    77   ar
   121    70    68   am
   122    73    72    1
   123   135   138    1
   124   135   136    1
   125    78    76   ar
   126    77    76   ar
   127    76    75    1
   128    68    67    1
   129    68    69    2
   130    75    72    1
   131    67    66    1
   132   136   137    2
   133    72    71    1
   134    62    63    1
   135    66    63    1
   136    63    64    1
   137    64    65    2
