@<TRIPOS>MOLECULE
tmp/4injA00.pdb
 163 157 0 0 0
SMALL
GASTEIGER

@<TRIPOS>ATOM
      1  N        -47.2980   -7.5990    5.0350 N.3    21  ARG21      -0.1245
      2  CA       -47.9210   -6.4870    5.7480 C.3    21  ARG21       0.1563
      3  C        -48.5720   -6.9510    7.0650 C.2    21  ARG21       0.2260
      4  O        -48.8860   -8.1350    7.2490 O.2    21  ARG21      -0.2867
      5  CB       -48.9440   -5.7900    4.8590 C.3    21  ARG21       0.0307
      6  CG       -48.3210   -4.7930    3.9090 C.3    21  ARG21       0.0489
      7  CD       -49.3210   -4.0870    3.0330 C.3    21  ARG21       0.2205
      8  NE       -50.0890   -5.0220    2.2040 N.pl3  21  ARG21      -0.0865
      9  CZ       -51.1330   -4.6920    1.4410 C.cat  21  ARG21       0.5346
     10  NH1      -51.5820   -3.4520    1.4400 N.pl3  21  ARG21       0.1354
     11  NH2      -51.7440   -5.6180    0.7140 N.pl3  21  ARG21       0.1354
     12  N        -53.5770   -3.8390    9.2180 N.3    25  ILE25      -0.1231
     13  CA       -54.3020   -3.2190    8.1290 C.3    25  ILE25       0.1692
     14  C        -55.6590   -3.8920    8.0330 C.2    25  ILE25       0.2591
     15  O        -56.4940   -3.3920    7.3030 O.2    25  ILE25      -0.2718
     16  CB       -53.5650   -3.2690    6.7620 C.3    25  ILE25       0.0266
     17  CG1      -53.3910   -4.7110    6.2980 C.3    25  ILE25       0.0019
     18  CG2      -52.2200   -2.5560    6.8470 C.3    25  ILE25       0.0020
     19  CD1      -53.1300   -4.8570    4.8230 C.3    25  ILE25       0.0001
     20  N        -55.8570   -5.0360    8.7090 N.am   26  MET26      -0.1979
     21  CA       -57.1780   -5.6890    8.7440 C.3    26  MET26       0.1605
     22  C        -57.9530   -5.0740    9.9010 C.2    26  MET26       0.2287
     23  O        -57.3920   -4.8910   10.9410 O.2    26  MET26      -0.2864
     24  CB       -57.0940   -7.1910    8.9700 C.3    26  MET26       0.0413
     25  CG       -56.3920   -8.0320    7.9170 C.3    26  MET26       0.0598
     26  SD       -56.4940   -9.7560    8.4700 S.3    26  MET26      -0.1393
     27  CE       -58.1850  -10.2450    8.1250 C.3    26  MET26       0.0692
     28  N        -62.7700   -7.8290   10.5270 N.3    30  GLN30      -0.1245
     29  CA       -62.3160   -8.8260    9.5240 C.3    30  GLN30       0.1566
     30  C        -61.6020   -9.9910   10.2060 C.2    30  GLN30       0.2260
     31  O        -61.8350  -11.1810    9.9220 O.2    30  GLN30      -0.2867
     32  CB       -61.3380   -8.2270    8.5430 C.3    30  GLN30       0.0367
     33  CG       -61.8680   -7.3180    7.4540 C.3    30  GLN30       0.0905
     34  CD       -60.7180   -6.8690    6.5430 C.2    30  GLN30       0.2608
     35  OE1      -60.2580   -5.7210    6.6090 O.2    30  GLN30      -0.2717
     36  NE2      -60.2180   -7.7940    5.7190 N.am   30  GLN30      -0.0878
     37  N        -51.6340  -11.6350    4.9740 N.3    85  ILE85      -0.1231
     38  CA       -51.8910  -10.9010    3.7780 C.3    85  ILE85       0.1692
     39  C        -50.5400  -10.7150    3.0450 C.2    85  ILE85       0.2593
     40  O        -49.4760  -10.9250    3.6300 O.2    85  ILE85      -0.2718
     41  CB       -52.5090   -9.5250    4.1330 C.3    85  ILE85       0.0266
     42  CG1      -53.1480   -8.8430    2.9280 C.3    85  ILE85       0.0019
     43  CG2      -51.5030   -8.5690    4.7170 C.3    85  ILE85       0.0020
     44  CD1      -54.3900   -9.5690    2.4500 C.3    85  ILE85       0.0001
     45  N        -50.6030  -10.3340    1.7730 N.am   86  GLY86      -0.1942
     46  CA       -49.4310   -9.9780    0.9840 C.3    86  GLY86       0.2014
     47  C        -48.9380   -8.6130    1.2900 C.2    86  GLY86       0.2639
     48  O        -49.0840   -8.1420    2.3770 O.2    86  GLY86      -0.2714
     49  N        -48.3630   -7.9450    0.3120 N.am   87  GLY87      -0.1954
     50  CA       -47.5780   -6.7530    0.5800 C.3    87  GLY87       0.1869
     51  C        -46.3970   -6.6810   -0.3970 C.2    87  GLY87       0.2309
     52  O        -46.5740   -6.7210   -1.5810 O.2    87  GLY87      -0.2863
     53  N        -50.3710  -16.0750   -0.7790 N.3   112  PHE112     -0.1227
     54  CA       -50.1000  -15.8280   -2.1970 C.3   112  PHE112      0.1736
     55  C        -49.5830  -14.4340   -2.4100 C.2   112  PHE112      0.2595
     56  O        -49.3810  -13.6840   -1.4570 O.2   112  PHE112     -0.2718
     57  CB       -51.3250  -16.2100   -3.1330 C.3   112  PHE112      0.0547
     58  CG       -52.4250  -15.2090   -3.1460 C.ar  112  PHE112     -0.0202
     59  CD1      -53.3520  -15.1740   -2.1370 C.ar  112  PHE112     -0.0042
     60  CD2      -52.5520  -14.2960   -4.1850 C.ar  112  PHE112     -0.0042
     61  CE1      -54.3690  -14.2220   -2.1410 C.ar  112  PHE112     -0.0003
     62  CE2      -53.5530  -13.3330   -4.2050 C.ar  112  PHE112     -0.0003
     63  CZ       -54.4740  -13.3130   -3.1900 C.ar  112  PHE112     -0.0000
     64  N        -49.3680  -14.1030   -3.6790 N.am  113  ALA113     -0.1980
     65  CA       -48.8720  -12.7830   -4.0690 C.3   113  ALA113      0.1597
     66  C        -47.4710  -12.5850   -3.4990 C.2   113  ALA113      0.2287
     67  O        -46.5890  -13.3230   -3.8330 O.2   113  ALA113     -0.2864
     68  CB       -49.8350  -11.6850   -3.6440 C.3   113  ALA113      0.0319
     69  N        -54.6190  -16.6600    1.9050 N.3   135  HIS135     -0.1241
     70  CA       -54.2360  -15.9890    3.1390 C.3   135  HIS135      0.1621
     71  C        -55.2310  -16.2600    4.2790 C.2   135  HIS135      0.2264
     72  O        -56.2850  -16.7460    4.0580 O.2   135  HIS135     -0.2867
     73  CB       -54.2780  -14.4680    2.9300 C.3   135  HIS135      0.0745
     74  CG       -53.2060  -13.9450    2.0270 C.ar  135  HIS135      0.0817
     75  ND1      -51.8630  -14.2230    2.2140 N.ar  135  HIS135     -0.2268
     76  CD2      -53.2760  -13.1190    0.9560 C.ar  135  HIS135      0.1154
     77  CE1      -51.1620  -13.6140    1.2780 C.ar  135  HIS135      0.1986
     78  NE2      -51.9930  -12.9410    0.4980 N.ar  135  HIS135     -0.2212
     79  N        -56.5600  -13.7770    5.8430 N.3   137  SER137     -0.1217
     80  CA       -57.5230  -12.7320    5.4600 C.3   137  SER137      0.1889
     81  C        -58.4740  -13.1320    4.3200 C.2   137  SER137      0.2288
     82  O        -59.5380  -12.5370    4.1740 O.2   137  SER137     -0.2866
     83  CB       -56.7720  -11.4650    5.0660 C.3   137  SER137      0.2089
     84  OG       -56.0110  -11.7070    3.8800 O.3   137  SER137     -0.2183
     85  N        -63.7910   -7.5690   -6.8270 N.3   173  ASP173     -0.1225
     86  CA       -64.3760   -6.5230   -5.9580 C.3   173  ASP173      0.1805
     87  C        -63.4840   -6.2580   -4.7740 C.2   173  ASP173      0.2598
     88  O        -62.7350   -7.1490   -4.3450 O.2   173  ASP173     -0.2718
     89  CB       -65.8040   -6.8880   -5.4910 C.3   173  ASP173      0.1424
     90  CG       -66.6400   -7.5370   -6.5840 C.2   173  ASP173      0.3668
     91  OD1      -66.6560   -7.0430   -7.7450 O.co2 173  ASP173     -0.2456
     92  OD2      -67.2650   -8.5790   -6.3000 O.co2 173  ASP173     -0.2456
     93  N        -63.5290   -5.0260   -4.2780 N.am  174  GLU174     -0.1965
     94  CA       -62.8740   -4.6640   -3.0360 C.3   174  GLU174      0.1733
     95  C        -63.8320   -5.0660   -1.9210 C.2   174  GLU174      0.2616
     96  O        -64.4370   -4.2280   -1.2420 O.2   174  GLU174     -0.2715
     97  CB       -62.5580   -3.1780   -2.9850 C.3   174  GLU174      0.0429
     98  CG       -61.3710   -2.7950   -3.8400 C.3   174  GLU174      0.1163
     99  CD       -61.2540   -1.3030   -4.0040 C.2   174  GLU174      0.3649
    100  OE1      -62.2680   -0.5940   -3.8030 O.co2 174  GLU174     -0.2457
    101  OE2      -60.1490   -0.8340   -4.3360 O.co2 174  GLU174     -0.2457
    102  N        -63.9790   -6.3720   -1.7620 N.am  175  TRP175     -0.1960
    103  CA       -64.9350   -6.9220   -0.8330 C.3   175  TRP175      0.1771
    104  C        -64.6570   -6.6700    0.6690 C.2   175  TRP175      0.2619
    105  O        -65.5820   -6.7400    1.4750 O.2   175  TRP175     -0.2715
    106  CB       -65.0560   -8.4000   -1.0880 C.3   175  TRP175      0.0590
    107  CG       -63.7600   -9.1680   -0.9740 C.ar  175  TRP175      0.0006
    108  CD1      -62.9610   -9.5700   -1.9930 C.ar  175  TRP175      0.0946
    109  CD2      -63.1430   -9.6430    0.2220 C.ar  175  TRP175      0.0152
    110  NE1      -61.8940  -10.2670   -1.5170 N.ar  175  TRP175     -0.2442
    111  CE2      -61.9740  -10.3260   -0.1560 C.ar  175  TRP175      0.0810
    112  CE3      -63.4750   -9.5750    1.5810 C.ar  175  TRP175      0.0012
    113  CZ2      -61.1260  -10.9320    0.7730 C.ar  175  TRP175      0.0191
    114  CZ3      -62.6280  -10.1840    2.5070 C.ar  175  TRP175      0.0001
    115  CH2      -61.4660  -10.8430    2.0970 C.ar  175  TRP175      0.0015
    116  N        -63.4070   -6.4240    1.0530 N.am  176  TYR176     -0.1974
    117  CA       -63.1070   -6.1630    2.4470 C.3   176  TYR176      0.1639
    118  C        -63.7100   -4.8340    2.8650 C.2   176  TYR176      0.2290
    119  O        -63.9500   -4.6150    4.0550 O.2   176  TYR176     -0.2864
    120  CB       -61.5620   -6.1850    2.7570 C.3   176  TYR176      0.0560
    121  CG       -60.7240   -5.1640    2.0380 C.ar  176  TYR176     -0.0198
    122  CD1      -60.3580   -5.3510    0.6820 C.ar  176  TYR176     -0.0009
    123  CD2      -60.2840   -4.0260    2.6980 C.ar  176  TYR176     -0.0009
    124  CE1      -59.6190   -4.3950    0.0070 C.ar  176  TYR176      0.0417
    125  CE2      -59.5150   -3.0800    2.0410 C.ar  176  TYR176      0.0417
    126  CZ       -59.1980   -3.2580    0.7030 C.ar  176  TYR176      0.1957
    127  OH       -58.4310   -2.2880    0.0810 O.3   176  TYR176     -0.2866
    128  N        -51.2130   -8.7260  -10.3750 N.3   232  ASP232     -0.1239
    129  CA       -52.3470   -7.9290   -9.8980 C.3   232  ASP232      0.1674
    130  C        -52.6060   -6.7050  -10.7580 C.2   232  ASP232      0.2266
    131  O        -52.0320   -6.5890  -11.7960 O.2   232  ASP232     -0.2867
    132  CB       -52.1640   -7.5630   -8.4100 C.3   232  ASP232      0.1410
    133  CG       -51.1650   -6.4990   -8.1660 C.2   232  ASP232      0.3668
    134  OD1      -50.5640   -5.9200   -9.0820 O.co2 232  ASP232     -0.2456
    135  OD2      -50.9260   -6.2440   -6.9820 O.co2 232  ASP232     -0.2456
    136  N        -56.9420   -8.9250  -13.1470 N.3   265  GLN265     -0.1245
    137  CA       -57.8730   -7.9820  -12.6490 C.3   265  GLN265      0.1566
    138  C        -58.3060   -7.0990  -13.8080 C.2   265  GLN265      0.2260
    139  O        -57.6410   -7.0700  -14.8530 O.2   265  GLN265     -0.2867
    140  CB       -57.2330   -7.1890  -11.4910 C.3   265  GLN265      0.0367
    141  CG       -57.0120   -8.0500  -10.2400 C.3   265  GLN265      0.0905
    142  CD       -56.7320   -7.2350   -9.0180 C.2   265  GLN265      0.2608
    143  OE1      -55.5670   -7.0060   -8.6130 O.2   265  GLN265     -0.2717
    144  NE2      -57.7910   -6.7530   -8.4300 N.am  265  GLN265     -0.0878
    145  N        -55.3790  -12.4680   -8.2900 N.3   298  HIS298     -0.1241
    146  CA       -56.0280  -11.4820   -7.4740 C.3   298  HIS298      0.1621
    147  C        -57.5530  -11.2720   -7.7350 C.2   298  HIS298      0.2264
    148  O        -58.1270  -10.3050   -7.2580 O.2   298  HIS298     -0.2867
    149  CB       -55.2970  -10.1900   -7.5860 C.3   298  HIS298      0.0745
    150  CG       -54.0150  -10.1810   -6.8380 C.ar  298  HIS298      0.0817
    151  ND1      -52.8530  -10.7150   -7.3530 N.ar  298  HIS298     -0.2268
    152  CD2      -53.7000   -9.6820   -5.6190 C.ar  298  HIS298      0.1154
    153  CE1      -51.8880  -10.5700   -6.4700 C.ar  298  HIS298      0.1986
    154  NE2      -52.3740   -9.9310   -5.4200 N.ar  298  HIS298     -0.2212
    155  N        -61.5160  -12.9440   -7.3390 N.3   300  GLN300     -0.1245
    156  CA       -62.2200  -13.9840   -6.5770 C.3   300  GLN300      0.1566
    157  C        -62.9110  -14.9130   -7.5060 C.2   300  GLN300      0.2260
    158  O        -63.4780  -14.4670   -8.4780 O.2   300  GLN300     -0.2867
    159  CB       -63.2320  -13.3490   -5.6670 C.3   300  GLN300      0.0367
    160  CG       -62.6270  -12.2890   -4.7730 C.3   300  GLN300      0.0905
    161  CD       -62.5750  -10.9290   -5.4100 C.2   300  GLN300      0.2608
    162  OE1      -63.4660  -10.5430   -6.1560 O.2   300  GLN300     -0.2717
    163  NE2      -61.5670  -10.1720   -5.0690 N.am  300  GLN300     -0.0878
@<TRIPOS>BOND
     1   139   138    2
     2   138   137    1
     3   136   137    1
     4   137   140    1
     5   131   130    2
     6   140   141    1
     7   130   129    1
     8   128   129    1
     9   141   142    1
    10   129   132    1
    11   134   133   ar
    12   142   143    2
    13   142   144   am
    14   158   157    2
    15   132   133    1
    16   145   146    1
    17   133   135   ar
    18    91    90   ar
    19   147   146    1
    20   147   148    2
    21   149   146    1
    22   149   150    1
    23   157   156    1
    24   151   150   ar
    25   151   153   ar
    26   155   156    1
    27   150   152   ar
    28    85    86    1
    29    90    92   ar
    30    90    89    1
    31   156   159    1
    32   153   154   ar
    33   162   161    2
    34    86    89    1
    35    86    87    1
    36   159   160    1
    37   152   154   ar
    38   161   163   am
    39   161   160    1
    40    87    88    2
    41    87    93   am
    42   101    99   ar
    43    93    94    1
    44    62    60   ar
    45    62    63   ar
    46    60    58   ar
    47    65    64    1
    48    65    68    1
    49    65    66    1
    50    99    98    1
    51    99   100   ar
    52    98    97    1
    53    67    66    2
    54    64    55   am
    55    63    61   ar
    56    58    57    1
    57    58    59   ar
    58    57    54    1
    59    94    97    1
    60    94    95    1
    61    55    54    1
    62    55    56    2
    63    54    53    1
    64    61    59   ar
    65   108   110   ar
    66   108   107   ar
    67    95   102   am
    68    95    96    2
    69   102   103    1
    70    52    51    2
    71   110   111   ar
    72   106   107    1
    73   106   103    1
    74   107   109   ar
    75   103   104    1
    76    51    50    1
    77   111   109   ar
    78   111   113   ar
    79   124   122   ar
    80   124   126   ar
    81   127   126    1
    82   109   112   ar
    83    49    50    1
    84    49    47   am
    85    78    76   ar
    86    78    77   ar
    87   104   116   am
    88   104   105    2
    89   122   121   ar
    90   126   125   ar
    91    11     9    1
    92   113   115   ar
    93    76    74   ar
    94    46    47    1
    95    46    45    1
    96   116   117    1
    97    77    75   ar
    98    47    48    2
    99    10     9    1
   100     9     8    2
   101   112   114   ar
   102    45    39   am
   103    69    70    1
   104    74    75   ar
   105    74    73    1
   106   121   123   ar
   107   121   120    1
   108   125   123   ar
   109   115   114   ar
   110     8     7    1
   111   117   120    1
   112   117   118    1
   113    44    42    1
   114   118   119    2
   115    42    41    1
   116    73    70    1
   117     7     6    1
   118    39    40    2
   119    39    38    1
   120    70    71    1
   121    38    41    1
   122    38    37    1
   123    84    83    1
   124     6     5    1
   125    72    71    2
   126    41    43    1
   127    82    81    2
   128    81    80    1
   129    19    17    1
   130     5     2    1
   131     1     2    1
   132    83    80    1
   133    80    79    1
   134    36    34   am
   135     2     3    1
   136    17    16    1
   137    34    35    2
   138    34    33    1
   139    16    18    1
   140    16    13    1
   141     3     4    2
   142    15    14    2
   143    33    32    1
   144    25    26    1
   145    25    24    1
   146    14    13    1
   147    14    20   am
   148    27    26    1
   149    13    12    1
   150    32    29    1
   151    20    21    1
   152    21    24    1
   153    21    22    1
   154    29    30    1
   155    29    28    1
   156    22    23    2
   157    31    30    2
