@<TRIPOS>MOLECULE
tmp/4innB00.pdb
 152 151 0 0 0
SMALL
GASTEIGER

@<TRIPOS>ATOM
      1  N         30.3480   -8.3580  156.7870 N.3    14  PHE14      -0.1241
      2  CA        30.6300   -7.9340  155.4290 C.3    14  PHE14       0.1605
      3  C         31.5940   -6.7580  155.4470 C.2    14  PHE14       0.2264
      4  O         31.2920   -5.6980  156.0370 O.2    14  PHE14      -0.2867
      5  CB        29.3320   -7.4950  154.7630 C.3    14  PHE14       0.0534
      6  CG        29.4860   -7.1180  153.3280 C.ar   14  PHE14      -0.0203
      7  CD1       30.1420   -7.9680  152.4330 C.ar   14  PHE14      -0.0042
      8  CD2       28.9380   -5.9530  152.8520 C.ar   14  PHE14      -0.0042
      9  CE1       30.2640   -7.6350  151.0960 C.ar   14  PHE14      -0.0003
     10  CE2       29.0350   -5.6190  151.5030 C.ar   14  PHE14      -0.0003
     11  CZ        29.6980   -6.4600  150.6290 C.ar   14  PHE14      -0.0000
     12  N         17.5950    1.6340  163.0040 N.3    64  PHE64      -0.1241
     13  CA        18.2630    1.7510  161.7290 C.3    64  PHE64       0.1605
     14  C         17.4280    1.2410  160.5810 C.2    64  PHE64       0.2264
     15  O         17.7780    1.4880  159.4490 O.2    64  PHE64      -0.2867
     16  CB        19.6210    1.0220  161.7330 C.3    64  PHE64       0.0534
     17  CG        19.5180   -0.4650  161.8120 C.ar   64  PHE64      -0.0203
     18  CD1       19.5180   -1.2220  160.6700 C.ar   64  PHE64      -0.0042
     19  CD2       19.4470   -1.0960  163.0350 C.ar   64  PHE64      -0.0042
     20  CE1       19.4520   -2.5930  160.7460 C.ar   64  PHE64      -0.0003
     21  CE2       19.3760   -2.4630  163.1250 C.ar   64  PHE64      -0.0003
     22  CZ        19.3680   -3.2170  161.9750 C.ar   64  PHE64      -0.0000
     23  N         16.9730    0.9500  155.3690 N.3    81  ALA81      -0.1231
     24  CA        17.9360    0.7000  156.4280 C.3    81  ALA81       0.1694
     25  C         19.0690    1.6970  156.3820 C.2    81  ALA81       0.2592
     26  O         19.8530    1.7070  155.4200 O.2    81  ALA81      -0.2718
     27  CB        18.4920   -0.6970  156.2730 C.3    81  ALA81       0.0304
     28  N         19.1950    2.5350  157.4040 N.am   82  TYR82      -0.1962
     29  CA        20.3280    3.4620  157.4760 C.3    82  TYR82       0.1771
     30  C         21.5530    2.6290  157.8830 C.2    82  TYR82       0.2619
     31  O         21.3830    1.7090  158.6520 O.2    82  TYR82      -0.2715
     32  CB        20.0460    4.6050  158.4640 C.3    82  TYR82       0.0574
     33  CG        21.2700    5.4250  158.7520 C.ar   82  TYR82      -0.0198
     34  CD1       21.7710    6.3280  157.8220 C.ar   82  TYR82      -0.0009
     35  CD2       21.9630    5.2590  159.9240 C.ar   82  TYR82      -0.0009
     36  CE1       22.9290    7.0490  158.0790 C.ar   82  TYR82       0.0417
     37  CE2       23.1280    5.9640  160.1850 C.ar   82  TYR82       0.0417
     38  CZ        23.6050    6.8530  159.2670 C.ar   82  TYR82       0.1957
     39  OH        24.7440    7.5460  159.5820 O.3    82  TYR82      -0.2866
     40  N         22.7510    2.9240  157.3710 N.am   83  ASN83      -0.1972
     41  CA        24.0000    2.2010  157.7260 C.3    83  ASN83       0.1688
     42  C         25.0590    3.0600  158.4140 C.2    83  ASN83       0.2292
     43  O         25.7140    3.9260  157.8130 O.2    83  ASN83      -0.2864
     44  CB        24.6260    1.6230  156.4710 C.3    83  ASN83       0.1181
     45  CG        25.8860    0.8140  156.7330 C.2    83  ASN83       0.2629
     46  OD1       26.2400    0.4720  157.8540 O.2    83  ASN83      -0.2716
     47  ND2       26.5800    0.5110  155.6630 N.am   83  ASN83      -0.0877
     48  N         28.5770    3.6860  156.9020 N.3    86  ASP86      -0.1239
     49  CA        28.5250    4.2020  155.5300 C.3    86  ASP86       0.1674
     50  C         28.0340    5.6360  155.5370 C.2    86  ASP86       0.2266
     51  O         28.5590    6.4720  154.8370 O.2    86  ASP86      -0.2867
     52  CB        27.4730    3.3580  154.7650 C.3    86  ASP86       0.1410
     53  CG        27.8880    2.9820  153.3740 C.2    86  ASP86       0.3668
     54  OD1       28.4560    3.8400  152.6660 O.co2  86  ASP86      -0.2456
     55  OD2       27.6250    1.8240  152.9760 O.co2  86  ASP86      -0.2456
     56  N         19.7490    2.2050  152.5320 N.3    90  TYR90      -0.1241
     57  CA        19.5310    1.1780  151.5370 C.3    90  TYR90       0.1605
     58  C         18.0830    0.7450  151.5400 C.2    90  TYR90       0.2264
     59  O         17.4380    0.7860  152.5630 O.2    90  TYR90      -0.2867
     60  CB        20.4210   -0.0120  151.8370 C.3    90  TYR90       0.0534
     61  CG        21.8630    0.3390  151.7100 C.ar   90  TYR90      -0.0201
     62  CD1       22.5610    0.0560  150.5630 C.ar   90  TYR90      -0.0009
     63  CD2       22.5240    0.9980  152.7270 C.ar   90  TYR90      -0.0009
     64  CE1       23.8840    0.4020  150.4370 C.ar   90  TYR90       0.0417
     65  CE2       23.8450    1.3450  152.6110 C.ar   90  TYR90       0.0417
     66  CZ        24.5170    1.0480  151.4650 C.ar   90  TYR90       0.1957
     67  OH        25.8360    1.3910  151.3490 O.3    90  TYR90      -0.2866
     68  N         18.0060  -11.4660  154.0050 N.3   104  PHE104     -0.1241
     69  CA        17.8650  -10.0350  154.1290 C.3   104  PHE104      0.1605
     70  C         18.5220   -9.3900  152.9290 C.2   104  PHE104      0.2264
     71  O         19.7370   -9.4830  152.7430 O.2   104  PHE104     -0.2867
     72  CB        18.5410   -9.6380  155.4270 C.3   104  PHE104      0.0534
     73  CG        18.5770   -8.1730  155.7010 C.ar  104  PHE104     -0.0203
     74  CD1       17.6900   -7.6080  156.5850 C.ar  104  PHE104     -0.0042
     75  CD2       19.5610   -7.3660  155.1470 C.ar  104  PHE104     -0.0042
     76  CE1       17.7560   -6.2460  156.8740 C.ar  104  PHE104     -0.0003
     77  CE2       19.6190   -6.0160  155.4320 C.ar  104  PHE104     -0.0003
     78  CZ        18.7160   -5.4630  156.2940 C.ar  104  PHE104     -0.0000
     79  N         19.5590   -6.2140  150.8200 N.3   106  SER106     -0.1202
     80  CA        19.8670   -4.8080  150.8830 C.3   106  SER106      0.2020
     81  C         20.2150   -4.2940  149.4810 C.2   106  SER106      0.2619
     82  O         21.0420   -4.9200  148.8010 O.2   106  SER106     -0.2717
     83  CB        21.0930   -4.6300  151.7950 C.3   106  SER106      0.2103
     84  OG        21.0990   -3.3400  152.3490 O.3   106  SER106     -0.2182
     85  N         19.6660   -3.1360  149.0780 N.am  107  SER107     -0.1937
     86  CA        19.8240   -2.6420  147.6850 C.3   107  SER107      0.2055
     87  C         19.8390   -1.1390  147.4970 C.2   107  SER107      0.2643
     88  O         19.2390   -0.4010  148.2600 O.2   107  SER107     -0.2714
     89  CB        18.6770   -3.1690  146.8440 C.3   107  SER107      0.2130
     90  OG        17.4240   -2.8100  147.4330 O.3   107  SER107     -0.2179
     91  N         20.5000   -0.7010  146.4330 N.am  108  TYR108     -0.1973
     92  CA        20.4200    0.6940  145.9510 C.3   108  TYR108      0.1639
     93  C         19.0880    1.0340  145.2890 C.2   108  TYR108      0.2290
     94  O         18.6820    2.1850  145.3680 O.2   108  TYR108     -0.2864
     95  CB        21.5680    0.9950  144.9670 C.3   108  TYR108      0.0560
     96  CG        22.9230    1.0290  145.6470 C.ar  108  TYR108     -0.0198
     97  CD1       23.7010   -0.1180  145.7480 C.ar  108  TYR108     -0.0009
     98  CD2       23.4080    2.2000  146.2380 C.ar  108  TYR108     -0.0009
     99  CE1       24.9260   -0.1060  146.4040 C.ar  108  TYR108      0.0417
    100  CE2       24.6360    2.2190  146.8920 C.ar  108  TYR108      0.0417
    101  CZ        25.3990    1.0610  146.9670 C.ar  108  TYR108      0.1957
    102  OH        26.6390    1.0530  147.6250 O.3   108  TYR108     -0.2866
    103  N         17.0920   -5.5740  142.9910 N.3   113  TYR113     -0.1241
    104  CA        17.9130   -6.2460  141.9920 C.3   113  TYR113      0.1605
    105  C         19.3380   -5.6780  141.9950 C.2   113  TYR113      0.2264
    106  O         20.2810   -6.3110  141.5330 O.2   113  TYR113     -0.2867
    107  CB        17.2280   -6.2040  140.6140 C.3   113  TYR113      0.0534
    108  CG        15.8420   -6.8410  140.6290 C.ar  113  TYR113     -0.0201
    109  CD1       15.6840   -8.1870  140.9420 C.ar  113  TYR113     -0.0009
    110  CD2       14.6910   -6.0910  140.3660 C.ar  113  TYR113     -0.0009
    111  CE1       14.4310   -8.7730  140.9890 C.ar  113  TYR113      0.0417
    112  CE2       13.4230   -6.6720  140.3960 C.ar  113  TYR113      0.0417
    113  CZ        13.2950   -8.0150  140.7100 C.ar  113  TYR113      0.1957
    114  OH        12.0500   -8.6170  140.7530 O.3   113  TYR113     -0.2866
    115  N         21.5080   -5.2790  144.5700 N.3   114  GLY114     -0.1210
    116  CA        21.6450   -5.5610  145.9660 C.3   114  GLY114      0.1956
    117  C         22.3690   -6.8490  146.2140 C.2   114  GLY114      0.2611
    118  O         22.8450   -7.4910  145.2970 O.2   114  GLY114     -0.2717
    119  N         22.3960   -7.2220  147.4850 N.am  115  LYS115     -0.1979
    120  CA        23.0720   -8.3940  147.9730 C.3   115  LYS115      0.1596
    121  C         22.1810   -8.9900  149.0370 C.2   115  LYS115      0.2287
    122  O         21.5070   -8.2750  149.7720 O.2   115  LYS115     -0.2864
    123  CB        24.3860   -7.9540  148.5880 C.3   115  LYS115      0.0298
    124  CG        25.5960   -8.6780  148.0380 C.3   115  LYS115      0.0038
    125  CD        26.8710   -8.3210  148.7910 C.3   115  LYS115      0.0206
    126  CE        27.8430   -9.5000  148.8240 C.3   115  LYS115      0.1093
    127  NZ        27.3170  -10.6650  149.5900 N.3   115  LYS115     -0.1314
    128  N         21.9360  -11.3790  152.4260 N.3   117  PHE117     -0.1241
    129  CA        22.6750  -11.8790  153.5720 C.3   117  PHE117      0.1605
    130  C         21.7290  -12.7580  154.3690 C.2   117  PHE117      0.2264
    131  O         20.5180  -12.6410  154.2500 O.2   117  PHE117     -0.2867
    132  CB        23.1230  -10.7420  154.4680 C.3   117  PHE117      0.0534
    133  CG        23.9430   -9.6910  153.7720 C.ar  117  PHE117     -0.0203
    134  CD1       25.3300   -9.8150  153.6770 C.ar  117  PHE117     -0.0042
    135  CD2       23.3320   -8.5650  153.2150 C.ar  117  PHE117     -0.0042
    136  CE1       26.0940   -8.8400  153.0440 C.ar  117  PHE117     -0.0003
    137  CE2       24.0940   -7.5920  152.5730 C.ar  117  PHE117     -0.0003
    138  CZ        25.4800   -7.7260  152.4940 C.ar  117  PHE117     -0.0000
    139  N         20.6810  -13.6570  158.1620 N.3   119  TRP119     -0.1241
    140  CA        20.7360  -13.1790  159.5510 C.3   119  TRP119      0.1605
    141  C         20.1170  -14.2500  160.3700 C.2   119  TRP119      0.2264
    142  O         18.9680  -14.5760  160.1670 O.2   119  TRP119     -0.2867
    143  CB        19.9410  -11.8960  159.7380 C.3   119  TRP119      0.0550
    144  CG        20.5800  -10.6830  159.1850 C.ar  119  TRP119      0.0003
    145  CD1       21.5960  -10.6230  158.3030 C.ar  119  TRP119      0.0946
    146  CD2       20.2210   -9.3320  159.4720 C.ar  119  TRP119      0.0152
    147  NE1       21.9140   -9.3250  158.0350 N.ar  119  TRP119     -0.2442
    148  CE2       21.0810   -8.5100  158.7390 C.ar  119  TRP119      0.0810
    149  CE3       19.2500   -8.7380  160.2860 C.ar  119  TRP119      0.0012
    150  CZ2       21.0060   -7.1250  158.7800 C.ar  119  TRP119      0.0191
    151  CZ3       19.1800   -7.3530  160.3250 C.ar  119  TRP119      0.0001
    152  CH2       20.0350   -6.5690  159.5660 C.ar  119  TRP119      0.0015
@<TRIPOS>BOND
     1   110   112   ar
     2   110   108   ar
     3   112   113   ar
     4   107   108    1
     5   107   104    1
     6   108   109   ar
     7   113   114    1
     8   113   111   ar
     9   109   111   ar
    10   106   105    2
    11   104   105    1
    12   104   103    1
    13   115   116    1
    14    95    96    1
    15    95    92    1
    16    93    94    2
    17    93    92    1
    18   118   117    2
    19    96    97   ar
    20    96    98   ar
    21    97    99   ar
    22    92    91    1
    23   116   117    1
    24   117   119   am
    25    98   100   ar
    26    99   101   ar
    27    91    87   am
    28    89    90    1
    29    89    86    1
    30   100   101   ar
    31   101   102    1
    32   119   120    1
    33    87    86    1
    34    87    88    2
    35    86    85    1
    36   120   123    1
    37   120   121    1
    38   124   123    1
    39   124   125    1
    40   125   126    1
    41    82    81    2
    42   126   127    1
    43   121   122    2
    44    85    81   am
    45    81    80    1
    46    64    62   ar
    47    64    66   ar
    48    62    61   ar
    49    11     9   ar
    50    11    10   ar
    51    79    80    1
    52    80    83    1
    53     9     7   ar
    54    67    66    1
    55    66    65   ar
    56    10     8   ar
    57    57    58    1
    58    57    60    1
    59    57    56    1
    60    58    59    2
    61    61    60    1
    62    61    63   ar
    63    83    84    1
    64   128   129    1
    65     7     6   ar
    66   138   137   ar
    67   138   136   ar
    68   137   135   ar
    69    65    63   ar
    70    54    53   ar
    71    71    70    2
    72     8     6   ar
    73    70    69    1
    74    55    53   ar
    75   136   134   ar
    76   135   133   ar
    77     6     5    1
    78    53    52    1
    79   129   130    1
    80   129   132    1
    81   134   133   ar
    82   133   132    1
    83    68    69    1
    84    69    72    1
    85   131   130    2
    86     5     2    1
    87    52    49    1
    88    51    50    2
    89    75    77   ar
    90    75    73   ar
    91    23    24    1
    92    26    25    2
    93    72    73    1
    94     2     3    1
    95     2     1    1
    96    77    78   ar
    97     3     4    2
    98    49    50    1
    99    49    48    1
   100    47    45   am
   101    73    74   ar
   102    27    24    1
   103    78    76   ar
   104    25    24    1
   105    25    28   am
   106    44    45    1
   107    44    41    1
   108    74    76   ar
   109    45    46    2
   110    40    41    1
   111    40    30   am
   112    28    29    1
   113    29    30    1
   114    29    32    1
   115    41    42    1
   116    43    42    2
   117    34    36   ar
   118    34    33   ar
   119    30    31    2
   120   147   145   ar
   121   147   148   ar
   122    36    38   ar
   123   139   140    1
   124   145   144   ar
   125    32    33    1
   126   148   150   ar
   127   148   146   ar
   128    33    35   ar
   129   150   152   ar
   130   144   146   ar
   131   144   143    1
   132    38    39    1
   133    38    37   ar
   134    15    14    2
   135   146   149   ar
   136   140   143    1
   137   140   141    1
   138   152   151   ar
   139    35    37   ar
   140   142   141    2
   141   149   151   ar
   142    14    13    1
   143    18    20   ar
   144    18    17   ar
   145    20    22   ar
   146    13    16    1
   147    13    12    1
   148    16    17    1
   149    17    19   ar
   150    22    21   ar
   151    19    21   ar
