@<TRIPOS>MOLECULE
tmp/4intK00.pdb
 133 126 0 0 0
SMALL
GASTEIGER

@<TRIPOS>ATOM
      1  N         12.0140 -141.0820    9.1100 N.3     1  THR1       -0.1218
      2  CA        11.6070 -139.8970    8.2980 C.3     1  THR1        0.1862
      3  C         12.0740 -140.0010    6.8450 C.2     1  THR1        0.2287
      4  O         13.1040 -140.6140    6.5560 O.2     1  THR1       -0.2866
      5  CB        12.1320 -138.5590    8.8970 C.3     1  THR1        0.1770
      6  OG1       11.2240 -138.0610    9.8910 O.3     1  THR1       -0.2211
      7  CG2       12.3030 -137.4770    7.8300 C.3     1  THR1        0.0375
      8  N          5.2460 -139.1390    9.5630 N.3    19  ARG19      -0.1231
      9  CA         5.4020 -140.0260   10.7150 C.3    19  ARG19       0.1694
     10  C          6.4670 -139.5370   11.6970 C.2    19  ARG19       0.2592
     11  O          7.6200 -139.3080   11.3240 O.2    19  ARG19      -0.2718
     12  CB         5.6970 -141.4640   10.2650 C.3    19  ARG19       0.0321
     13  CG         5.7740 -142.4690   11.4080 C.3    19  ARG19       0.0489
     14  CD         5.9410 -143.8960   10.9090 C.3    19  ARG19       0.2205
     15  NE         4.6850 -144.4590   10.4170 N.pl3  19  ARG19      -0.0865
     16  CZ         4.4980 -145.7410   10.1140 C.cat  19  ARG19       0.5346
     17  NH1        5.4840 -146.6190   10.2500 N.pl3  19  ARG19       0.1354
     18  NH2        3.3150 -146.1480    9.6750 N.pl3  19  ARG19       0.1354
     19  N          6.0550 -139.3760   12.9520 N.am   20  ALA20      -0.1966
     20  CA         6.9610 -139.0420   14.0460 C.3    20  ALA20       0.1728
     21  C          7.0680 -140.2370   14.9890 C.2    20  ALA20       0.2617
     22  O          6.0540 -140.8340   15.3600 O.2    20  ALA20      -0.2715
     23  CB         6.4610 -137.8140   14.7890 C.3    20  ALA20       0.0334
     24  N          8.2950 -140.5880   15.3670 N.am   21  THR21      -0.1937
     25  CA         8.5370 -141.7820   16.1820 C.3    21  THR21       0.2028
     26  C          9.4500 -141.5380   17.3830 C.2    21  THR21       0.2642
     27  O         10.2920 -140.6390   17.3680 O.2    21  THR21      -0.2714
     28  CB         9.1250 -142.9410   15.3430 C.3    21  THR21       0.1808
     29  OG1       10.2100 -142.4580   14.5410 O.3    21  THR21      -0.2208
     30  CG2        8.0620 -143.5580   14.4400 C.3    21  THR21       0.0379
     31  N          9.2570 -142.3490   18.4220 N.am   22  ALA22      -0.1977
     32  CA        10.1460 -142.3880   19.5780 C.3    22  ALA22       0.1597
     33  C         10.5620 -143.8400   19.8120 C.2    22  ALA22       0.2287
     34  O          9.9610 -144.5530   20.6220 O.2    22  ALA22      -0.2864
     35  CB         9.4570 -141.8070   20.8040 C.3    22  ALA22       0.0319
     36  N          4.6040 -142.1050   17.3680 N.3    27  ALA27      -0.1245
     37  CA         4.0100 -141.0090   18.1310 C.3    27  ALA27       0.1562
     38  C          2.8570 -140.3400   17.3850 C.2    27  ALA27       0.2260
     39  O          1.8050 -140.0800   17.9700 O.2    27  ALA27      -0.2867
     40  CB         5.0710 -139.9850   18.5080 C.3    27  ALA27       0.0290
     41  N          1.9460 -135.3940   11.0110 N.3    31  VAL31      -0.1231
     42  CA         2.8920 -134.3470   11.3960 C.3    31  VAL31       0.1692
     43  C          3.2620 -133.4680   10.2000 C.2    31  VAL31       0.2592
     44  O          3.5140 -133.9720    9.1050 O.2    31  VAL31      -0.2718
     45  CB         4.1580 -134.9540   12.0510 C.3    31  VAL31       0.0266
     46  CG1        5.3600 -134.0310   11.9180 C.3    31  VAL31       0.0020
     47  CG2        3.8940 -135.2750   13.5140 C.3    31  VAL31       0.0020
     48  N          3.2790 -132.1540   10.4210 N.am   32  LYS32      -0.1966
     49  CA         3.7000 -131.1960    9.4000 C.3    32  LYS32       0.1728
     50  C          5.2190 -131.0330    9.4120 C.2    32  LYS32       0.2616
     51  O          5.7770 -130.3690   10.2910 O.2    32  LYS32      -0.2715
     52  CB         3.0070 -129.8400    9.6000 C.3    32  LYS32       0.0311
     53  CG         1.5530 -129.7890    9.1480 C.3    32  LYS32       0.0038
     54  CD         0.5970 -130.3020   10.2160 C.3    32  LYS32       0.0206
     55  CE        -0.8200 -130.4190    9.6790 C.3    32  LYS32       0.1093
     56  NZ        -1.7410 -131.0400   10.6710 N.3    32  LYS32      -0.1314
     57  N          5.8790 -131.6510    8.4350 N.am   33  LYS33      -0.1977
     58  CA         7.3400 -131.6270    8.3420 C.3    33  LYS33       0.1596
     59  C          7.8620 -130.5110    7.4350 C.2    33  LYS33       0.2287
     60  O          9.0720 -130.3040    7.3310 O.2    33  LYS33      -0.2864
     61  CB         7.8780 -132.9920    7.8970 C.3    33  LYS33       0.0298
     62  CG         7.7670 -134.0670    8.9660 C.3    33  LYS33       0.0038
     63  CD         8.3490 -135.3940    8.5090 C.3    33  LYS33       0.0206
     64  CE         8.1180 -136.4660    9.5610 C.3    33  LYS33       0.1093
     65  NZ         8.6540 -137.7920    9.1520 N.3    33  LYS33      -0.1314
     66  N         11.7680 -130.7460    7.6810 N.3    45  MET45      -0.1230
     67  CA        12.1450 -131.1610    9.0300 C.3    45  MET45       0.1702
     68  C         12.5000 -132.6440    9.0900 C.2    45  MET45       0.2592
     69  O         11.6930 -133.5010    8.7230 O.2    45  MET45      -0.2718
     70  CB        11.0240 -130.8400   10.0250 C.3    45  MET45       0.0401
     71  CG        10.7140 -129.3570   10.1650 C.3    45  MET45       0.0596
     72  SD         9.3760 -129.0390   11.3290 S.3    45  MET45      -0.1393
     73  CE         9.2660 -127.2550   11.2370 C.3    45  MET45       0.0692
     74  N         13.7170 -132.9310    9.5480 N.am   46  ALA46      -0.1966
     75  CA        14.1870 -134.3040    9.7380 C.3    46  ALA46       0.1728
     76  C         15.1430 -134.3900   10.9240 C.2    46  ALA46       0.2617
     77  O         16.0200 -133.5410   11.0890 O.2    46  ALA46      -0.2715
     78  CB        14.8550 -134.8260    8.4740 C.3    46  ALA46       0.0334
     79  N         14.9670 -135.4230   11.7430 N.am   47  GLY47      -0.1940
     80  CA        15.7540 -135.5950   12.9600 C.3    47  GLY47       0.2014
     81  C         14.9440 -135.2230   14.1850 C.2    47  GLY47       0.2639
     82  O         13.7840 -135.6190   14.3090 O.2    47  GLY47      -0.2714
     83  N         15.5560 -134.4570   15.0860 N.am   48  GLY48      -0.1939
     84  CA        14.8940 -133.9970   16.3080 C.3    48  GLY48       0.2014
     85  C         13.6840 -133.1330   16.0120 C.2    48  GLY48       0.2639
     86  O         13.7960 -132.1030   15.3440 O.2    48  GLY48      -0.2714
     87  N         12.5280 -133.5650   16.5120 N.am   49  ALA49      -0.1963
     88  CA        11.2530 -132.8940   16.2600 C.3    49  ALA49       0.1728
     89  C         11.2150 -131.4710   16.8110 C.2    49  ALA49       0.2616
     90  O         10.7980 -130.5470   16.1140 O.2    49  ALA49      -0.2715
     91  CB        10.1040 -133.7150   16.8250 C.3    49  ALA49       0.0334
     92  N         11.6550 -131.3050   18.0570 N.am   50  ALA50      -0.1977
     93  CA        11.6790 -129.9960   18.7080 C.3    50  ALA50       0.1597
     94  C         12.7630 -129.0890   18.1330 C.2    50  ALA50       0.2287
     95  O         12.5410 -127.8920   17.9590 O.2    50  ALA50      -0.2864
     96  CB        11.8510 -130.1490   20.2110 C.3    50  ALA50       0.0319
     97  N         14.0410 -129.1210   15.0600 N.3    52  CYS52      -0.1221
     98  CA        13.6040 -128.6730   13.7420 C.3    52  CYS52       0.1808
     99  C         12.4720 -127.6540   13.8360 C.2    52  CYS52       0.2601
    100  O         12.5030 -126.6250   13.1600 O.2    52  CYS52      -0.2717
    101  CB        13.1610 -129.8630   12.8900 C.3    52  CYS52       0.0970
    102  SG        14.5110 -130.8810   12.2590 S.3    52  CYS52      -0.0800
    103  N         11.4850 -127.9440   14.6810 N.am   53  GLN53      -0.1979
    104  CA        10.3010 -127.0980   14.8200 C.3    53  GLN53       0.1601
    105  C         10.6200 -125.7400   15.4450 C.2    53  GLN53       0.2287
    106  O         10.0820 -124.7200   15.0180 O.2    53  GLN53      -0.2864
    107  CB         9.2170 -127.8150   15.6290 C.3    53  GLN53       0.0394
    108  CG         7.8040 -127.3150   15.3670 C.3    53  GLN53       0.0908
    109  CD         6.7550 -128.0900   16.1420 C.2    53  GLN53       0.2608
    110  OE1        6.8160 -128.1880   17.3680 O.2    53  GLN53      -0.2717
    111  NE2        5.7780 -128.6370   15.4290 N.am   53  GLN53      -0.0878
    112  N         16.6860 -138.0090    5.9710 N.3   130  GLY130     -0.1210
    113  CA        15.8910 -138.8310    6.8800 C.3   130  GLY130      0.1956
    114  C         16.4060 -140.2550    6.9590 C.2   130  GLY130      0.2612
    115  O         17.4110 -140.5940    6.3320 O.2   130  GLY130     -0.2717
    116  N         15.7140 -141.0890    7.7310 N.am  131  SER131     -0.1952
    117  CA        16.0760 -142.5010    7.8680 C.3   131  SER131      0.1924
    118  C         15.7090 -143.3100    6.6230 C.2   131  SER131      0.2314
    119  O         16.2640 -144.3850    6.3880 O.2   131  SER131     -0.2863
    120  CB        15.4260 -143.1120    9.1120 C.3   131  SER131      0.2116
    121  OG        14.0180 -142.9560    9.0870 O.3   131  SER131     -0.2180
    122  N         10.3860 -146.1670   10.0930 N.3   170  TYR170     -0.1241
    123  CA        10.1630 -144.8790   10.7500 C.3   170  TYR170      0.1605
    124  C          9.5580 -143.8310    9.8090 C.2   170  TYR170      0.2264
    125  O          9.4150 -142.6610   10.1770 O.2   170  TYR170     -0.2867
    126  CB        11.4620 -144.3650   11.3880 C.3   170  TYR170      0.0534
    127  CG        12.1590 -145.3720   12.2830 C.ar  170  TYR170     -0.0201
    128  CD1       11.4880 -145.9690   13.3530 C.ar  170  TYR170     -0.0009
    129  CD2       13.4910 -145.7200   12.0670 C.ar  170  TYR170     -0.0009
    130  CE1       12.1220 -146.8910   14.1720 C.ar  170  TYR170      0.0417
    131  CE2       14.1350 -146.6380   12.8850 C.ar  170  TYR170      0.0417
    132  CZ        13.4460 -147.2210   13.9340 C.ar  170  TYR170      0.1957
    133  OH        14.0810 -148.1330   14.7470 O.3   170  TYR170     -0.2866
@<TRIPOS>BOND
     1   112   113    1
     2   115   114    2
     3   119   118    2
     4     4     3    2
     5   118   117    1
     6     3     2    1
     7   113   114    1
     8   114   116   am
     9    60    59    2
    10    59    58    1
    11    66    67    1
    12   116   117    1
    13     7     5    1
    14   117   120    1
    15    61    58    1
    16    61    62    1
    17     2     5    1
    18     2     1    1
    19    58    57    1
    20    57    50   am
    21    78    75    1
    22    63    62    1
    23    63    64    1
    24    69    68    2
    25     5     6    1
    26    67    68    1
    27    67    70    1
    28   121   120    1
    29    68    74   am
    30    44    43    2
    31    53    52    1
    32    53    54    1
    33    65    64    1
    34    49    50    1
    35    49    52    1
    36    49    48    1
    37    50    51    2
    38    74    75    1
    39     8     9    1
    40    18    16    1
    41    55    54    1
    42    55    56    1
    43    75    76    1
    44   124   125    2
    45   124   123    1
    46    70    71    1
    47   122   123    1
    48    16    17    1
    49    16    15    2
    50    71    72    1
    51    43    48   am
    52    43    42    1
    53    12     9    1
    54    12    13    1
    55    15    14    1
    56     9    10    1
    57   123   126    1
    58    14    13    1
    59    76    77    2
    60    76    79   am
    61    41    42    1
    62    73    72    1
    63    11    10    2
    64   126   127    1
    65    42    45    1
    66    10    19   am
    67    79    80    1
    68    46    45    1
    69    45    47    1
    70   129   127   ar
    71   129   131   ar
    72   102   101    1
    73   127   128   ar
    74   131   132   ar
    75   101    98    1
    76    19    20    1
    77    80    81    1
    78   100    99    2
    79   128   130   ar
    80    98    99    1
    81    98    97    1
    82    99   103   am
    83   132   130   ar
    84   132   133    1
    85    20    23    1
    86    20    21    1
    87    81    82    2
    88    81    83   am
    89    30    28    1
    90    29    28    1
    91   103   104    1
    92   104   105    1
    93   104   107    1
    94    21    22    2
    95    21    24   am
    96   106   105    2
    97    83    84    1
    98    28    25    1
    99    86    85    2
   100    24    25    1
   101   108   107    1
   102   108   109    1
   103   111   109   am
   104    85    84    1
   105    85    87   am
   106    90    89    2
   107   109   110    2
   108    25    26    1
   109    88    87    1
   110    88    89    1
   111    88    91    1
   112    89    92   am
   113    36    37    1
   114    27    26    2
   115    26    31   am
   116    38    39    2
   117    38    37    1
   118    95    94    2
   119    92    93    1
   120    37    40    1
   121    94    93    1
   122    31    32    1
   123    93    96    1
   124    32    33    1
   125    32    35    1
   126    33    34    2
