@<TRIPOS>MOLECULE
tmp/4intV00.pdb
 139 131 0 0 0
SMALL
GASTEIGER

@<TRIPOS>ATOM
      1  N          5.3860 -159.5180   44.0740 N.3     1  THR1       -0.1218
      2  CA         4.5200 -160.6430   44.5300 C.3     1  THR1        0.1862
      3  C          4.3160 -160.5720   46.0480 C.2     1  THR1        0.2287
      4  O          5.1880 -160.0960   46.7740 O.2     1  THR1       -0.2866
      5  CB         5.0370 -162.0460   44.0620 C.3     1  THR1        0.1770
      6  OG1        4.6310 -162.3130   42.6990 O.3     1  THR1       -0.2211
      7  CG2        4.5180 -163.1760   44.9570 C.3     1  THR1        0.0375
      8  N         -1.4760 -161.6970   40.9720 N.3    19  ARG19      -0.1231
      9  CA        -0.9710 -160.7790   39.9500 C.3    19  ARG19       0.1694
     10  C          0.3840 -161.2200   39.3950 C.2    19  ARG19       0.2593
     11  O          1.3430 -161.4110   40.1440 O.2    19  ARG19      -0.2718
     12  CB        -0.8920 -159.3420   40.4870 C.3    19  ARG19       0.0321
     13  CG        -0.2840 -158.3430   39.5090 C.3    19  ARG19       0.0489
     14  CD        -0.3730 -156.9110   40.0140 C.3    19  ARG19       0.2205
     15  NE        -1.6940 -156.3300   39.7830 N.pl3  19  ARG19      -0.0865
     16  CZ        -2.0310 -155.0740   40.0690 C.cat  19  ARG19       0.5346
     17  NH1       -1.1480 -154.2410   40.6050 N.pl3  19  ARG19       0.1354
     18  NH2       -3.2610 -154.6480   39.8150 N.pl3  19  ARG19       0.1354
     19  N          0.4420 -161.3760   38.0750 N.am   20  SER20      -0.1938
     20  CA         1.6850 -161.6730   37.3690 C.3    20  SER20       0.2055
     21  C          2.0660 -160.4770   36.5010 C.2    20  SER20       0.2644
     22  O          1.2220 -159.9320   35.7860 O.2    20  SER20      -0.2714
     23  CB         1.5210 -162.9270   36.5120 C.3    20  SER20       0.2130
     24  OG         2.7390 -163.2880   35.8920 O.3    20  SER20      -0.2179
     25  N          3.3320 -160.0690   36.5680 N.am   21  THR21      -0.1936
     26  CA         3.7820 -158.8430   35.9000 C.3    21  THR21       0.2028
     27  C          5.0240 -159.0190   35.0270 C.2    21  THR21       0.2642
     28  O          5.9220 -159.7980   35.3510 O.2    21  THR21      -0.2714
     29  CB         4.0590 -157.7100   36.9140 C.3    21  THR21       0.1808
     30  OG1        4.8610 -158.2100   37.9910 O.3    21  THR21      -0.2208
     31  CG2        2.7580 -157.1420   37.4710 C.3    21  THR21       0.0379
     32  N          5.0540 -158.2820   33.9180 N.am   22  GLN22      -0.1963
     33  CA         6.2360 -158.1670   33.0680 C.3    22  GLN22       0.1733
     34  C          6.7160 -156.7180   33.1160 C.2    22  GLN22       0.2616
     35  O          6.5110 -155.9470   32.1730 O.2    22  GLN22      -0.2715
     36  CB         5.9230 -158.5800   31.6250 C.3    22  GLN22       0.0408
     37  CG         5.3940 -159.9970   31.4640 C.3    22  GLN22       0.0908
     38  CD         5.2210 -160.3950   30.0090 C.2    22  GLN22       0.2608
     39  OE1        6.1950 -160.5010   29.2620 O.2    22  GLN22      -0.2717
     40  NE2        3.9770 -160.6260   29.6030 N.am   22  GLN22      -0.0878
     41  N          7.3490 -156.3530   34.2280 N.am   23  GLY23      -0.1955
     42  CA         7.7270 -154.9670   34.4830 C.3    23  GLY23       0.1869
     43  C          6.5300 -154.1870   34.9990 C.2    23  GLY23       0.2309
     44  O          5.9780 -154.5260   36.0480 O.2    23  GLY23      -0.2863
     45  N          0.7090 -159.3350   33.1960 N.3    27  ALA27      -0.1245
     46  CA         0.6370 -160.4610   32.2670 C.3    27  ALA27       0.1562
     47  C         -0.5880 -161.3330   32.5410 C.2    27  ALA27       0.2260
     48  O         -1.3870 -161.5910   31.6390 O.2    27  ALA27      -0.2867
     49  CB         1.9130 -161.2890   32.3320 C.3    27  ALA27       0.0290
     50  N         -3.3390 -165.5950   38.1430 N.3    31  CYS31      -0.1221
     51  CA        -2.3740 -166.6910   38.0640 C.3    31  CYS31       0.1808
     52  C         -2.3110 -167.4700   39.3750 C.2    31  CYS31       0.2601
     53  O         -2.6280 -166.9370   40.4400 O.2    31  CYS31      -0.2717
     54  CB        -0.9850 -166.1600   37.6990 C.3    31  CYS31       0.0970
     55  SG        -0.2350 -165.0930   38.9520 S.3    31  CYS31      -0.0800
     56  N         -1.8970 -168.7320   39.2860 N.am   32  ALA32      -0.1965
     57  CA        -1.7510 -169.5840   40.4630 C.3    32  ALA32       0.1728
     58  C         -0.3130 -169.5670   40.9750 C.2    32  ALA32       0.2616
     59  O          0.6140 -169.9770   40.2700 O.2    32  ALA32      -0.2715
     60  CB        -2.1970 -171.0050   40.1510 C.3    32  ALA32       0.0334
     61  N         -0.1390 -169.0800   42.2020 N.am   33  LYS33      -0.1977
     62  CA         1.1800 -169.0000   42.8320 C.3    33  LYS33       0.1596
     63  C          1.3820 -170.0950   43.8790 C.2    33  LYS33       0.2287
     64  O          2.5150 -170.4010   44.2580 O.2    33  LYS33      -0.2864
     65  CB         1.4040 -167.6170   43.4490 C.3    33  LYS33       0.0298
     66  CG         1.5150 -166.4990   42.4250 C.3    33  LYS33       0.0038
     67  CD         1.7710 -165.1550   43.0840 C.3    33  LYS33       0.0206
     68  CE         1.7300 -164.0390   42.0550 C.3    33  LYS33       0.1093
     69  NZ         1.9000 -162.6960   42.6710 N.3    33  LYS33      -0.1314
     70  N          1.6660 -173.6890   44.6050 N.3    35  HIS35      -0.1241
     71  CA         1.9800 -174.9490   43.9360 C.3    35  HIS35       0.1621
     72  C          2.0440 -176.0880   44.9110 C.2    35  HIS35       0.2264
     73  O          2.1460 -175.8790   46.1220 O.2    35  HIS35      -0.2867
     74  CB         3.2940 -174.8450   43.1670 C.3    35  HIS35       0.0745
     75  CG         3.4170 -173.5940   42.3310 C.ar   35  HIS35       0.0817
     76  ND1        2.6200 -173.3450   41.2760 N.ar   35  HIS35      -0.2268
     77  CD2        4.2910 -172.5120   42.4290 C.ar   35  HIS35       0.1154
     78  CE1        2.9590 -172.1630   40.7290 C.ar   35  HIS35       0.1986
     79  NE2        3.9830 -171.6550   41.4350 N.ar   35  HIS35      -0.2212
     80  N          5.4160 -169.2550   45.4840 N.3    45  GLY45      -0.1210
     81  CA         6.5340 -168.7490   44.6870 C.3    45  GLY45       0.1956
     82  C          6.6320 -167.2400   44.5600 C.2    45  GLY45       0.2612
     83  O          5.6170 -166.5420   44.5110 O.2    45  GLY45      -0.2717
     84  N          7.8680 -166.7480   44.5070 N.am   46  ALA46      -0.1965
     85  CA         8.1620 -165.3280   44.3100 C.3    46  ALA46       0.1728
     86  C          9.4820 -165.1550   43.5610 C.2    46  ALA46       0.2617
     87  O         10.4010 -165.9630   43.7140 O.2    46  ALA46      -0.2715
     88  CB         8.2070 -164.6010   45.6460 C.3    46  ALA46       0.0334
     89  N          9.5710 -164.1000   42.7550 N.am   47  GLY47      -0.1940
     90  CA        10.7600 -163.8370   41.9460 C.3    47  GLY47       0.2014
     91  C         10.5220 -164.1650   40.4860 C.2    47  GLY47       0.2640
     92  O          9.5110 -163.7580   39.9110 O.2    47  GLY47      -0.2714
     93  N         11.4560 -164.9000   39.8850 N.am   48  THR48      -0.1936
     94  CA        11.3180 -165.3510   38.5010 C.3    48  THR48       0.2028
     95  C         10.2810 -166.4730   38.4370 C.2    48  THR48       0.2642
     96  O         10.4620 -167.5340   39.0400 O.2    48  THR48      -0.2714
     97  CB        12.6650 -165.8180   37.9110 C.3    48  THR48       0.1808
     98  OG1       13.6800 -164.8470   38.1970 O.3    48  THR48      -0.2208
     99  CG2       12.5610 -166.0020   36.4020 C.3    48  THR48       0.0379
    100  N          9.1990 -166.2190   37.7060 N.am   49  ALA49      -0.1963
    101  CA         8.0300 -167.1020   37.6790 C.3    49  ALA49       0.1728
    102  C          8.2920 -168.4710   37.0500 C.2    49  ALA49       0.2616
    103  O          7.7440 -169.4770   37.5060 O.2    49  ALA49      -0.2715
    104  CB         6.8640 -166.4100   36.9900 C.3    49  ALA49       0.0334
    105  N          9.1210 -168.5030   36.0070 N.am   50  ALA50      -0.1977
    106  CA         9.4950 -169.7570   35.3530 C.3    50  ALA50       0.1597
    107  C         10.4280 -170.5850   36.2320 C.2    50  ALA50       0.2287
    108  O         10.3830 -171.8170   36.2070 O.2    50  ALA50      -0.2864
    109  CB        10.1370 -169.4870   34.0010 C.3    50  ALA50       0.0319
    110  N         10.5090 -170.5120   39.6760 N.3    52  THR52      -0.1203
    111  CA         9.7440 -171.0260   40.8160 C.3    52  THR52       0.1994
    112  C          8.8840 -172.2300   40.4400 C.2    52  THR52       0.2617
    113  O          8.7350 -173.1590   41.2340 O.2    52  THR52      -0.2717
    114  CB         8.8400 -169.9440   41.4450 C.3    52  THR52       0.1784
    115  OG1        8.0060 -169.3610   40.4350 O.3    52  THR52      -0.2211
    116  CG2        9.6750 -168.8550   42.1040 C.3    52  THR52       0.0376
    117  N          8.3280 -172.2050   39.2290 N.am   53  GLU53      -0.1979
    118  CA         7.4890 -173.2910   38.7240 C.3    53  GLU53       0.1602
    119  C          8.3000 -174.5630   38.4750 C.2    53  GLU53       0.2287
    120  O          7.9060 -175.6500   38.9020 O.2    53  GLU53      -0.2864
    121  CB         6.7680 -172.8590   37.4400 C.3    53  GLU53       0.0415
    122  CG         5.7990 -173.8880   36.8690 C.3    53  GLU53       0.1163
    123  CD         4.5110 -174.0040   37.6660 C.2    53  GLU53       0.3649
    124  OE1        3.8230 -172.9760   37.8470 O.co2  53  GLU53      -0.2457
    125  OE2        4.1780 -175.1290   38.0990 O.co2  53  GLU53      -0.2457
    126  N          8.5180 -161.5050   48.5720 N.3   128  GLY128     -0.1210
    127  CA         8.1070 -160.7780   47.3720 C.3   128  GLY128      0.1956
    128  C          8.2060 -159.2690   47.5030 C.2   128  GLY128      0.2612
    129  O          8.8580 -158.7580   48.4150 O.2   128  GLY128     -0.2717
    130  N          7.5570 -158.5580   46.5830 N.am  129  SER129     -0.1952
    131  CA         7.5750 -157.0940   46.5730 C.3   129  SER129      0.1924
    132  C          6.6380 -156.4960   47.6210 C.2   129  SER129      0.2314
    133  O          6.8950 -155.4090   48.1440 O.2   129  SER129     -0.2863
    134  CB         7.2320 -156.5550   45.1820 C.3   129  SER129      0.2116
    135  OG         5.9560 -156.9970   44.7580 O.3   129  SER129     -0.2180
    136  N          3.1730 -154.3250   42.6890 N.3   168  GLY168     -0.1225
    137  CA         3.5370 -155.6250   42.1280 C.3   168  GLY168      0.1811
    138  C          2.5460 -156.7290   42.4510 C.2   168  GLY168      0.2280
    139  O          2.6610 -157.8430   41.9360 O.2   168  GLY168     -0.2866
@<TRIPOS>BOND
     1    39    38    2
     2    40    38   am
     3    38    37    1
     4    37    36    1
     5    36    33    1
     6    48    47    2
     7    35    34    2
     8    46    49    1
     9    46    47    1
    10    46    45    1
    11    33    34    1
    12    33    32    1
    13    34    41   am
    14    32    27   am
    15   109   106    1
    16    41    42    1
    17    42    43    1
    18    43    44    2
    19    27    28    2
    20    27    26    1
    21   106   105    1
    22   106   107    1
    23    22    21    2
    24    24    23    1
    25    26    25    1
    26    26    29    1
    27   105   102   am
    28   108   107    2
    29    99    97    1
    30    21    25   am
    31    21    20    1
    32    23    20    1
    33   122   121    1
    34   122   123    1
    35    29    31    1
    36    29    30    1
    37   104   101    1
    38   102   103    2
    39   102   101    1
    40    20    19    1
    41   121   118    1
    42   123   124   ar
    43   123   125   ar
    44   101   100    1
    45    54    51    1
    46    54    55    1
    47   100    95   am
    48    97    98    1
    49    97    94    1
    50    51    50    1
    51    51    52    1
    52    19    10   am
    53    95    94    1
    54    95    96    2
    55   119   118    1
    56   119   120    2
    57    94    93    1
    58   118   117    1
    59   117   112   am
    60    56    52   am
    61    56    57    1
    62    52    53    2
    63    10     9    1
    64    10    11    2
    65    13    14    1
    66    13    12    1
    67   110   111    1
    68    15    14    1
    69    15    16    2
    70    18    16    1
    71    93    91   am
    72    92    91    2
    73     9    12    1
    74     9     8    1
    75    16    17    1
    76    60    57    1
    77    59    58    2
    78   115   114    1
    79   112   111    1
    80   112   113    2
    81    57    58    1
    82    91    90    1
    83    78    76   ar
    84    78    79   ar
    85   111   114    1
    86    58    61   am
    87    76    75   ar
    88    79    77   ar
    89   114   116    1
    90   139   138    2
    91    90    89    1
    92    68    69    1
    93    68    67    1
    94   137   138    1
    95   137   136    1
    96    61    62    1
    97    75    77   ar
    98    75    74    1
    99    66    67    1
   100    66    65    1
   101     6     5    1
   102    89    86   am
   103    62    65    1
   104    62    63    1
   105    74    71    1
   106    86    87    2
   107    86    85    1
   108    63    64    2
   109    71    70    1
   110    71    72    1
   111     5     2    1
   112     5     7    1
   113     1     2    1
   114    85    84    1
   115    85    88    1
   116    84    82   am
   117    83    82    2
   118     2     3    1
   119    82    81    1
   120    81    80    1
   121   135   134    1
   122    72    73    2
   123   134   131    1
   124     3     4    2
   125   131   130    1
   126   131   132    1
   127   130   128   am
   128   127   128    1
   129   127   126    1
   130   128   129    2
   131   132   133    2
