@<TRIPOS>MOLECULE
tmp/4inuV00.pdb
 143 135 0 0 0
SMALL
GASTEIGER

@<TRIPOS>ATOM
      1  N          5.5280 -160.4750   44.2210 N.3     1  THR1       -0.1218
      2  CA         4.5340 -161.5630   44.4350 C.3     1  THR1        0.1862
      3  C          4.3990 -161.9090   45.9170 C.2     1  THR1        0.2287
      4  O          5.3550 -162.3520   46.5480 O.2     1  THR1       -0.2866
      5  CB         4.8420 -162.8210   43.5840 C.3     1  THR1        0.1770
      6  OG1        4.5670 -162.5630   42.1860 O.3     1  THR1       -0.2211
      7  CG2        4.0270 -164.0250   44.0720 C.3     1  THR1        0.0375
      8  N         -1.3220 -162.6560   40.6390 N.3    19  ARG19      -0.1231
      9  CA        -0.8440 -161.7230   39.6150 C.3    19  ARG19       0.1694
     10  C          0.5530 -162.0830   39.1000 C.2    19  ARG19       0.2593
     11  O          1.5190 -162.1180   39.8640 O.2    19  ARG19      -0.2718
     12  CB        -0.8730 -160.2800   40.1390 C.3    19  ARG19       0.0321
     13  CG        -0.2640 -159.2530   39.1930 C.3    19  ARG19       0.0489
     14  CD        -0.3680 -157.8390   39.7420 C.3    19  ARG19       0.2205
     15  NE        -1.6650 -157.2300   39.4520 N.pl3  19  ARG19      -0.0865
     16  CZ        -2.0170 -155.9930   39.7940 C.cat  19  ARG19       0.5346
     17  NH1       -1.1740 -155.2060   40.4510 N.pl3  19  ARG19       0.1354
     18  NH2       -3.2220 -155.5400   39.4780 N.pl3  19  ARG19       0.1354
     19  N          0.6430 -162.3440   37.7970 N.am   20  SER20      -0.1938
     20  CA         1.9200 -162.5870   37.1270 C.3    20  SER20       0.2055
     21  C          2.2430 -161.4160   36.2040 C.2    20  SER20       0.2644
     22  O          1.4300 -161.0470   35.3540 O.2    20  SER20      -0.2714
     23  CB         1.8730 -163.8950   36.3360 C.3    20  SER20       0.2130
     24  OG         3.1060 -164.1510   35.6870 O.3    20  SER20      -0.2179
     25  N          3.4290 -160.8340   36.3760 N.am   21  THR21      -0.1936
     26  CA         3.8070 -159.6170   35.6520 C.3    21  THR21       0.2028
     27  C          5.0920 -159.7510   34.8370 C.2    21  THR21       0.2642
     28  O          5.9630 -160.5660   35.1510 O.2    21  THR21      -0.2714
     29  CB         3.9590 -158.4090   36.6050 C.3    21  THR21       0.1808
     30  OG1        4.8040 -158.7640   37.7060 O.3    21  THR21      -0.2208
     31  CG2        2.6040 -157.9530   37.1320 C.3    21  THR21       0.0379
     32  N          5.1860 -158.9390   33.7860 N.am   22  GLN22      -0.1976
     33  CA         6.4110 -158.7760   33.0100 C.3    22  GLN22       0.1601
     34  C          6.7070 -157.2810   32.8930 C.2    22  GLN22       0.2287
     35  O          6.2210 -156.6050   31.9810 O.2    22  GLN22      -0.2864
     36  CB         6.2730 -159.4240   31.6290 C.3    22  GLN22       0.0394
     37  CG         7.5780 -159.5150   30.8470 C.3    22  GLN22       0.0908
     38  CD         7.3930 -160.0530   29.4400 C.2    22  GLN22       0.2608
     39  OE1        8.0930 -160.9760   29.0220 O.2    22  GLN22      -0.2717
     40  NE2        6.4500 -159.4780   28.6990 N.am   22  GLN22      -0.0878
     41  N          0.8480 -160.0320   32.9190 N.3    27  ALA27      -0.1231
     42  CA         0.8290 -161.1450   31.9700 C.3    27  ALA27       0.1694
     43  C         -0.3480 -162.0840   32.2300 C.2    27  ALA27       0.2592
     44  O         -1.1330 -162.3680   31.3230 O.2    27  ALA27      -0.2718
     45  CB         2.1470 -161.9050   32.0100 C.3    27  ALA27       0.0304
     46  N         -0.4610 -162.5600   33.4690 N.am   28  ASP28      -0.1974
     47  CA        -1.5600 -163.4320   33.8730 C.3    28  ASP28       0.1709
     48  C         -2.2970 -162.8230   35.0620 C.2    28  ASP28       0.2293
     49  O         -1.6970 -162.5540   36.1070 O.2    28  ASP28      -0.2864
     50  CB        -1.0410 -164.8330   34.2200 C.3    28  ASP28       0.1436
     51  CG        -2.1240 -165.9050   34.1470 C.2    28  ASP28       0.3671
     52  OD1       -1.7640 -167.1010   34.1140 O.co2  28  ASP28      -0.2456
     53  OD2       -3.3280 -165.5660   34.1150 O.co2  28  ASP28      -0.2456
     54  N         -3.1110 -166.5490   37.7620 N.3    31  CYS31      -0.1221
     55  CA        -2.1780 -167.6690   37.6520 C.3    31  CYS31       0.1808
     56  C         -2.1300 -168.4860   38.9420 C.2    31  CYS31       0.2601
     57  O         -2.6780 -168.0760   39.9670 O.2    31  CYS31      -0.2717
     58  CB        -0.7770 -167.1670   37.2920 C.3    31  CYS31       0.0970
     59  SG        -0.0190 -166.1100   38.5450 S.3    31  CYS31      -0.0800
     60  N         -1.4730 -169.6420   38.8790 N.am   32  ALA32      -0.1965
     61  CA        -1.3140 -170.5100   40.0420 C.3    32  ALA32       0.1728
     62  C          0.1160 -170.4540   40.5720 C.2    32  ALA32       0.2616
     63  O          1.0680 -170.7830   39.8590 O.2    32  ALA32      -0.2715
     64  CB        -1.7080 -171.9400   39.6980 C.3    32  ALA32       0.0334
     65  N          0.2530 -170.0290   41.8250 N.am   33  LYS33      -0.1977
     66  CA         1.5600 -169.8960   42.4670 C.3    33  LYS33       0.1596
     67  C          1.7810 -170.9760   43.5250 C.2    33  LYS33       0.2287
     68  O          2.9130 -171.2230   43.9480 O.2    33  LYS33      -0.2864
     69  CB         1.7200 -168.4970   43.0670 C.3    33  LYS33       0.0298
     70  CG         1.6610 -167.3940   42.0240 C.3    33  LYS33       0.0038
     71  CD         1.6000 -166.0140   42.6500 C.3    33  LYS33       0.0206
     72  CE         1.4550 -164.9520   41.5720 C.3    33  LYS33       0.1093
     73  NZ         1.4750 -163.5670   42.1190 N.3    33  LYS33      -0.1314
     74  N          2.1350 -174.6680   44.2650 N.3    35  HIS35      -0.1241
     75  CA         2.5160 -175.8910   43.5590 C.3    35  HIS35       0.1621
     76  C          2.5360 -177.0650   44.4900 C.2    35  HIS35       0.2264
     77  O          2.6800 -176.9040   45.7030 O.2    35  HIS35      -0.2867
     78  CB         3.8830 -175.7350   42.8990 C.3    35  HIS35       0.0745
     79  CG         4.0950 -174.3960   42.2370 C.ar   35  HIS35       0.0817
     80  ND1        3.4180 -174.0160   41.1390 N.ar   35  HIS35      -0.2268
     81  CD2        4.9490 -173.3430   42.5580 C.ar   35  HIS35       0.1154
     82  CE1        3.8100 -172.7810   40.7770 C.ar   35  HIS35       0.1986
     83  NE2        4.7490 -172.3710   41.6450 N.ar   35  HIS35      -0.2212
     84  N          5.5610 -170.0500   45.0880 N.3    45  GLY45      -0.1210
     85  CA         6.6500 -169.5350   44.2560 C.3    45  GLY45       0.1956
     86  C          6.7840 -168.0240   44.2060 C.2    45  GLY45       0.2612
     87  O          5.7860 -167.2990   44.1910 O.2    45  GLY45      -0.2717
     88  N          8.0330 -167.5610   44.1810 N.am   46  ALA46      -0.1965
     89  CA         8.3610 -166.1420   44.0360 C.3    46  ALA46       0.1728
     90  C          9.6670 -165.9810   43.2610 C.2    46  ALA46       0.2617
     91  O         10.5820 -166.7940   43.3970 O.2    46  ALA46      -0.2715
     92  CB         8.4600 -165.4710   45.3970 C.3    46  ALA46       0.0334
     93  N          9.7500 -164.9270   42.4540 N.am   47  GLY47      -0.1940
     94  CA        10.9070 -164.7050   41.5890 C.3    47  GLY47       0.2014
     95  C         10.5800 -165.0740   40.1570 C.2    47  GLY47       0.2640
     96  O          9.4440 -164.9010   39.7160 O.2    47  GLY47      -0.2714
     97  N         11.5720 -165.5870   39.4320 N.am   48  THR48      -0.1936
     98  CA        11.3730 -166.0360   38.0530 C.3    48  THR48       0.2028
     99  C         10.3590 -167.1810   38.0270 C.2    48  THR48       0.2642
    100  O         10.6000 -168.2540   38.5870 O.2    48  THR48      -0.2714
    101  CB        12.7000 -166.4650   37.3910 C.3    48  THR48       0.1808
    102  OG1       13.7050 -165.4740   37.6400 O.3    48  THR48      -0.2208
    103  CG2       12.5240 -166.6290   35.8880 C.3    48  THR48       0.0379
    104  N          9.2240 -166.9280   37.3790 N.am   49  ALA49      -0.1963
    105  CA         8.0640 -167.8230   37.4140 C.3    49  ALA49       0.1728
    106  C          8.3110 -169.2060   36.8100 C.2    49  ALA49       0.2616
    107  O          7.8000 -170.2050   37.3210 O.2    49  ALA49      -0.2715
    108  CB         6.8680 -167.1580   36.7500 C.3    49  ALA49       0.0334
    109  N          9.0850 -169.2580   35.7270 N.am   50  ALA50      -0.1977
    110  CA         9.4260 -170.5250   35.0810 C.3    50  ALA50       0.1597
    111  C         10.4020 -171.3360   35.9270 C.2    50  ALA50       0.2287
    112  O         10.3820 -172.5670   35.8970 O.2    50  ALA50      -0.2864
    113  CB         9.9960 -170.2850   33.6930 C.3    50  ALA50       0.0319
    114  N         10.5960 -171.2090   39.3920 N.3    52  THR52      -0.1203
    115  CA         9.8560 -171.7120   40.5540 C.3    52  THR52       0.1994
    116  C          8.9580 -172.9040   40.2250 C.2    52  THR52       0.2617
    117  O          8.7180 -173.7550   41.0830 O.2    52  THR52      -0.2717
    118  CB         9.0070 -170.6090   41.2210 C.3    52  THR52       0.1784
    119  OG1        8.3510 -169.8280   40.2140 O.3    52  THR52      -0.2211
    120  CG2        9.8750 -169.7000   42.0670 C.3    52  THR52       0.0376
    121  N          8.4640 -172.9600   38.9890 N.am   53  GLU53      -0.1979
    122  CA         7.6450 -174.0840   38.5330 C.3    53  GLU53       0.1602
    123  C          8.4740 -175.3200   38.1950 C.2    53  GLU53       0.2287
    124  O          8.1260 -176.4330   38.5950 O.2    53  GLU53      -0.2864
    125  CB         6.7800 -173.6890   37.3330 C.3    53  GLU53       0.0415
    126  CG         5.3720 -173.2570   37.7060 C.3    53  GLU53       0.1163
    127  CD         4.4190 -173.2240   36.5250 C.2    53  GLU53       0.3649
    128  OE1        3.2210 -173.5140   36.7260 O.co2  53  GLU53      -0.2457
    129  OE2        4.8580 -172.9080   35.3970 O.co2  53  GLU53      -0.2457
    130  N          8.6560 -162.3080   48.3190 N.3   128  GLY128     -0.1210
    131  CA         8.1940 -161.5790   47.1360 C.3   128  GLY128      0.1956
    132  C          8.2600 -160.0680   47.2640 C.2   128  GLY128      0.2612
    133  O          8.8910 -159.5440   48.1830 O.2   128  GLY128     -0.2717
    134  N          7.6120 -159.3670   46.3350 N.am  129  SER129     -0.1952
    135  CA         7.5960 -157.9010   46.3380 C.3   129  SER129      0.1924
    136  C          6.6350 -157.3430   47.3850 C.2   129  SER129      0.2314
    137  O          6.8560 -156.2550   47.9210 O.2   129  SER129     -0.2863
    138  CB         7.2520 -157.3490   44.9510 C.3   129  SER129      0.2116
    139  OG         5.9740 -157.7830   44.5250 O.3   129  SER129     -0.2180
    140  N          3.1980 -155.1880   42.4310 N.3   168  GLY168     -0.1225
    141  CA         3.5930 -156.4760   41.8630 C.3   168  GLY168      0.1811
    142  C          2.6270 -157.6050   42.1780 C.2   168  GLY168      0.2280
    143  O          2.7270 -158.6910   41.6030 O.2   168  GLY168     -0.2866
@<TRIPOS>BOND
     1    40    38   am
     2    39    38    2
     3    38    37    1
     4    37    36    1
     5    44    43    2
     6    36    33    1
     7    42    45    1
     8    42    43    1
     9    42    41    1
    10    35    34    2
    11    43    46   am
    12    34    33    1
    13    33    32    1
    14    46    47    1
    15   113   110    1
    16    32    27   am
    17    47    50    1
    18    47    48    1
    19    52    51   ar
    20    53    51   ar
    21    51    50    1
    22    27    28    2
    23    27    26    1
    24    48    49    2
    25   110   109    1
    26   110   111    1
    27    22    21    2
    28   129   127   ar
    29    26    25    1
    30    26    29    1
    31    24    23    1
    32   109   106   am
    33   103   101    1
    34   112   111    2
    35    21    25   am
    36    21    20    1
    37    23    20    1
    38   127   128   ar
    39   127   126    1
    40    29    31    1
    41    29    30    1
    42   108   105    1
    43   106   107    2
    44   106   105    1
    45    20    19    1
    46    58    55    1
    47    58    59    1
    48   125   126    1
    49   125   122    1
    50   104   105    1
    51   104    99   am
    52   101   102    1
    53   101    98    1
    54    55    54    1
    55    55    56    1
    56    19    10   am
    57    99    98    1
    58    99   100    2
    59    98    97    1
    60   123   122    1
    61   123   124    2
    62   122   121    1
    63    60    56   am
    64    60    61    1
    65    56    57    2
    66   121   116   am
    67    10     9    1
    68    10    11    2
    69    13    14    1
    70    13    12    1
    71   114   115    1
    72    97    95   am
    73    15    14    1
    74    15    16    2
    75    18    16    1
    76     9    12    1
    77     9     8    1
    78    64    61    1
    79    96    95    2
    80    16    17    1
    81    63    62    2
    82    61    62    1
    83    95    94    1
    84   119   118    1
    85   116   115    1
    86   116   117    2
    87   115   118    1
    88    62    65   am
    89    82    80   ar
    90    82    83   ar
    91    80    79   ar
    92   118   120    1
    93    72    73    1
    94    72    71    1
    95    94    93    1
    96   143   142    2
    97    83    81   ar
    98    65    66    1
    99   141   142    1
   100   141   140    1
   101    70    71    1
   102    70    69    1
   103     6     5    1
   104    79    81   ar
   105    79    78    1
   106    93    90   am
   107    66    69    1
   108    66    67    1
   109    78    75    1
   110    90    91    2
   111    90    89    1
   112    67    68    2
   113    75    74    1
   114    75    76    1
   115     5     7    1
   116     5     2    1
   117    89    88    1
   118    89    92    1
   119    88    86   am
   120    87    86    2
   121    86    85    1
   122     1     2    1
   123    85    84    1
   124     2     3    1
   125    76    77    2
   126   139   138    1
   127   138   135    1
   128     3     4    2
   129   134   135    1
   130   134   132   am
   131   135   136    1
   132   131   132    1
   133   131   130    1
   134   132   133    2
   135   136   137    2
