@<TRIPOS>MOLECULE
tmp/4inuI00.pdb
 105 102 0 0 0
SMALL
GASTEIGER

@<TRIPOS>ATOM
      1  N         51.7980 -124.4210   33.2200 N.3    98  ARG98      -0.1245
      2  CA        52.0030 -125.6080   34.0570 C.3    98  ARG98       0.1563
      3  C         50.9500 -126.6920   33.8180 C.2    98  ARG98       0.2260
      4  O         51.2890 -127.8690   33.6780 O.2    98  ARG98      -0.2867
      5  CB        52.0580 -125.2190   35.5440 C.3    98  ARG98       0.0307
      6  CG        52.1020 -126.3800   36.5340 C.3    98  ARG98       0.0489
      7  CD        53.3520 -127.2380   36.3820 C.3    98  ARG98       0.2205
      8  NE        53.3690 -128.3550   37.3270 N.pl3  98  ARG98      -0.0865
      9  CZ        52.8070 -129.5430   37.1100 C.cat  98  ARG98       0.5346
     10  NH1       52.8820 -130.4870   38.0380 N.pl3  98  ARG98       0.1354
     11  NH2       52.1690 -129.7930   35.9730 N.pl3  98  ARG98       0.1354
     12  N         50.6850 -127.5400   29.1720 N.3   101  PRO101     -0.2116
     13  CA        52.0570 -127.3260   28.7080 C.3   101  PRO101      0.1372
     14  C         52.2810 -127.5000   27.2070 C.2   101  PRO101      0.2244
     15  O         51.5380 -128.2270   26.5430 O.2   101  PRO101     -0.2868
     16  CB        52.8490 -128.3830   29.4830 C.3   101  PRO101      0.0268
     17  CG        51.8780 -129.4910   29.7090 C.3   101  PRO101      0.0207
     18  CD        50.4940 -128.9000   29.7150 C.3   101  PRO101      0.0892
     19  N         69.1900 -127.7380   29.0780 N.3   122  GLY122     -0.1210
     20  CA        68.0290 -128.5060   28.6300 C.3   122  GLY122      0.1956
     21  C         66.8260 -128.3100   29.5340 C.2   122  GLY122      0.2612
     22  O         66.9750 -127.9650   30.7070 O.2   122  GLY122     -0.2717
     23  N         65.6330 -128.5290   28.9850 N.am  123  PHE123     -0.1962
     24  CA        64.3840 -128.3370   29.7260 C.3   123  PHE123      0.1771
     25  C         63.4140 -129.4920   29.5040 C.2   123  PHE123      0.2620
     26  O         63.4610 -130.1640   28.4710 O.2   123  PHE123     -0.2715
     27  CB        63.6880 -127.0340   29.3070 C.3   123  PHE123      0.0574
     28  CG        64.5950 -125.8370   29.2510 C.ar  123  PHE123     -0.0200
     29  CD1       64.7780 -125.0300   30.3690 C.ar  123  PHE123     -0.0042
     30  CD2       65.2520 -125.5040   28.0720 C.ar  123  PHE123     -0.0042
     31  CE1       65.6100 -123.9220   30.3120 C.ar  123  PHE123     -0.0003
     32  CE2       66.0860 -124.4010   28.0090 C.ar  123  PHE123     -0.0003
     33  CZ        66.2640 -123.6070   29.1300 C.ar  123  PHE123     -0.0000
     34  N         62.5370 -129.7170   30.4790 N.am  124  ASP124     -0.1957
     35  CA        61.3680 -130.5680   30.2740 C.3   124  ASP124      0.1840
     36  C         60.1920 -129.7020   29.8060 C.2   124  ASP124      0.2622
     37  O         60.3550 -128.4970   29.5900 O.2   124  ASP124     -0.2715
     38  CB        61.0260 -131.3760   31.5380 C.3   124  ASP124      0.1450
     39  CG        60.7390 -130.5010   32.7540 C.2   124  ASP124      0.3671
     40  OD1       60.5520 -131.0710   33.8490 O.co2 124  ASP124     -0.2456
     41  OD2       60.6970 -129.2590   32.6280 O.co2 124  ASP124     -0.2456
     42  N         59.0180 -130.3090   29.6560 N.am  125  LEU125     -0.1963
     43  CA        57.8460 -129.6110   29.1170 C.3   125  LEU125      0.1728
     44  C         57.3010 -128.4930   30.0200 C.2   125  LEU125      0.2616
     45  O         56.5970 -127.5990   29.5430 O.2   125  LEU125     -0.2715
     46  CB        56.7380 -130.6090   28.7350 C.3   125  LEU125      0.0311
     47  CG        55.8080 -131.2350   29.7840 C.3   125  LEU125      0.0022
     48  CD1       54.6610 -131.9550   29.0910 C.3   125  LEU125      0.0001
     49  CD2       56.5360 -132.1820   30.7270 C.3   125  LEU125      0.0001
     50  N         57.6310 -128.5410   31.3110 N.am  126  ILE126     -0.1977
     51  CA        57.1940 -127.5030   32.2570 C.3   126  ILE126      0.1596
     52  C         58.3230 -126.5880   32.7630 C.2   126  ILE126      0.2287
     53  O         58.1270 -125.8050   33.6960 O.2   126  ILE126     -0.2864
     54  CB        56.3620 -128.0760   33.4350 C.3   126  ILE126      0.0276
     55  CG1       57.0930 -129.2360   34.1240 C.3   126  ILE126      0.0022
     56  CG2       54.9730 -128.4820   32.9550 C.3   126  ILE126      0.0022
     57  CD1       56.5250 -129.6040   35.4810 C.3   126  ILE126      0.0001
     58  N         61.8080 -127.1920   33.8030 N.3   128  CYS128     -0.1221
     59  CA        62.8760 -127.5310   34.7450 C.3   128  CYS128      0.1808
     60  C         64.2270 -127.5140   34.0360 C.2   128  CYS128      0.2601
     61  O         64.4140 -128.1900   33.0220 O.2   128  CYS128     -0.2717
     62  CB        62.6320 -128.8950   35.3940 C.3   128  CYS128      0.0970
     63  SG        63.8970 -129.3710   36.5950 S.3   128  CYS128     -0.0800
     64  N         65.1620 -126.7390   34.5790 N.am  129  ILE129     -0.1965
     65  CA        66.4620 -126.5270   33.9450 C.3   129  ILE129      0.1727
     66  C         67.4370 -127.6720   34.2270 C.2   129  ILE129      0.2616
     67  O         67.6720 -128.0380   35.3810 O.2   129  ILE129     -0.2715
     68  CB        67.0920 -125.1760   34.3640 C.3   129  ILE129      0.0290
     69  CG1       66.1120 -124.0240   34.1090 C.3   129  ILE129      0.0022
     70  CG2       68.4030 -124.9350   33.6220 C.3   129  ILE129      0.0023
     71  CD1       66.4340 -122.7510   34.8640 C.3   129  ILE129      0.0001
     72  N         67.9830 -128.2330   33.1520 N.am  130  ASP130     -0.1971
     73  CA        69.0620 -129.2090   33.2230 C.3   130  ASP130      0.1709
     74  C         70.3140 -128.5740   32.6220 C.2   130  ASP130      0.2293
     75  O         70.4780 -128.5270   31.4000 O.2   130  ASP130     -0.2864
     76  CB        68.6750 -130.4960   32.4770 C.3   130  ASP130      0.1436
     77  CG        69.8000 -131.5310   32.4400 C.2   130  ASP130      0.3671
     78  OD1       69.7190 -132.4530   31.6000 O.co2 130  ASP130     -0.2456
     79  OD2       70.7590 -131.4360   33.2390 O.co2 130  ASP130     -0.2456
     80  N         73.7900 -132.0440   26.1070 N.3   136  ILE136     -0.1231
     81  CA        72.3430 -132.0100   26.3170 C.3   136  ILE136      0.1692
     82  C         71.6370 -132.6550   25.1240 C.2   136  ILE136      0.2591
     83  O         71.8670 -132.2700   23.9750 O.2   136  ILE136     -0.2718
     84  CB        71.8190 -130.5660   26.5360 C.3   136  ILE136      0.0266
     85  CG1       72.3590 -129.9700   27.8480 C.3   136  ILE136      0.0019
     86  CG2       70.2940 -130.5230   26.5090 C.3   136  ILE136      0.0020
     87  CD1       71.8290 -130.6140   29.1170 C.3   136  ILE136      0.0001
     88  N         70.7860 -133.6390   25.4070 N.am  137  VAL137     -0.1980
     89  CA        70.0360 -134.3450   24.3640 C.3   137  VAL137      0.1595
     90  C         68.5250 -134.1720   24.5380 C.2   137  VAL137      0.2287
     91  O         68.0400 -133.9640   25.6540 O.2   137  VAL137     -0.2864
     92  CB        70.4050 -135.8480   24.2960 C.3   137  VAL137      0.0276
     93  CG1       71.9000 -136.0270   24.0660 C.3   137  VAL137      0.0022
     94  CG2       69.9690 -136.5840   25.5550 C.3   137  VAL137      0.0022
     95  N         71.7310 -140.3640   24.3330 N.3   146  PHE146     -0.1241
     96  CA        72.4050 -140.4850   25.6260 C.3   146  PHE146      0.1605
     97  C         73.5370 -141.5090   25.5860 C.2   146  PHE146      0.2264
     98  O         74.6240 -141.2590   26.1080 O.2   146  PHE146     -0.2867
     99  CB        71.4150 -140.8460   26.7400 C.3   146  PHE146      0.0534
    100  CG        70.9360 -139.6660   27.5430 C.ar  146  PHE146     -0.0203
    101  CD1       71.8370 -138.7280   28.0420 C.ar  146  PHE146     -0.0042
    102  CD2       69.5840 -139.5070   27.8270 C.ar  146  PHE146     -0.0042
    103  CE1       71.3960 -137.6470   28.7900 C.ar  146  PHE146     -0.0003
    104  CE2       69.1370 -138.4290   28.5770 C.ar  146  PHE146     -0.0003
    105  CZ        70.0440 -137.4980   29.0600 C.ar  146  PHE146     -0.0000
@<TRIPOS>BOND
     1    83    82    2
     2    93    92    1
     3    92    89    1
     4    92    94    1
     5    95    96    1
     6    89    90    1
     7    89    88    1
     8    90    91    2
     9    82    88   am
    10    82    81    1
    11    97    96    1
    12    97    98    2
    13    96    99    1
    14    80    81    1
    15    81    84    1
    16    86    84    1
    17    84    85    1
    18    15    14    2
    19    99   100    1
    20    14    13    1
    21   100   102   ar
    22   100   101   ar
    23   102   104   ar
    24    85    87    1
    25    32    30   ar
    26    32    33   ar
    27   101   103   ar
    28    30    28   ar
    29    26    25    2
    30   104   105   ar
    31    20    19    1
    32    20    21    1
    33    13    12    1
    34    13    16    1
    35    46    43    1
    36    46    47    1
    37   103   105   ar
    38    23    21   am
    39    23    24    1
    40    48    47    1
    41    43    42    1
    42    43    44    1
    43    33    31   ar
    44    12    18    1
    45    28    27    1
    46    28    29   ar
    47    27    24    1
    48    16    17    1
    49    25    24    1
    50    25    34   am
    51    21    22    2
    52    45    44    2
    53    37    36    2
    54    42    36   am
    55    17    18    1
    56    47    49    1
    57    36    35    1
    58    44    50   am
    59    35    34    1
    60    35    38    1
    61    31    29   ar
    62    50    51    1
    63    75    74    2
    64    38    39    1
    65    78    77   ar
    66    51    52    1
    67    51    54    1
    68    77    76    1
    69    77    79   ar
    70    76    73    1
    71    74    73    1
    72    41    39   ar
    73    39    40   ar
    74    52    53    2
    75    56    54    1
    76    61    60    2
    77    72    73    1
    78    72    66   am
    79     1     2    1
    80    54    55    1
    81    70    68    1
    82     4     3    2
    83    58    59    1
    84     3     2    1
    85    65    66    1
    86    65    68    1
    87    65    64    1
    88    60    64   am
    89    60    59    1
    90     2     5    1
    91    69    68    1
    92    69    71    1
    93    55    57    1
    94    66    67    2
    95    59    62    1
    96    62    63    1
    97     5     6    1
    98    11     9    1
    99     7     6    1
   100     7     8    1
   101     9     8    2
   102     9    10    1
