@<TRIPOS>MOLECULE
tmp/4inuL00.pdb
 126 124 0 0 0
SMALL
GASTEIGER

@<TRIPOS>ATOM
      1  N         15.6950 -127.5090   27.0400 N.3   101  ARG101     -0.1245
      2  CA        16.0250 -128.4910   26.0030 C.3   101  ARG101      0.1563
      3  C         17.1250 -129.4590   26.4460 C.2   101  ARG101      0.2260
      4  O         17.0980 -130.6430   26.0980 O.2   101  ARG101     -0.2867
      5  CB        16.4200 -127.7690   24.7020 C.3   101  ARG101      0.0307
      6  CG        17.0810 -128.6210   23.6220 C.3   101  ARG101      0.0489
      7  CD        16.1480 -129.6770   23.0440 C.3   101  ARG101      0.2205
      8  NE        16.7890 -130.4390   21.9720 N.pl3 101  ARG101     -0.0865
      9  CZ        17.5880 -131.4880   22.1560 C.cat 101  ARG101      0.5346
     10  NH1       17.8640 -131.9240   23.3800 N.pl3 101  ARG101      0.1354
     11  NH2       18.1180 -132.1050   21.1090 N.pl3 101  ARG101      0.1354
     12  N         15.5430 -131.5830   30.1910 N.3   104  PRO104     -0.2116
     13  CA        14.1130 -131.6140   29.8510 C.3   104  PRO104      0.1372
     14  C         13.1610 -131.9190   31.0030 C.2   104  PRO104      0.2244
     15  O         13.5340 -132.6040   31.9570 O.2   104  PRO104     -0.2868
     16  CB        14.0210 -132.7340   28.7990 C.3   104  PRO104      0.0268
     17  CG        15.4190 -132.9670   28.3380 C.3   104  PRO104      0.0207
     18  CD        16.2680 -132.6860   29.5360 C.3   104  PRO104      0.0892
     19  N         10.6310 -134.1770   32.2700 N.3   106  TYR106     -0.1241
     20  CA        10.3760 -135.5860   31.9790 C.3   106  TYR106      0.1605
     21  C          8.8830 -135.9060   32.0690 C.2   106  TYR106      0.2264
     22  O          8.4590 -136.7590   32.8550 O.2   106  TYR106     -0.2867
     23  CB        11.1940 -136.4860   32.9110 C.3   106  TYR106      0.0534
     24  CG        11.5440 -137.8330   32.3150 C.ar  106  TYR106     -0.0201
     25  CD1       12.6870 -137.9930   31.5290 C.ar  106  TYR106     -0.0009
     26  CD2       10.7360 -138.9480   32.5370 C.ar  106  TYR106     -0.0009
     27  CE1       13.0120 -139.2240   30.9800 C.ar  106  TYR106      0.0417
     28  CE2       11.0520 -140.1830   31.9920 C.ar  106  TYR106      0.0417
     29  CZ        12.1900 -140.3160   31.2160 C.ar  106  TYR106      0.1957
     30  OH        12.5080 -141.5410   30.6740 O.3   106  TYR106     -0.2866
     31  N          4.9720 -136.0940   29.6450 N.3   108  HIS108     -0.1241
     32  CA         4.1440 -136.0090   28.4530 C.3   108  HIS108      0.1621
     33  C          2.9510 -135.1700   28.8010 C.2   108  HIS108      0.2264
     34  O          2.0780 -135.6000   29.5590 O.2   108  HIS108     -0.2867
     35  CB         3.7030 -137.3990   28.0080 C.3   108  HIS108      0.0745
     36  CG         3.0980 -137.4390   26.6210 C.ar  108  HIS108      0.0817
     37  ND1        2.3500 -136.4340   26.1240 N.ar  108  HIS108     -0.2268
     38  CD2        3.1370 -138.4250   25.6340 C.ar  108  HIS108      0.1154
     39  CE1        1.9450 -136.7510   24.8800 C.ar  108  HIS108      0.1986
     40  NE2        2.4250 -137.9710   24.5820 N.ar  108  HIS108     -0.2212
     41  N         -1.1960 -132.2010   22.1130 N.3   124  SER124     -0.1202
     42  CA        -0.2420 -133.0660   22.8080 C.3   124  SER124      0.2020
     43  C          1.1870 -132.5870   22.5750 C.2   124  SER124      0.2619
     44  O          1.5110 -132.0840   21.4980 O.2   124  SER124     -0.2717
     45  CB        -0.3920 -134.5180   22.3510 C.3   124  SER124      0.2103
     46  OG        -0.1060 -134.6580   20.9710 O.3   124  SER124     -0.2182
     47  N          2.0370 -132.7570   23.5850 N.am  125  PHE125     -0.1961
     48  CA         3.3980 -132.2260   23.5460 C.3   125  PHE125      0.1771
     49  C          4.4730 -133.2940   23.7210 C.2   125  PHE125      0.2620
     50  O          4.2510 -134.3270   24.3570 O.2   125  PHE125     -0.2715
     51  CB         3.5860 -131.1520   24.6220 C.3   125  PHE125      0.0574
     52  CG         2.6850 -129.9600   24.4660 C.ar  125  PHE125     -0.0200
     53  CD1        1.3880 -129.9760   24.9720 C.ar  125  PHE125     -0.0042
     54  CD2        3.1410 -128.8100   23.8350 C.ar  125  PHE125     -0.0042
     55  CE1        0.5580 -128.8750   24.8350 C.ar  125  PHE125     -0.0003
     56  CE2        2.3150 -127.7050   23.6940 C.ar  125  PHE125     -0.0003
     57  CZ         1.0230 -127.7380   24.1950 C.ar  125  PHE125     -0.0000
     58  N          5.6390 -133.0180   23.1440 N.am  126  ASP126     -0.1958
     59  CA         6.8440 -133.8090   23.3500 C.3   126  ASP126      0.1825
     60  C          7.4880 -133.3530   24.6610 C.2   126  ASP126      0.2464
     61  O          7.2550 -132.2210   25.0940 O.2   126  ASP126     -0.2730
     62  CB         7.8090 -133.5630   22.1890 C.3   126  ASP126      0.1450
     63  CG         8.5710 -134.8060   21.7750 C.2   126  ASP126      0.3671
     64  OD1        9.7320 -134.6670   21.3370 O.co2 126  ASP126     -0.2456
     65  OD2        8.0140 -135.9190   21.8750 O.co2 126  ASP126     -0.2456
     66  N          8.2910 -134.2250   25.3070 N.am  127  PRO127     -0.2715
     67  CA         9.0560 -133.7880   26.4810 C.3   127  PRO127      0.1536
     68  C          9.9880 -132.6030   26.2020 C.2   127  PRO127      0.2598
     69  O         10.4900 -131.9850   27.1410 O.2   127  PRO127     -0.2715
     70  CB         9.8740 -135.0270   26.8420 C.3   127  PRO127      0.0310
     71  CG         9.0330 -136.1650   26.3840 C.3   127  PRO127      0.0237
     72  CD         8.3620 -135.6890   25.1270 C.3   127  PRO127      0.0939
     73  N         10.2050 -132.2940   24.9250 N.am  128  VAL128     -0.1978
     74  CA        11.0540 -131.1660   24.5270 C.3   128  VAL128      0.1596
     75  C         10.3130 -130.0580   23.7600 C.2   128  VAL128      0.2287
     76  O         10.9090 -129.0360   23.4120 O.2   128  VAL128     -0.2864
     77  CB        12.3200 -131.6210   23.7590 C.3   128  VAL128      0.0276
     78  CG1       13.4460 -131.9390   24.7310 C.3   128  VAL128      0.0022
     79  CG2       12.0220 -132.8140   22.8630 C.3   128  VAL128      0.0022
     80  N          7.6610 -130.4900   21.0070 N.3   130  SER130     -0.1202
     81  CA         7.0180 -130.7480   19.7180 C.3   130  SER130      0.2020
     82  C          5.5210 -130.9940   19.9060 C.2   130  SER130      0.2619
     83  O          5.1180 -131.9830   20.5250 O.2   130  SER130     -0.2717
     84  CB         7.6780 -131.9340   19.0080 C.3   130  SER130      0.2103
     85  OG         7.0630 -132.1940   17.7590 O.3   130  SER130     -0.2182
     86  N          4.7040 -130.0850   19.3760 N.am  131  TYR131     -0.1961
     87  CA         3.2530 -130.1670   19.5420 C.3   131  TYR131      0.1771
     88  C          2.4830 -130.3040   18.2280 C.2   131  TYR131      0.2619
     89  O          2.9760 -129.9350   17.1590 O.2   131  TYR131     -0.2715
     90  CB         2.7230 -128.9870   20.3720 C.3   131  TYR131      0.0574
     91  CG         2.6490 -127.6550   19.6510 C.ar  131  TYR131     -0.0198
     92  CD1        1.4430 -127.1960   19.1190 C.ar  131  TYR131     -0.0009
     93  CD2        3.7760 -126.8450   19.5190 C.ar  131  TYR131     -0.0009
     94  CE1        1.3660 -125.9760   18.4640 C.ar  131  TYR131      0.0417
     95  CE2        3.7090 -125.6250   18.8640 C.ar  131  TYR131      0.0417
     96  CZ         2.5030 -125.1950   18.3400 C.ar  131  TYR131      0.1957
     97  OH         2.4340 -123.9840   17.6910 O.3   131  TYR131     -0.2866
     98  N          1.2680 -130.8380   18.3380 N.am  132  GLU132     -0.1977
     99  CA         0.3880 -131.0860   17.2010 C.3   132  GLU132      0.1602
    100  C         -1.0550 -131.1720   17.6950 C.2   132  GLU132      0.2287
    101  O         -1.3380 -131.8620   18.6790 O.2   132  GLU132     -0.2864
    102  CB         0.7850 -132.3960   16.5100 C.3   132  GLU132      0.0415
    103  CG        -0.1160 -132.8250   15.3600 C.3   132  GLU132      0.1163
    104  CD        -0.0800 -134.3240   15.1090 C.2   132  GLU132      0.3649
    105  OE1        0.9390 -134.9710   15.4340 O.co2 132  GLU132     -0.2457
    106  OE2       -1.0770 -134.8600   14.5830 O.co2 132  GLU132     -0.2457
    107  N         -4.6110 -132.5940   17.7390 N.3   134  GLU134     -0.1245
    108  CA        -5.1280 -133.9250   17.4400 C.3   134  GLU134      0.1567
    109  C         -6.5840 -134.0850   17.8630 C.2   134  GLU134      0.2260
    110  O         -7.1060 -133.2920   18.6520 O.2   134  GLU134     -0.2867
    111  CB        -4.2590 -134.9960   18.1080 C.3   134  GLU134      0.0388
    112  CG        -2.8970 -135.1870   17.4540 C.3   134  GLU134      0.1160
    113  CD        -1.9410 -136.0180   18.2910 C.2   134  GLU134      0.3649
    114  OE1       -0.7210 -135.9550   18.0260 O.co2 134  GLU134     -0.2457
    115  OE2       -2.4000 -136.7310   19.2110 O.co2 134  GLU134     -0.2457
    116  N         -5.8590 -138.1490   22.1210 N.3   137  ARG137     -0.1245
    117  CA        -4.5080 -138.5480   22.5240 C.3   137  ARG137      0.1563
    118  C         -4.4440 -139.0980   23.9500 C.2   137  ARG137      0.2260
    119  O         -4.9870 -138.5030   24.8840 O.2   137  ARG137     -0.2867
    120  CB        -3.5220 -137.3780   22.3520 C.3   137  ARG137      0.0307
    121  CG        -2.1280 -137.6000   22.9340 C.3   137  ARG137      0.0489
    122  CD        -1.3300 -138.6640   22.1930 C.3   137  ARG137      0.2205
    123  NE        -0.8400 -138.1950   20.8980 N.pl3 137  ARG137     -0.0865
    124  CZ        -0.0690 -138.9050   20.0790 C.cat 137  ARG137      0.5346
    125  NH1        0.3170 -140.1330   20.4090 N.pl3 137  ARG137      0.1354
    126  NH2        0.3220 -138.3850   18.9240 N.pl3 137  ARG137      0.1354
@<TRIPOS>BOND
     1   106   104   ar
     2   104   103    1
     3   104   105   ar
     4   103   102    1
     5   102    99    1
     6    89    88    2
     7    99   100    1
     8    99    98    1
     9   108   107    1
    10   108   109    1
    11   108   111    1
    12   112   111    1
    13   112   113    1
    14    97    96    1
    15   100   101    2
    16    85    84    1
    17   109   110    2
    18   114   113   ar
    19    88    98   am
    20    88    87    1
    21   113   115   ar
    22    96    94   ar
    23    96    95   ar
    24    94    92   ar
    25    95    93   ar
    26   126   124    1
    27    84    81    1
    28    92    91   ar
    29    86    87    1
    30    86    82   am
    31    93    91   ar
    32    87    90    1
    33    91    90    1
    34    81    82    1
    35    81    80    1
    36    82    83    2
    37   124   125    1
    38   124   123    2
    39   123   122    1
    40    46    45    1
    41    11     9    1
    42    64    63   ar
    43    44    43    2
    44    63    65   ar
    45    63    62    1
    46     8     9    2
    47     8     7    1
    48    41    42    1
    49   116   117    1
    50     9    10    1
    51    62    59    1
    52   122   121    1
    53    45    42    1
    54   120   117    1
    55   120   121    1
    56   117   118    1
    57    43    42    1
    58    43    47   am
    59    79    77    1
    60     7     6    1
    61    58    59    1
    62    58    49   am
    63    59    60    1
    64    76    75    2
    65    48    47    1
    66    48    49    1
    67    48    51    1
    68     6     5    1
    69    56    54   ar
    70    56    57   ar
    71    49    50    2
    72    77    74    1
    73    77    78    1
    74    75    74    1
    75    54    52   ar
    76   118   119    2
    77    57    55   ar
    78    52    51    1
    79    52    53   ar
    80    74    73    1
    81    40    39   ar
    82    40    38   ar
    83    60    61    2
    84    60    66   am
    85     5     2    1
    86    55    53   ar
    87    39    37   ar
    88    73    68   am
    89    72    66    1
    90    72    71    1
    91    66    67    1
    92    38    36   ar
    93     2     3    1
    94     2     1    1
    95     4     3    2
    96    37    36   ar
    97    68    67    1
    98    68    69    2
    99    71    70    1
   100    67    70    1
   101    36    35    1
   102    35    32    1
   103    17    16    1
   104    17    18    1
   105    32    33    1
   106    32    31    1
   107    16    13    1
   108    33    34    2
   109    18    12    1
   110    13    12    1
   111    13    14    1
   112    30    29    1
   113    27    29   ar
   114    27    25   ar
   115    14    15    2
   116    29    28   ar
   117    25    24   ar
   118    20    21    1
   119    20    19    1
   120    20    23    1
   121    28    26   ar
   122    21    22    2
   123    24    26   ar
   124    24    23    1
