@<TRIPOS>MOLECULE
tmp/4inuY00.pdb
 157 150 0 0 0
SMALL
GASTEIGER

@<TRIPOS>ATOM
      1  N         56.3800 -152.1490    7.6470 N.3     1  THR1       -0.1218
      2  CA        57.0230 -153.0890    6.6860 C.3     1  THR1        0.1862
      3  C         56.6220 -152.7210    5.2450 C.2     1  THR1        0.2287
      4  O         55.6080 -152.0530    5.0360 O.2     1  THR1       -0.2866
      5  CB        56.6980 -154.6000    6.9720 C.3     1  THR1        0.1770
      6  OG1       57.7360 -155.2160    7.7620 O.3     1  THR1       -0.2211
      7  CG2       56.5300 -155.4150    5.6920 C.3     1  THR1        0.0375
      8  N         63.6080 -153.7220    7.3900 N.3    19  ARG19      -0.1231
      9  CA        63.4800 -153.0240    8.6700 C.3    19  ARG19       0.1694
     10  C         62.4720 -153.6850    9.6120 C.2    19  ARG19       0.2592
     11  O         61.3070 -153.8830    9.2580 O.2    19  ARG19      -0.2718
     12  CB        63.1380 -151.5420    8.4540 C.3    19  ARG19       0.0321
     13  CG        63.0400 -150.7270    9.7380 C.3    19  ARG19       0.0489
     14  CD        62.8850 -149.2390    9.4640 C.3    19  ARG19       0.2205
     15  NE        64.1690 -148.5860    9.2100 N.pl3  19  ARG19      -0.0865
     16  CZ        64.3340 -147.2750    9.0450 C.cat  19  ARG19       0.5346
     17  NH1       63.2950 -146.4500    9.1030 N.pl3  19  ARG19       0.1354
     18  NH2       65.5460 -146.7860    8.8220 N.pl3  19  ARG19       0.1354
     19  N         62.9450 -154.0280   10.8080 N.am   20  ALA20      -0.1966
     20  CA        62.0990 -154.5530   11.8780 C.3    20  ALA20       0.1728
     21  C         62.0240 -153.5290   13.0060 C.2    20  ALA20       0.2617
     22  O         63.0490 -152.9910   13.4320 O.2    20  ALA20      -0.2715
     23  CB        62.6470 -155.8750   12.3910 C.3    20  ALA20       0.0334
     24  N         60.8110 -153.2610   13.4850 N.am   21  THR21      -0.1937
     25  CA        60.5900 -152.1990   14.4700 C.3    21  THR21       0.2028
     26  C         59.7630 -152.6280   15.6830 C.2    21  THR21       0.2642
     27  O         58.9630 -153.5630   15.6090 O.2    21  THR21      -0.2714
     28  CB        59.9220 -150.9590   13.8310 C.3    21  THR21       0.1808
     29  OG1       58.8020 -151.3680   13.0360 O.3    21  THR21      -0.2208
     30  CG2       60.9110 -150.1920   12.9590 C.3    21  THR21       0.0379
     31  N         59.9800 -151.9320   16.7970 N.am   22  ALA22      -0.1963
     32  CA        59.1760 -152.0850   18.0040 C.3    22  ALA22       0.1728
     33  C         58.7870 -150.6950   18.5100 C.2    22  ALA22       0.2616
     34  O         59.3850 -150.1690   19.4530 O.2    22  ALA22      -0.2715
     35  CB        59.9410 -152.8630   19.0640 C.3    22  ALA22       0.0334
     36  N         57.7830 -150.1070   17.8640 N.am   23  GLY23      -0.1955
     37  CA        57.3770 -148.7310   18.1340 C.3    23  GLY23       0.1869
     38  C         58.2340 -147.7640   17.3390 C.2    23  GLY23       0.2309
     39  O         58.3520 -147.8890   16.1190 O.2    23  GLY23      -0.2863
     40  N         61.4170 -147.5310   17.9870 N.3    25  TRP25      -0.1241
     41  CA        62.7050 -148.2140   17.9850 C.3    25  TRP25       0.1605
     42  C         62.8920 -149.0800   16.7720 C.2    25  TRP25       0.2264
     43  O         62.0620 -149.9440   16.4810 O.2    25  TRP25      -0.2867
     44  CB        62.8420 -149.0430   19.2600 C.3    25  TRP25       0.0550
     45  CG        64.0590 -149.9350   19.2960 C.ar   25  TRP25       0.0003
     46  CD1       64.0990 -151.3220   19.1750 C.ar   25  TRP25       0.0946
     47  CD2       65.4590 -149.5270   19.4660 C.ar   25  TRP25       0.0152
     48  NE1       65.3880 -151.7840   19.2580 N.ar   25  TRP25      -0.2442
     49  CE2       66.2530 -150.7620   19.4310 C.ar   25  TRP25       0.0810
     50  CE3       66.1120 -148.3100   19.6360 C.ar   25  TRP25       0.0012
     51  CZ2       67.6340 -150.7530   19.5640 C.ar   25  TRP25       0.0191
     52  CZ3       67.5050 -148.3140   19.7680 C.ar   25  TRP25       0.0001
     53  CH2       68.2460 -149.5070   19.7330 C.ar   25  TRP25       0.0015
     54  N         64.6520 -152.0380   15.4820 N.3    27  ALA27      -0.1231
     55  CA        65.2980 -153.2170   16.0560 C.3    27  ALA27       0.1694
     56  C         66.3940 -153.7830   15.1550 C.2    27  ALA27       0.2592
     57  O         67.4960 -154.0740   15.6220 O.2    27  ALA27      -0.2718
     58  CB        64.2640 -154.2860   16.3790 C.3    27  ALA27       0.0304
     59  N         66.0860 -153.9350   13.8680 N.am   28  SER28      -0.1952
     60  CA        67.0320 -154.4980   12.9070 C.3    28  SER28       0.1924
     61  C         66.8590 -153.9030   11.5120 C.2    28  SER28       0.2314
     62  O         65.7430 -153.5940   11.0900 O.2    28  SER28      -0.2863
     63  CB        66.8970 -156.0220   12.8540 C.3    28  SER28       0.2116
     64  OG        67.8540 -156.5930   11.9790 O.3    28  SER28      -0.2180
     65  N         67.1270 -157.6690    8.3280 N.3    31  VAL31      -0.1231
     66  CA        66.1730 -158.7870    8.3710 C.3    31  VAL31       0.1692
     67  C         65.8640 -159.3840    6.9930 C.2    31  VAL31       0.2592
     68  O         65.7190 -158.6570    6.0120 O.2    31  VAL31      -0.2718
     69  CB        64.8610 -158.3660    9.0780 C.3    31  VAL31       0.0266
     70  CG1       63.7140 -159.3040    8.7300 C.3    31  VAL31       0.0020
     71  CG2       65.0630 -158.3060   10.5840 C.3    31  VAL31       0.0020
     72  N         65.7690 -160.7120    6.9370 N.am   32  LYS32      -0.1966
     73  CA        65.3590 -161.4190    5.7230 C.3    32  LYS32       0.1728
     74  C         63.8410 -161.5890    5.6980 C.2    32  LYS32       0.2616
     75  O         63.2830 -162.3860    6.4580 O.2    32  LYS32      -0.2715
     76  CB        66.0500 -162.7870    5.6180 C.3    32  LYS32       0.0311
     77  CG        67.5530 -162.7360    5.3810 C.3    32  LYS32       0.0038
     78  CD        68.3310 -162.7000    6.6890 C.3    32  LYS32       0.0206
     79  CE        69.8190 -162.5090    6.4440 C.3    32  LYS32       0.1093
     80  NZ        70.5740 -162.3890    7.7220 N.3    32  LYS32      -0.1314
     81  N         63.1820 -160.8320    4.8240 N.am   33  LYS33      -0.1977
     82  CA        61.7190 -160.8410    4.7320 C.3    33  LYS33       0.1596
     83  C         61.1900 -161.7680    3.6350 C.2    33  LYS33       0.2287
     84  O         59.9780 -161.9100    3.4660 O.2    33  LYS33      -0.2864
     85  CB        61.1730 -159.4170    4.5660 C.3    33  LYS33       0.0298
     86  CG        61.3560 -158.5510    5.8020 C.3    33  LYS33       0.0038
     87  CD        60.6280 -157.2230    5.6910 C.3    33  LYS33       0.0206
     88  CE        61.0130 -156.3090    6.8430 C.3    33  LYS33       0.1093
     89  NZ        60.2450 -155.0350    6.8380 N.3    33  LYS33      -0.1314
     90  N         57.3800 -161.8870    4.2400 N.3    45  MET45      -0.1230
     91  CA        57.0490 -161.5260    5.6170 C.3    45  MET45       0.1702
     92  C         56.4340 -160.1320    5.7020 C.2    45  MET45       0.2592
     93  O         56.9420 -159.1870    5.0960 O.2    45  MET45      -0.2718
     94  CB        58.3070 -161.5640    6.4880 C.3    45  MET45       0.0401
     95  CG        58.6540 -162.9180    7.0860 C.3    45  MET45       0.0596
     96  SD        59.2730 -164.1290    5.9080 S.3    45  MET45      -0.1393
     97  CE        60.1130 -165.2590    7.0130 C.3    45  MET45       0.0692
     98  N         55.3450 -160.0130    6.4610 N.am   46  ALA46      -0.1966
     99  CA        54.7310 -158.7170    6.7720 C.3    46  ALA46       0.1728
    100  C         53.8220 -158.8270    7.9920 C.2    46  ALA46       0.2617
    101  O         52.9180 -159.6640    8.0300 O.2    46  ALA46      -0.2715
    102  CB        53.9600 -158.1730    5.5770 C.3    46  ALA46       0.0334
    103  N         54.0710 -157.9760    8.9850 N.am   47  GLY47      -0.1940
    104  CA        53.3010 -157.9780   10.2270 C.3    47  GLY47       0.2014
    105  C         54.1250 -158.4690   11.4000 C.2    47  GLY47       0.2639
    106  O         55.2150 -157.9520   11.6600 O.2    47  GLY47      -0.2714
    107  N         53.6000 -159.4670   12.1070 N.am   48  GLY48      -0.1939
    108  CA        54.2940 -160.0770   13.2390 C.3    48  GLY48       0.2014
    109  C         55.5390 -160.8170   12.7930 C.2    48  GLY48       0.2639
    110  O         55.4700 -161.7050   11.9410 O.2    48  GLY48      -0.2714
    111  N         56.6770 -160.4390   13.3730 N.am   49  ALA49      -0.1963
    112  CA        57.9810 -160.9910   13.0020 C.3    49  ALA49       0.1728
    113  C         58.0800 -162.4980   13.2330 C.2    49  ALA49       0.2616
    114  O         58.5650 -163.2300   12.3700 O.2    49  ALA49      -0.2715
    115  CB        59.0920 -160.2630   13.7440 C.3    49  ALA49       0.0334
    116  N         57.6140 -162.9510   14.3950 N.am   50  ALA50      -0.1977
    117  CA        57.6520 -164.3680   14.7470 C.3    50  ALA50       0.1597
    118  C         56.5600 -165.1660   14.0420 C.2    50  ALA50       0.2287
    119  O         56.7940 -166.2970   13.6190 O.2    50  ALA50      -0.2864
    120  CB        57.5580 -164.5480   16.2540 C.3    50  ALA50       0.0319
    121  N         57.7220 -165.6930   10.3470 N.3    53  GLN53      -0.1245
    122  CA        58.9230 -166.5280   10.2910 C.3    53  GLN53       0.1566
    123  C         58.6600 -167.9790   10.6970 C.2    53  GLN53       0.2260
    124  O         59.1170 -168.9040   10.0250 O.2    53  GLN53      -0.2867
    125  CB        60.0380 -165.9210   11.1490 C.3    53  GLN53       0.0367
    126  CG        61.3740 -166.6420   11.0520 C.3    53  GLN53       0.0905
    127  CD        62.4910 -165.8940   11.7500 C.2    53  GLN53       0.2608
    128  OE1       62.9400 -164.8480   11.2820 O.2    53  GLN53      -0.2717
    129  NE2       62.9520 -166.4330   12.8710 N.am   53  GLN53      -0.0878
    130  N         49.0840 -162.0970   13.6170 N.3    96  SER96      -0.1217
    131  CA        49.1930 -160.9410   12.7340 C.3    96  SER96       0.1889
    132  C         50.2280 -161.1930   11.6420 C.2    96  SER96       0.2288
    133  O         51.4330 -161.0810   11.8750 O.2    96  SER96      -0.2866
    134  CB        49.5410 -159.6840   13.5380 C.3    96  SER96       0.2089
    135  OG        49.5320 -158.5300   12.7160 O.3    96  SER96      -0.2183
    136  N         52.0920 -154.4750    3.7760 N.3   130  GLY130     -0.1210
    137  CA        52.8720 -153.8040    4.8160 C.3   130  GLY130      0.1956
    138  C         52.3670 -152.4110    5.1480 C.2   130  GLY130      0.2612
    139  O         51.3520 -151.9650    4.6100 O.2   130  GLY130     -0.2717
    140  N         53.0810 -151.7250    6.0390 N.am  131  SER131     -0.1952
    141  CA        52.7320 -150.3590    6.4340 C.3   131  SER131      0.1924
    142  C         53.0880 -149.3400    5.3490 C.2   131  SER131      0.2314
    143  O         52.5980 -148.2080    5.3660 O.2   131  SER131     -0.2863
    144  CB        53.4070 -149.9870    7.7570 C.3   131  SER131      0.2116
    145  OG        54.8180 -149.9600    7.6270 O.3   131  SER131     -0.2180
    146  N         58.3210 -147.0900    9.0960 N.3   170  TYR170     -0.1241
    147  CA        58.5180 -148.4830    9.5030 C.3   170  TYR170      0.1605
    148  C         59.1810 -149.3420    8.4190 C.2   170  TYR170      0.2264
    149  O         59.2010 -150.5730    8.5160 O.2   170  TYR170     -0.2867
    150  CB        57.1910 -149.1130    9.9540 C.3   170  TYR170      0.0534
    151  CG        56.5490 -148.4500   11.1580 C.ar  170  TYR170     -0.0201
    152  CD1       57.3220 -147.9640   12.2140 C.ar  170  TYR170     -0.0009
    153  CD2       55.1620 -148.3310   11.2520 C.ar  170  TYR170     -0.0009
    154  CE1       56.7350 -147.3620   13.3170 C.ar  170  TYR170      0.0417
    155  CE2       54.5660 -147.7340   12.3540 C.ar  170  TYR170      0.0417
    156  CZ        55.3560 -147.2510   13.3820 C.ar  170  TYR170      0.1957
    157  OH        54.7730 -146.6560   14.4790 O.3   170  TYR170     -0.2866
@<TRIPOS>BOND
     1    84    83    2
     2    83    82    1
     3   136   137    1
     4    90    91    1
     5    85    82    1
     6    85    86    1
     7   139   138    2
     8    82    81    1
     9   137   138    1
    10    81    74   am
    11     4     3    2
    12    93    92    2
    13   138   140   am
    14     3     2    1
    15   142   143    2
    16   142   141    1
    17    77    76    1
    18    77    78    1
    19   102    99    1
    20    91    92    1
    21    91    94    1
    22    76    73    1
    23    87    86    1
    24    87    88    1
    25     7     5    1
    26    74    73    1
    27    74    75    2
    28    92    98   am
    29    73    72    1
    30    96    97    1
    31    96    95    1
    32    68    67    2
    33   140   141    1
    34   141   144    1
    35    79    78    1
    36    79    80    1
    37    98    99    1
    38    94    95    1
    39     2     5    1
    40     2     1    1
    41    99   100    1
    42    89    88    1
    43    72    67   am
    44     5     6    1
    45    67    66    1
    46     8     9    1
    47   145   144    1
    48   100   101    2
    49   100   103   am
    50    65    66    1
    51    66    69    1
    52   148   149    2
    53   148   147    1
    54    12     9    1
    55    12    13    1
    56     9    10    1
    57    70    69    1
    58    18    16    1
    59   103   104    1
    60    16    17    1
    61    16    15    2
    62    69    71    1
    63   146   147    1
    64    15    14    1
    65    11    10    2
    66    14    13    1
    67   147   150    1
    68    10    19   am
    69   150   151    1
    70   124   123    2
    71   104   105    1
    72   122   121    1
    73   122   123    1
    74   122   125    1
    75    19    20    1
    76   126   125    1
    77   126   127    1
    78    62    61    2
    79   151   153   ar
    80   151   152   ar
    81   153   155   ar
    82   128   127    2
    83   105   106    2
    84   105   107   am
    85    61    60    1
    86   132   133    2
    87   132   131    1
    88   127   129   am
    89    20    23    1
    90    20    21    1
    91   110   109    2
    92    64    63    1
    93   107   108    1
    94   152   154   ar
    95   155   156   ar
    96   114   113    2
    97   135   134    1
    98   131   134    1
    99   131   130    1
   100   109   108    1
   101   109   111   am
   102    63    60    1
   103    60    59    1
   104    30    28    1
   105   112   113    1
   106   112   111    1
   107   112   115    1
   108    21    22    2
   109    21    24   am
   110    29    28    1
   111   113   116   am
   112   154   156   ar
   113   156   157    1
   114    24    25    1
   115   119   118    2
   116    28    25    1
   117    59    56   am
   118   118   117    1
   119   116   117    1
   120    25    26    1
   121   117   120    1
   122    56    57    2
   123    56    55    1
   124    54    55    1
   125    27    26    2
   126    26    31   am
   127    55    58    1
   128    39    38    2
   129    43    42    2
   130    42    41    1
   131    31    32    1
   132    38    37    1
   133    36    37    1
   134    36    33   am
   135    41    40    1
   136    41    44    1
   137    32    33    1
   138    32    35    1
   139    33    34    2
   140    46    48   ar
   141    46    45   ar
   142    48    49   ar
   143    44    45    1
   144    45    47   ar
   145    49    47   ar
   146    49    51   ar
   147    47    50   ar
   148    51    53   ar
   149    50    52   ar
   150    53    52   ar
