@<TRIPOS>MOLECULE
tmp/4inxA00.pdb
 198 186 0 0 0
SMALL
GASTEIGER

@<TRIPOS>ATOM
      1  N         25.3690  -19.2490   -2.8840 N.3     5  MET5       -0.1245
      2  CA        25.8200  -18.1840   -3.8130 C.3     5  MET5        0.1570
      3  C         25.1180  -18.3030   -5.1970 C.2     5  MET5        0.2261
      4  O         24.7690  -17.3030   -5.8220 O.2     5  MET5       -0.2867
      5  CB        27.3510  -18.2260   -3.9720 C.3     5  MET5        0.0387
      6  CG        28.1150  -17.8070   -2.6890 C.3     5  MET5        0.0595
      7  SD        27.4840  -16.2870   -1.9630 S.3     5  MET5       -0.1393
      8  CE        27.7270  -15.1030   -3.2980 C.3     5  MET5        0.0692
      9  N         21.6090  -16.7560   -4.5590 N.3     8  LEU8       -0.1231
     10  CA        21.7250  -15.2990   -4.4850 C.3     8  LEU8        0.1693
     11  C         21.9640  -14.6880   -5.8490 C.2     8  LEU8        0.2592
     12  O         21.3900  -13.6660   -6.1710 O.2     8  LEU8       -0.2718
     13  CB        22.8890  -14.9370   -3.5790 C.3     8  LEU8        0.0284
     14  CG        22.6090  -14.6940   -2.0990 C.3     8  LEU8        0.0019
     15  CD1       21.2610  -14.9280   -1.5240 C.3     8  LEU8        0.0001
     16  CD2       23.8190  -14.8170   -1.1080 C.3     8  LEU8        0.0001
     17  N         22.8130  -15.3480   -6.6370 N.am    9  SER9       -0.1952
     18  CA        23.1520  -14.8600   -7.9590 C.3     9  SER9        0.1924
     19  C         21.9180  -14.8340   -8.8370 C.2     9  SER9        0.2314
     20  O         21.7270  -13.8800   -9.5780 O.2     9  SER9       -0.2863
     21  CB        24.2260  -15.7620   -8.6080 C.3     9  SER9        0.2116
     22  OG        25.4660  -15.6160   -7.9040 O.3     9  SER9       -0.2180
     23  N         19.7010  -12.0870   -7.7870 N.3    12  PHE12      -0.1241
     24  CA        20.2680  -10.7820   -8.0630 C.3    12  PHE12       0.1605
     25  C         20.1050  -10.4370   -9.5640 C.2    12  PHE12       0.2264
     26  O         19.8450   -9.2680   -9.9390 O.2    12  PHE12      -0.2867
     27  CB        21.7650  -10.8350   -7.7510 C.3    12  PHE12       0.0534
     28  CG        22.4450   -9.5220   -7.8560 C.ar   12  PHE12      -0.0203
     29  CD1       22.3820   -8.6070   -6.7860 C.ar   12  PHE12      -0.0042
     30  CD2       23.2340   -9.2070   -9.0020 C.ar   12  PHE12      -0.0042
     31  CE1       23.0620   -7.3300   -6.8630 C.ar   12  PHE12      -0.0003
     32  CE2       23.8980   -7.9450   -9.0790 C.ar   12  PHE12      -0.0003
     33  CZ        23.8220   -7.0300   -7.9860 C.ar   12  PHE12      -0.0000
     34  N         30.0240  -13.8030  -15.4080 N.3    36  PHE36      -0.1227
     35  CA        30.2450  -13.0480  -14.1540 C.3    36  PHE36       0.1736
     36  C         31.1120  -13.8180  -13.1520 C.2    36  PHE36       0.2595
     37  O         32.0530  -13.2510  -12.5300 O.2    36  PHE36      -0.2718
     38  CB        28.9530  -12.6130  -13.4870 C.3    36  PHE36       0.0547
     39  CG        29.1930  -11.7660  -12.2430 C.ar   36  PHE36      -0.0202
     40  CD1       29.4030  -10.3920  -12.3310 C.ar   36  PHE36      -0.0042
     41  CD2       29.3590  -12.3900  -11.0130 C.ar   36  PHE36      -0.0042
     42  CE1       29.7230   -9.6010  -11.1690 C.ar   36  PHE36      -0.0003
     43  CE2       29.6370  -11.6350   -9.8430 C.ar   36  PHE36      -0.0003
     44  CZ        29.8400  -10.2500   -9.9160 C.ar   36  PHE36      -0.0000
     45  N         30.8120  -15.0950  -12.9830 N.am   37  TRP37      -0.1976
     46  CA        31.5500  -15.9200  -12.0050 C.3    37  TRP37       0.1640
     47  C         32.7640  -16.7020  -12.5850 C.2    37  TRP37       0.2290
     48  O         33.3680  -17.5250  -11.8820 O.2    37  TRP37      -0.2864
     49  CB        30.5950  -16.8810  -11.3170 C.3    37  TRP37       0.0576
     50  CG        29.7430  -16.2070  -10.2700 C.ar   37  TRP37       0.0006
     51  CD1       28.3940  -16.0290  -10.3100 C.ar   37  TRP37       0.0946
     52  CD2       30.2000  -15.6000   -9.0340 C.ar   37  TRP37       0.0152
     53  NE1       27.9620  -15.3350   -9.1800 N.ar   37  TRP37      -0.2442
     54  CE2       29.0420  -15.0660   -8.3820 C.ar   37  TRP37       0.0810
     55  CE3       31.4670  -15.4270   -8.4350 C.ar   37  TRP37       0.0012
     56  CZ2       29.1130  -14.3980   -7.1560 C.ar   37  TRP37       0.0191
     57  CZ3       31.5490  -14.7670   -7.2420 C.ar   37  TRP37       0.0001
     58  CH2       30.3650  -14.2460   -6.6050 C.ar   37  TRP37       0.0015
     59  N         24.9310   -3.5270  -12.9260 N.3    52  ILE52      -0.1245
     60  CA        25.0760   -4.0810  -11.5770 C.3    52  ILE52       0.1561
     61  C         24.5580   -3.1200  -10.5180 C.2    52  ILE52       0.2260
     62  O         23.8930   -3.5290   -9.5700 O.2    52  ILE52      -0.2867
     63  CB        26.5420   -4.4970  -11.2820 C.3    52  ILE52       0.0252
     64  CG1       26.9480   -5.6340  -12.2610 C.3    52  ILE52       0.0019
     65  CG2       26.6820   -4.9330   -9.7820 C.3    52  ILE52       0.0019
     66  CD1       28.4320   -5.8630  -12.3590 C.3    52  ILE52       0.0001
     67  N         21.5010   -3.8380   -7.8260 N.3    56  SER56      -0.1217
     68  CA        21.6470   -3.6810   -6.3790 C.3    56  SER56       0.1889
     69  C         20.5160   -2.7690   -5.8690 C.2    56  SER56       0.2288
     70  O         19.9410   -3.0310   -4.7860 O.2    56  SER56      -0.2866
     71  CB        22.9950   -3.0260   -6.0210 C.3    56  SER56       0.2089
     72  OG        24.0740   -3.7860   -6.5450 O.3    56  SER56      -0.2183
     73  N         19.7280   -2.5420   -1.9220 N.3    61  MET61      -0.1230
     74  CA        21.0220   -2.7680   -1.2700 C.3    61  MET61       0.1702
     75  C         21.9540   -1.5710   -1.2730 C.2    61  MET61       0.2592
     76  O         23.0800   -1.6920   -0.8150 O.2    61  MET61      -0.2718
     77  CB        21.7070   -4.0250   -1.8460 C.3    61  MET61       0.0401
     78  CG        21.0130   -5.2750   -1.3390 C.3    61  MET61       0.0596
     79  SD        21.9050   -6.8240   -1.7170 S.3    61  MET61      -0.1393
     80  CE        22.1270   -6.5100   -3.3830 C.3    61  MET61       0.0692
     81  N         21.4780   -0.3970   -1.7280 N.am   62  VAL62      -0.1980
     82  CA        22.2780    0.8330   -1.6570 C.3    62  VAL62       0.1595
     83  C         21.5950    1.7610   -0.6740 C.2    62  VAL62       0.2287
     84  O         20.3930    2.0860   -0.8390 O.2    62  VAL62      -0.2864
     85  CB        22.3430    1.5200   -3.0380 C.3    62  VAL62       0.0276
     86  CG1       23.3720    2.7100   -3.0310 C.3    62  VAL62       0.0022
     87  CG2       22.7850    0.4810   -4.1010 C.3    62  VAL62       0.0022
     88  N         24.9900    5.9650   -0.9130 N.3    66  GLY66      -0.1210
     89  CA        25.6710    5.2710   -1.9600 C.3    66  GLY66       0.1956
     90  C         26.5020    4.0790   -1.5210 C.2    66  GLY66       0.2612
     91  O         27.2840    3.5830   -2.3140 O.2    66  GLY66      -0.2717
     92  N         26.3450    3.6270   -0.2710 N.am   67  LYS67      -0.1965
     93  CA        27.1310    2.5110    0.2610 C.3    67  LYS67       0.1728
     94  C         26.1620    1.3480    0.4770 C.2    67  LYS67       0.2616
     95  O         24.9420    1.5250    0.4760 O.2    67  LYS67      -0.2715
     96  CB        27.7520    2.8550    1.6420 C.3    67  LYS67       0.0311
     97  CG        28.8150    3.9700    1.6460 C.3    67  LYS67       0.0038
     98  CD        29.9430    3.5900    0.7200 C.3    67  LYS67       0.0206
     99  CE        31.1820    4.4680    0.9220 C.3    67  LYS67       0.1093
    100  NZ        31.3930    5.2350   -0.3430 N.3    67  LYS67      -0.1314
    101  N         26.7190    0.2010    0.8450 N.am   68  LEU68      -0.1977
    102  CA        25.8780   -0.9840    1.1060 C.3    68  LEU68       0.1596
    103  C         24.8760   -0.7180    2.2280 C.2    68  LEU68       0.2287
    104  O         25.2480   -0.1990    3.2970 O.2    68  LEU68      -0.2864
    105  CB        26.7600   -2.1840    1.4990 C.3    68  LEU68       0.0297
    106  CG        25.9730   -3.4830    1.6520 C.3    68  LEU68       0.0022
    107  CD1       25.5330   -3.9950    0.2670 C.3    68  LEU68       0.0001
    108  CD2       26.8380   -4.5360    2.3510 C.3    68  LEU68       0.0001
    109  N         20.8430   -6.0060    2.7060 N.3    73  ALA73      -0.1245
    110  CA        21.7300   -7.0150    2.1270 C.3    73  ALA73       0.1562
    111  C         21.5900   -8.3220    2.9700 C.2    73  ALA73       0.2260
    112  O         21.4550   -9.4130    2.4020 O.2    73  ALA73      -0.2867
    113  CB        23.1870   -6.5210    2.0620 C.3    73  ALA73       0.0290
    114  N         18.1070  -10.0140    2.1740 N.3    76  PHE76      -0.1241
    115  CA        18.2960  -10.7520    0.9070 C.3    76  PHE76       0.1605
    116  C         19.0690  -12.0430    1.0360 C.2    76  PHE76       0.2264
    117  O         18.5980  -13.0880    0.5570 O.2    76  PHE76      -0.2867
    118  CB        19.0110   -9.8420   -0.1100 C.3    76  PHE76       0.0534
    119  CG        19.2770  -10.5050   -1.4430 C.ar   76  PHE76      -0.0203
    120  CD1       18.1980  -10.9260   -2.2500 C.ar   76  PHE76      -0.0042
    121  CD2       20.5700  -10.6670   -1.9180 C.ar   76  PHE76      -0.0042
    122  CE1       18.4290  -11.5060   -3.5180 C.ar   76  PHE76      -0.0003
    123  CE2       20.8040  -11.2680   -3.1520 C.ar   76  PHE76      -0.0003
    124  CZ        19.7420  -11.6810   -3.9370 C.ar   76  PHE76      -0.0000
    125  N         29.1850  -12.2400    4.3670 N.3    90  LEU90      -0.1245
    126  CA        28.9950  -11.6130    3.0470 C.3    90  LEU90       0.1561
    127  C         28.9870  -10.1170    3.0890 C.2    90  LEU90       0.2260
    128  O         29.6270   -9.4630    2.2680 O.2    90  LEU90      -0.2867
    129  CB        27.6790  -12.0880    2.4290 C.3    90  LEU90       0.0270
    130  CG        27.6750  -13.5670    2.0560 C.3    90  LEU90       0.0019
    131  CD1       26.2730  -13.9480    1.4670 C.3    90  LEU90       0.0001
    132  CD2       28.8540  -13.9100    1.0890 C.3    90  LEU90       0.0001
    133  N         31.6670   -7.3240    1.3430 N.3    94  ILE94      -0.1245
    134  CA        31.3080   -6.1620    0.5350 C.3    94  ILE94       0.1561
    135  C         31.8400   -4.8970    1.1590 C.2    94  ILE94       0.2260
    136  O         32.3860   -4.0290    0.4610 O.2    94  ILE94      -0.2867
    137  CB        29.7790   -6.0810    0.2680 C.3    94  ILE94       0.0252
    138  CG1       29.3540   -7.2950   -0.5870 C.3    94  ILE94       0.0019
    139  CG2       29.4310   -4.7960   -0.5060 C.3    94  ILE94       0.0019
    140  CD1       27.8800   -7.5480   -0.5600 C.3    94  ILE94       0.0001
    141  N         34.4390   -2.1270   -0.3560 N.3    98  GLU98      -0.1245
    142  CA        34.1650   -0.6720   -0.4580 C.3    98  GLU98       0.1567
    143  C         35.3910    0.0800    0.0770 C.2    98  GLU98       0.2260
    144  O         35.7290    1.1730   -0.3900 O.2    98  GLU98      -0.2867
    145  CB        32.9280   -0.2690    0.3490 C.3    98  GLU98       0.0388
    146  CG        31.6430   -0.7460   -0.2700 C.3    98  GLU98       0.1160
    147  CD        30.4100   -0.4580    0.5910 C.2    98  GLU98       0.3649
    148  OE1       30.5130   -0.2530    1.8250 O.co2  98  GLU98      -0.2457
    149  OE2       29.3210   -0.4390    0.0230 O.co2  98  GLU98      -0.2457
    150  N         29.8560    6.2910  -10.2040 N.3   107  ARG107     -0.1245
    151  CA        29.2880    5.1990   -9.3980 C.3   107  ARG107      0.1563
    152  C         29.2040    3.8740  -10.1690 C.2   107  ARG107      0.2260
    153  O         29.1950    2.8030   -9.5700 O.2   107  ARG107     -0.2867
    154  CB        27.8700    5.5610   -8.9140 C.3   107  ARG107      0.0307
    155  CG        27.7930    6.5030   -7.6890 C.3   107  ARG107      0.0489
    156  CD        26.6550    5.9020   -6.7620 C.3   107  ARG107      0.2205
    157  NE        27.3730    4.9340   -6.0340 N.pl3 107  ARG107     -0.0865
    158  CZ        27.2030    3.6310   -5.7670 C.cat 107  ARG107      0.5346
    159  NH1       26.0480    2.9850   -5.6680 N.pl3 107  ARG107      0.1354
    160  NH2       28.2930    3.0390   -5.3060 N.pl3 107  ARG107      0.1354
    161  N         30.8720    0.6490   -8.4280 N.3   111  VAL111     -0.1245
    162  CA        30.1220   -0.6180   -8.2930 C.3   111  VAL111      0.1561
    163  C         30.8370   -1.7360   -9.0240 C.2   111  VAL111      0.2260
    164  O         30.9670   -2.8560   -8.4860 O.2   111  VAL111     -0.2867
    165  CB        28.6900   -0.4610   -8.7650 C.3   111  VAL111      0.0252
    166  CG1       27.9870   -1.8480   -8.8110 C.3   111  VAL111      0.0019
    167  CG2       27.9400    0.4480   -7.8290 C.3   111  VAL111      0.0019
    168  N         33.6970   -2.8050   -6.8410 N.3   114  ILE114     -0.1231
    169  CA        33.2800   -3.5230   -5.6220 C.3   114  ILE114      0.1692
    170  C         32.8660   -4.9550   -6.0280 C.2   114  ILE114      0.2591
    171  O         33.2920   -5.9310   -5.3810 O.2   114  ILE114     -0.2718
    172  CB        32.0860   -2.7850   -4.9170 C.3   114  ILE114      0.0266
    173  CG1       32.5680   -1.4790   -4.2280 C.3   114  ILE114      0.0019
    174  CG2       31.3870   -3.7150   -3.9010 C.3   114  ILE114      0.0020
    175  CD1       31.4070   -0.4740   -4.0430 C.3   114  ILE114      0.0001
    176  N         32.1350   -5.0670   -7.1490 N.am  115  ALA115     -0.1980
    177  CA        31.6620   -6.3800   -7.6480 C.3   115  ALA115      0.1597
    178  C         32.8680   -7.2740   -7.9830 C.2   115  ALA115      0.2287
    179  O         32.8560   -8.4860   -7.7090 O.2   115  ALA115     -0.2864
    180  CB        30.7830   -6.2020   -8.9180 C.3   115  ALA115      0.0319
    181  N         34.5550   -8.3380   -4.6960 N.3   118  PHE118     -0.1241
    182  CA        33.6750   -9.3030   -4.0200 C.3   118  PHE118      0.1605
    183  C         33.8070  -10.6870   -4.6870 C.2   118  PHE118      0.2264
    184  O         33.9550  -11.7210   -4.0070 O.2   118  PHE118     -0.2867
    185  CB        32.2280   -8.8350   -4.1530 C.3   118  PHE118      0.0534
    186  CG        31.2450   -9.7500   -3.4770 C.ar  118  PHE118     -0.0203
    187  CD1       31.2120   -9.8630   -2.0780 C.ar  118  PHE118     -0.0042
    188  CD2       30.3600  -10.5110   -4.2510 C.ar  118  PHE118     -0.0042
    189  CE1       30.2960  -10.7710   -1.4540 C.ar  118  PHE118     -0.0003
    190  CE2       29.4330  -11.3370   -3.6570 C.ar  118  PHE118     -0.0003
    191  CZ        29.4230  -11.4890   -2.2430 C.ar  118  PHE118     -0.0000
    192  N         24.3550  -15.9310  -12.7820 N.3   134  VAL134     -0.1245
    193  CA        23.6490  -14.6230  -12.5520 C.3   134  VAL134      0.1561
    194  C         22.5440  -14.4520  -13.6150 C.2   134  VAL134      0.2260
    195  O         21.4400  -13.9880  -13.3160 O.2   134  VAL134     -0.2867
    196  CB        24.5750  -13.3990  -12.5920 C.3   134  VAL134      0.0252
    197  CG1       23.7170  -12.1030  -12.3990 C.3   134  VAL134      0.0019
    198  CG2       25.5890  -13.4820  -11.4180 C.3   134  VAL134      0.0019
@<TRIPOS>BOND
     1    34    35    1
     2    35    38    1
     3    35    36    1
     4   194   195    2
     5   194   193    1
     6    38    39    1
     7    36    45   am
     8    36    37    2
     9    45    46    1
    10    59    60    1
    11   192   193    1
    12   196   193    1
    13   196   197    1
    14   196   198    1
    15    47    46    1
    16    47    48    2
    17    66    64    1
    18    40    39   ar
    19    40    42   ar
    20    64    63    1
    21    39    41   ar
    22    46    49    1
    23    60    63    1
    24    60    61    1
    25    49    50    1
    26    63    65    1
    27    42    44   ar
    28    41    43   ar
    29    61    62    2
    30    51    50   ar
    31    51    53   ar
    32    50    52   ar
    33   150   151    1
    34   152   153    2
    35   152   151    1
    36    26    25    2
    37    44    43   ar
    38    20    19    2
    39    25    24    1
    40   151   154    1
    41    53    54   ar
    42    32    30   ar
    43    32    33   ar
    44    52    55   ar
    45    52    54   ar
    46   163   164    2
    47   163   162    1
    48    30    28   ar
    49   180   177    1
    50   154   155    1
    51    19    18    1
    52   166   165    1
    53   165   162    1
    54   165   167    1
    55    21    18    1
    56    21    22    1
    57    55    57   ar
    58   161   162    1
    59    54    56   ar
    60    24    23    1
    61    24    27    1
    62    33    31   ar
    63   178   179    2
    64   178   177    1
    65    18    17    1
    66    28    27    1
    67    28    29   ar
    68    67    68    1
    69   155   156    1
    70   177   176    1
    71    57    58   ar
    72    56    58   ar
    73   176   170   am
    74    31    29   ar
    75   168   169    1
    76   156   157    1
    77    17    11   am
    78    72    71    1
    79    68    71    1
    80    68    69    1
    81    12    11    2
    82   157   158    2
    83   170   169    1
    84   170   171    2
    85    69    70    2
    86    11    10    1
    87     4     3    2
    88   158   159    1
    89   158   160    1
    90   169   172    1
    91     3     2    1
    92   172   173    1
    93   172   174    1
    94   181   182    1
    95   183   182    1
    96   183   184    2
    97     9    10    1
    98    10    13    1
    99   188   190   ar
   100   188   186   ar
   101   173   175    1
   102   185   182    1
   103   185   186    1
   104    87    85    1
   105     5     2    1
   106     5     6    1
   107   124   122   ar
   108   124   123   ar
   109     2     1    1
   110   190   191   ar
   111    13    14    1
   112   122   120   ar
   113   186   187   ar
   114    80    79    1
   115     8     7    1
   116   123   121   ar
   117    85    86    1
   118    85    82    1
   119     6     7    1
   120    91    90    2
   121   120   119   ar
   122   191   189   ar
   123    14    15    1
   124    14    16    1
   125   187   189   ar
   126    89    90    1
   127    89    88    1
   128    73    74    1
   129   121   119   ar
   130    77    78    1
   131    77    74    1
   132    81    82    1
   133    81    75   am
   134    79    78    1
   135    82    83    1
   136    90    92   am
   137   119   118    1
   138    75    74    1
   139    75    76    2
   140    84    83    2
   141   138   140    1
   142   138   137    1
   143   139   137    1
   144   142   141    1
   145   142   143    1
   146   142   145    1
   147   144   143    2
   148   100    99    1
   149    92    93    1
   150   146   145    1
   151   146   147    1
   152   118   115    1
   153   149   147   ar
   154    93    94    1
   155    93    96    1
   156   107   106    1
   157   137   134    1
   158   136   135    2
   159    95    94    2
   160    94   101   am
   161   134   135    1
   162   134   133    1
   163   117   116    2
   164   147   148   ar
   165    98    99    1
   166    98    97    1
   167   101   102    1
   168   115   116    1
   169   115   114    1
   170   132   130    1
   171   102   105    1
   172   102   103    1
   173   131   130    1
   174   105   106    1
   175    96    97    1
   176   106   108    1
   177   130   129    1
   178   113   110    1
   179   110   109    1
   180   110   111    1
   181   103   104    2
   182   128   127    2
   183   112   111    2
   184   129   126    1
   185   126   127    1
   186   126   125    1
