@<TRIPOS>MOLECULE
tmp/4inzA00.pdb
 114 110 0 0 0
SMALL
GASTEIGER

@<TRIPOS>ATOM
      1  N          2.3580   15.0220   47.3530 N.3    96  ASP96      -0.1225
      2  CA         2.5750   16.4670   47.1860 C.3    96  ASP96       0.1805
      3  C          1.5420   17.0590   46.2080 C.2    96  ASP96       0.2597
      4  O          0.3410   16.8630   46.4080 O.2    96  ASP96      -0.2718
      5  CB         4.0340   16.7330   46.7650 C.3    96  ASP96       0.1424
      6  CG         4.4230   18.2030   46.8400 C.2    96  ASP96       0.3668
      7  OD1        4.7960   18.6770   47.9430 O.co2  96  ASP96      -0.2456
      8  OD2        4.3740   18.8810   45.7950 O.co2  96  ASP96      -0.2456
      9  N          1.9750   17.7580   45.1550 N.am   97  TRP97      -0.1976
     10  CA         1.0120   18.2560   44.1650 C.3    97  TRP97       0.1640
     11  C          0.1960   17.1060   43.5770 C.2    97  TRP97       0.2290
     12  O         -0.9900   17.2600   43.2810 O.2    97  TRP97      -0.2864
     13  CB         1.6900   19.0610   43.0360 C.3    97  TRP97       0.0576
     14  CG         1.4230   20.5370   43.1350 C.ar   97  TRP97       0.0006
     15  CD1        2.3030   21.5090   43.5210 C.ar   97  TRP97       0.0946
     16  CD2        0.1820   21.2030   42.8740 C.ar   97  TRP97       0.0152
     17  NE1        1.6880   22.7400   43.5080 N.ar   97  TRP97      -0.2442
     18  CE2        0.3850   22.5790   43.1180 C.ar   97  TRP97       0.0810
     19  CE3       -1.0810   20.7700   42.4540 C.ar   97  TRP97       0.0012
     20  CZ2       -0.6310   23.5240   42.9610 C.ar   97  TRP97       0.0191
     21  CZ3       -2.0890   21.7140   42.2920 C.ar   97  TRP97       0.0001
     22  CH2       -1.8570   23.0720   42.5480 C.ar   97  TRP97       0.0015
     23  N         -2.6110   16.6350   45.9590 N.3   100  GLY100     -0.1225
     24  CA        -3.6150   17.6660   45.7600 C.3   100  GLY100      0.1811
     25  C         -4.5230   17.3010   44.5910 C.2   100  GLY100      0.2280
     26  O         -5.7530   17.3630   44.6870 O.2   100  GLY100     -0.2866
     27  N         -1.6080   17.5720   50.6630 N.3   122  PRO122     -0.2116
     28  CA        -2.8290   18.0980   51.2840 C.3   122  PRO122      0.1372
     29  C         -4.0940   17.2770   51.0100 C.2   122  PRO122      0.2244
     30  O         -4.4390   17.0290   49.8520 O.2   122  PRO122     -0.2868
     31  CB        -2.9550   19.4850   50.6550 C.3   122  PRO122      0.0268
     32  CG        -2.3790   19.2940   49.2610 C.3   122  PRO122      0.0207
     33  CD        -1.2470   18.2910   49.4290 C.3   122  PRO122      0.0892
     34  N         -6.5320   20.1870   54.9950 N.3   127  PHE127     -0.1241
     35  CA        -5.4940   21.1680   54.6920 C.3   127  PHE127      0.1605
     36  C         -5.9850   22.5970   54.8790 C.2   127  PHE127      0.2264
     37  O         -5.2730   23.4420   55.4250 O.2   127  PHE127     -0.2867
     38  CB        -4.9360   21.0030   53.2780 C.3   127  PHE127      0.0534
     39  CG        -3.8060   21.9410   52.9770 C.ar  127  PHE127     -0.0203
     40  CD1       -2.6230   21.8710   53.7020 C.ar  127  PHE127     -0.0042
     41  CD2       -3.9180   22.8950   51.9780 C.ar  127  PHE127     -0.0042
     42  CE1       -1.5740   22.7290   53.4310 C.ar  127  PHE127     -0.0003
     43  CE2       -2.8690   23.7560   51.7050 C.ar  127  PHE127     -0.0003
     44  CZ        -1.7000   23.6750   52.4360 C.ar  127  PHE127     -0.0000
     45  N          3.8460   26.8150   55.0880 N.3   141  SER141     -0.1217
     46  CA         3.3040   27.0080   53.7430 C.3   141  SER141      0.1889
     47  C          3.6240   28.3790   53.1450 C.2   141  SER141      0.2288
     48  O          3.1780   28.6900   52.0420 O.2   141  SER141     -0.2866
     49  CB         1.7850   26.7870   53.7320 C.3   141  SER141      0.2089
     50  OG         1.4500   25.4300   53.9960 O.3   141  SER141     -0.2183
     51  N          6.0550   29.5050   51.7230 N.3   143  TYR143     -0.1227
     52  CA         6.7580   29.4460   50.4460 C.3   143  TYR143      0.1736
     53  C          5.7840   29.5410   49.2730 C.2   143  TYR143      0.2595
     54  O          6.1480   30.0160   48.1980 O.2   143  TYR143     -0.2718
     55  CB         7.6080   28.1740   50.3420 C.3   143  TYR143      0.0548
     56  CG         6.7950   26.9090   50.2260 C.ar  143  TYR143     -0.0200
     57  CD1        6.3350   26.2520   51.3590 C.ar  143  TYR143     -0.0009
     58  CD2        6.4780   26.3720   48.9790 C.ar  143  TYR143     -0.0009
     59  CE1        5.5820   25.0970   51.2580 C.ar  143  TYR143      0.0417
     60  CE2        5.7250   25.2160   48.8690 C.ar  143  TYR143      0.0417
     61  CZ         5.2780   24.5860   50.0110 C.ar  143  TYR143      0.1957
     62  OH         4.5310   23.4370   49.9080 O.3   143  TYR143     -0.2866
     63  N          4.5490   29.0910   49.4770 N.am  144  ALA144     -0.1980
     64  CA         3.5450   29.1380   48.4140 C.3   144  ALA144      0.1597
     65  C          3.2120   30.5800   48.0350 C.2   144  ALA144      0.2287
     66  O          2.9720   30.8880   46.8650 O.2   144  ALA144     -0.2864
     67  CB         2.2930   28.3890   48.8250 C.3   144  ALA144      0.0319
     68  N          1.2690   26.5860   41.3830 N.3   202  TYR202     -0.1241
     69  CA         1.0980   27.3270   42.6330 C.3   202  TYR202      0.1605
     70  C          0.3860   28.6570   42.4220 C.2   202  TYR202      0.2264
     71  O         -0.2910   29.1700   43.3230 O.2   202  TYR202     -0.2867
     72  CB         2.4540   27.5900   43.3020 C.3   202  TYR202      0.0534
     73  CG         3.1350   26.3570   43.8500 C.ar  202  TYR202     -0.0201
     74  CD1        2.9730   25.9850   45.1780 C.ar  202  TYR202     -0.0009
     75  CD2        3.9480   25.5690   43.0410 C.ar  202  TYR202     -0.0009
     76  CE1        3.5940   24.8560   45.6860 C.ar  202  TYR202      0.0417
     77  CE2        4.5740   24.4410   43.5380 C.ar  202  TYR202      0.0417
     78  CZ         4.3940   24.0860   44.8630 C.ar  202  TYR202      0.1957
     79  OH         5.0120   22.9600   45.3640 O.3   202  TYR202     -0.2866
     80  N         -3.3580   28.7230   42.9790 N.3   205  LEU205     -0.1245
     81  CA        -3.8900   28.3830   44.2990 C.3   205  LEU205      0.1561
     82  C         -4.7380   29.5110   44.8790 C.2   205  LEU205      0.2260
     83  O         -4.3850   30.6870   44.7810 O.2   205  LEU205     -0.2867
     84  CB        -2.7630   28.0210   45.2650 C.3   205  LEU205      0.0270
     85  CG        -2.0130   26.7260   44.9480 C.3   205  LEU205      0.0019
     86  CD1       -0.7920   26.5780   45.8430 C.3   205  LEU205      0.0001
     87  CD2       -2.9470   25.5340   45.1080 C.3   205  LEU205      0.0001
     88  N         -5.6260   30.3400   48.2230 N.3   207  ILE207     -0.1245
     89  CA        -5.4290   30.1300   49.6530 C.3   207  ILE207      0.1561
     90  C         -4.8220   31.3560   50.3000 C.2   207  ILE207      0.2260
     91  O         -4.1780   31.2560   51.3420 O.2   207  ILE207     -0.2867
     92  CB        -4.4940   28.9270   49.9250 C.3   207  ILE207      0.0252
     93  CG1       -3.0980   29.1810   49.3400 C.3   207  ILE207      0.0019
     94  CG2       -5.1020   27.6470   49.3740 C.3   207  ILE207      0.0019
     95  CD1       -2.0740   28.1060   49.6880 C.3   207  ILE207      0.0001
     96  N         -9.5790   22.6470   49.4590 N.3   218  LEU218     -0.1245
     97  CA        -8.5020   23.3000   48.7170 C.3   218  LEU218      0.1561
     98  C         -8.9080   23.5970   47.2710 C.2   218  LEU218      0.2260
     99  O         -8.6200   24.6720   46.7360 O.2   218  LEU218     -0.2867
    100  CB        -7.2430   22.4330   48.7590 C.3   218  LEU218      0.0270
    101  CG        -6.0160   22.9240   47.9910 C.3   218  LEU218      0.0019
    102  CD1       -5.5810   24.2990   48.4800 C.3   218  LEU218      0.0001
    103  CD2       -4.8770   21.9170   48.1240 C.3   218  LEU218      0.0001
    104  N          4.3650   19.9120   55.4210 N.3   241  PHE241     -0.1241
    105  CA         3.0280   19.5210   55.8730 C.3   241  PHE241      0.1605
    106  C          3.0860   19.0030   57.3070 C.2   241  PHE241      0.2264
    107  O          3.7720   18.0240   57.5990 O.2   241  PHE241     -0.2867
    108  CB         2.4050   18.4790   54.9330 C.3   241  PHE241      0.0534
    109  CG         2.1700   18.9910   53.5420 C.ar  241  PHE241     -0.0203
    110  CD1        1.0170   19.6970   53.2310 C.ar  241  PHE241     -0.0042
    111  CD2        3.1090   18.7830   52.5460 C.ar  241  PHE241     -0.0042
    112  CE1        0.8080   20.1820   51.9490 C.ar  241  PHE241     -0.0003
    113  CE2        2.9010   19.2640   51.2630 C.ar  241  PHE241     -0.0003
    114  CZ         1.7490   19.9700   50.9650 C.ar  241  PHE241     -0.0000
@<TRIPOS>BOND
     1    68    69    1
     2    21    19   ar
     3    21    22   ar
     4    70    69    1
     5    70    71    2
     6    19    16   ar
     7    22    20   ar
     8    69    72    1
     9    16    18   ar
    10    16    14   ar
    11    20    18   ar
    12    80    81    1
    13    13    14    1
    14    13    10    1
    15    75    77   ar
    16    75    73   ar
    17    18    17   ar
    18    14    15   ar
    19    12    11    2
    20    72    73    1
    21    17    15   ar
    22    77    78   ar
    23    11    10    1
    24    73    74   ar
    25    10     9    1
    26    81    82    1
    27    81    84    1
    28    25    26    2
    29    25    24    1
    30    83    82    2
    31    78    79    1
    32    78    76   ar
    33    85    87    1
    34    85    84    1
    35    85    86    1
    36     9     3   am
    37    74    76   ar
    38    24    23    1
    39     8     6   ar
    40     3     4    2
    41     3     2    1
    42    99    98    2
    43     5     6    1
    44     5     2    1
    45     6     7   ar
    46    66    65    2
    47     2     1    1
    48    98    97    1
    49   101   103    1
    50   101   102    1
    51   101   100    1
    52    65    64    1
    53    54    53    2
    54    88    89    1
    55    64    67    1
    56    64    63    1
    57    97   100    1
    58    97    96    1
    59    60    58   ar
    60    60    61   ar
    61    58    56   ar
    62    32    33    1
    63    32    31    1
    64    53    63   am
    65    53    52    1
    66    93    95    1
    67    93    92    1
    68    94    92    1
    69    33    27    1
    70    89    92    1
    71    89    90    1
    72    30    29    2
    73    62    61    1
    74    61    59   ar
    75    56    55    1
    76    56    57   ar
    77    90    91    2
    78    55    52    1
    79    52    51    1
    80    31    28    1
    81    27    28    1
    82   114   113   ar
    83   114   112   ar
    84    29    28    1
    85    59    57   ar
    86   113   111   ar
    87    43    41   ar
    88    43    44   ar
    89   112   110   ar
    90    41    39   ar
    91    48    47    2
    92    44    42   ar
    93   111   109   ar
    94    39    38    1
    95    39    40   ar
    96    47    46    1
    97   110   109   ar
    98    38    35    1
    99    42    40   ar
   100   109   108    1
   101    49    46    1
   102    49    50    1
   103    46    45    1
   104    35    36    1
   105    35    34    1
   106    36    37    2
   107   108   105    1
   108   104   105    1
   109   105   106    1
   110   106   107    2
