@<TRIPOS>MOLECULE
tmp/4io0A00.pdb
 173 166 0 0 0
SMALL
GASTEIGER

@<TRIPOS>ATOM
      1  N         34.5820   -2.6820  -21.3010 N.3    98  ASP98      -0.1225
      2  CA        33.8350   -3.9160  -21.0550 C.3    98  ASP98       0.1805
      3  C         32.6540   -3.6230  -20.1390 C.2    98  ASP98       0.2597
      4  O         31.9210   -2.6580  -20.3500 O.2    98  ASP98      -0.2718
      5  CB        34.7470   -4.9690  -20.4020 C.3    98  ASP98       0.1424
      6  CG        34.2680   -6.3990  -20.6220 C.2    98  ASP98       0.3668
      7  OD1       34.6860   -7.0150  -21.6220 O.co2  98  ASP98      -0.2456
      8  OD2       33.4910   -6.9190  -19.7940 O.co2  98  ASP98      -0.2456
      9  N         32.4860   -4.4530  -19.1140 N.am   99  TRP99      -0.1976
     10  CA        31.4380   -4.2420  -18.1270 C.3    99  TRP99       0.1640
     11  C         31.5170   -2.8580  -17.5030 C.2    99  TRP99       0.2290
     12  O         30.5080   -2.2870  -17.1050 O.2    99  TRP99      -0.2864
     13  CB        31.5070   -5.3050  -17.0350 C.3    99  TRP99       0.0576
     14  CG        30.4400   -6.3360  -17.1610 C.ar   99  TRP99       0.0006
     15  CD1       30.5900   -7.6270  -17.5640 C.ar   99  TRP99       0.0946
     16  CD2       29.0430   -6.1570  -16.8950 C.ar   99  TRP99       0.0152
     17  NE1       29.3760   -8.2690  -17.5550 N.ar   99  TRP99      -0.2442
     18  CE2       28.4100   -7.3920  -17.1490 C.ar   99  TRP99       0.0810
     19  CE3       28.2650   -5.0690  -16.4650 C.ar   99  TRP99       0.0012
     20  CZ2       27.0390   -7.5740  -16.9900 C.ar   99  TRP99       0.0191
     21  CZ3       26.9010   -5.2530  -16.2980 C.ar   99  TRP99       0.0001
     22  CH2       26.3030   -6.4970  -16.5600 C.ar   99  TRP99       0.0015
     23  N         29.6070   -0.6390  -19.8220 N.3   102  GLY102     -0.1225
     24  CA        28.1840   -0.8230  -19.6040 C.3   102  GLY102      0.1811
     25  C         27.6980    0.0040  -18.4150 C.2   102  GLY102      0.2280
     26  O         26.6990    0.7200  -18.4990 O.2   102  GLY102     -0.2866
     27  N         29.5900   -2.2570  -24.3310 N.3   124  PRO124     -0.2116
     28  CA        28.2240   -1.9720  -24.7890 C.3   124  PRO124      0.1372
     29  C         27.7320   -0.5230  -24.6160 C.2   124  PRO124      0.2244
     30  O         27.7540    0.0530  -23.5180 O.2   124  PRO124     -0.2868
     31  CB        27.3800   -2.9260  -23.9430 C.3   124  PRO124      0.0268
     32  CG        28.1780   -3.1510  -22.7230 C.3   124  PRO124      0.0207
     33  CD        29.6070   -3.1130  -23.1320 C.3   124  PRO124      0.0892
     34  N         24.0770   -1.1760  -28.6490 N.3   129  ALA129     -0.1245
     35  CA        24.2270   -2.5570  -28.1950 C.3   129  ALA129      0.1562
     36  C         22.9320   -3.3590  -28.3440 C.2   129  ALA129      0.2260
     37  O         22.9390   -4.5050  -28.7900 O.2   129  ALA129     -0.2867
     38  CB        24.7180   -2.5970  -26.7410 C.3   129  ALA129      0.0290
     39  N         22.0060   -3.8190  -32.3190 N.3   132  GLU132     -0.1231
     40  CA        22.8120   -4.8100  -33.0160 C.3   132  GLU132      0.1699
     41  C         22.4840   -6.2160  -32.5460 C.2   132  GLU132      0.2592
     42  O         22.6850   -7.1910  -33.2720 O.2   132  GLU132     -0.2718
     43  CB        24.3010   -4.5390  -32.8050 C.3   132  GLU132      0.0402
     44  CG        24.7700   -3.1970  -33.3310 C.3   132  GLU132      0.1161
     45  CD        24.5360   -3.0230  -34.8280 C.2   132  GLU132      0.3649
     46  OE1       24.6190   -4.0220  -35.5840 O.co2 132  GLU132     -0.2457
     47  OE2       24.2660   -1.8750  -35.2490 O.co2 132  GLU132     -0.2457
     48  N         21.9930   -6.3280  -31.3200 N.am  133  LEU133     -0.1980
     49  CA        21.5620   -7.6240  -30.8250 C.3   133  LEU133      0.1596
     50  C         20.2470   -8.0250  -31.4740 C.2   133  LEU133      0.2287
     51  O         19.8270   -9.1730  -31.3760 O.2   133  LEU133     -0.2864
     52  CB        21.4260   -7.6280  -29.3040 C.3   133  LEU133      0.0297
     53  CG        22.6860   -7.9430  -28.5080 C.3   133  LEU133      0.0022
     54  CD1       22.3090   -8.3480  -27.0990 C.3   133  LEU133      0.0001
     55  CD2       23.4440   -9.0570  -29.1830 C.3   133  LEU133      0.0001
     56  N         26.5160  -10.2000  -34.5620 N.3   139  GLN139     -0.1245
     57  CA        26.5780   -9.7850  -33.1630 C.3   139  GLN139      0.1566
     58  C         25.9290  -10.8320  -32.2740 C.2   139  GLN139      0.2260
     59  O         26.2630  -10.9660  -31.0920 O.2   139  GLN139     -0.2867
     60  CB        25.8900   -8.4280  -32.9500 C.3   139  GLN139      0.0367
     61  CG        26.0940   -7.8540  -31.5490 C.3   139  GLN139      0.0905
     62  CD        27.5690   -7.7540  -31.1740 C.2   139  GLN139      0.2608
     63  OE1       28.3330   -7.0450  -31.8310 O.2   139  GLN139     -0.2717
     64  NE2       27.9780   -8.4750  -30.1250 N.am  139  GLN139     -0.0878
     65  N         27.6730  -12.5950  -29.3940 N.3   143  SER143     -0.1217
     66  CA        27.1850  -12.5190  -28.0270 C.3   143  SER143      0.1889
     67  C         26.6640  -13.8550  -27.4920 C.2   143  SER143      0.2288
     68  O         26.2160  -13.9320  -26.3470 O.2   143  SER143     -0.2866
     69  CB        26.1010  -11.4450  -27.9130 C.3   143  SER143      0.2089
     70  OG        26.6560  -10.1500  -28.0140 O.3   143  SER143     -0.2183
     71  N         27.9610  -16.3580  -26.3300 N.3   145  TYR145     -0.1227
     72  CA        28.5900  -16.7900  -25.0930 C.3   145  TYR145      0.1736
     73  C         27.8370  -16.2980  -23.8600 C.2   145  TYR145      0.2595
     74  O         28.1000  -16.7700  -22.7650 O.2   145  TYR145     -0.2718
     75  CB        30.0510  -16.3370  -25.0470 C.3   145  TYR145      0.0548
     76  CG        30.2520  -14.8680  -24.7320 C.ar  145  TYR145     -0.0200
     77  CD1       30.3470  -13.9210  -25.7430 C.ar  145  TYR145     -0.0009
     78  CD2       30.3590  -14.4340  -23.4210 C.ar  145  TYR145     -0.0009
     79  CE1       30.5460  -12.5780  -25.4510 C.ar  145  TYR145      0.0417
     80  CE2       30.5480  -13.1030  -23.1180 C.ar  145  TYR145      0.0417
     81  CZ        30.6410  -12.1720  -24.1320 C.ar  145  TYR145      0.1957
     82  OH        30.8360  -10.8360  -23.8060 O.3   145  TYR145     -0.2866
     83  N         26.9080  -15.3560  -24.0380 N.am  146  MET146     -0.1979
     84  CA        26.1410  -14.7940  -22.9190 C.3   146  MET146      0.1605
     85  C         25.0030  -15.6980  -22.5130 C.2   146  MET146      0.2287
     86  O         24.7250  -15.8790  -21.3220 O.2   146  MET146     -0.2864
     87  CB        25.5520  -13.4460  -23.2920 C.3   146  MET146      0.0413
     88  CG        26.5890  -12.4340  -23.6420 C.3   146  MET146      0.0598
     89  SD        26.5270  -11.0170  -22.5490 S.3   146  MET146     -0.1393
     90  CE        27.9400  -10.1600  -23.2100 C.3   146  MET146      0.0692
     91  N         26.2750  -11.0040  -15.3510 N.3   204  TYR204     -0.1241
     92  CA        25.5180  -11.4210  -16.5250 C.3   204  TYR204      0.1605
     93  C         24.1590  -12.0400  -16.1930 C.2   204  TYR204      0.2264
     94  O         23.2360  -11.9470  -16.9880 O.2   204  TYR204     -0.2867
     95  CB        26.3290  -12.4090  -17.3490 C.3   204  TYR204      0.0534
     96  CG        27.6760  -11.8980  -17.8180 C.ar  204  TYR204     -0.0201
     97  CD1       27.8600  -11.4810  -19.1380 C.ar  204  TYR204     -0.0009
     98  CD2       28.7760  -11.8540  -16.9520 C.ar  204  TYR204     -0.0009
     99  CE1       29.0910  -11.0280  -19.5890 C.ar  204  TYR204      0.0417
    100  CE2       30.0320  -11.4060  -17.4010 C.ar  204  TYR204      0.0417
    101  CZ        30.1770  -10.9920  -18.7240 C.ar  204  TYR204      0.1957
    102  OH        31.3950  -10.5340  -19.1910 O.3   204  TYR204     -0.2866
    103  N         21.3760   -9.7280  -16.6720 N.3   207  LEU207     -0.1245
    104  CA        21.1780   -9.1410  -17.9780 C.3   207  LEU207      0.1561
    105  C         19.8190   -9.5310  -18.5290 C.2   207  LEU207      0.2260
    106  O         19.4770  -10.7070  -18.5870 O.2   207  LEU207     -0.2867
    107  CB        22.2980   -9.5440  -18.9300 C.3   207  LEU207      0.0270
    108  CG        23.6130   -8.7930  -18.7220 C.3   207  LEU207      0.0019
    109  CD1       24.6750   -9.2450  -19.7110 C.3   207  LEU207      0.0001
    110  CD2       23.3720   -7.3300  -18.8670 C.3   207  LEU207      0.0001
    111  N         18.4050   -9.5950  -21.6430 N.3   209  ILE209     -0.1245
    112  CA        18.6400   -9.5480  -23.0760 C.3   209  ILE209      0.1561
    113  C         18.3290  -10.8940  -23.7060 C.2   209  ILE209      0.2260
    114  O         18.8790  -11.2480  -24.7460 O.2   209  ILE209     -0.2867
    115  CB        20.1190   -9.2120  -23.3920 C.3   209  ILE209      0.0252
    116  CG1       21.0480  -10.2860  -22.8220 C.3   209  ILE209      0.0019
    117  CG2       20.4960   -7.8430  -22.8630 C.3   209  ILE209      0.0019
    118  CD1       22.4420  -10.2630  -23.4220 C.3   209  ILE209      0.0001
    119  N         19.7710   -1.0080  -23.1850 N.3   220  LEU220     -0.1231
    120  CA        20.3180   -2.1930  -22.5250 C.3   220  LEU220      0.1693
    121  C         19.9810   -2.2550  -21.0250 C.2   220  LEU220      0.2592
    122  O         19.6110   -3.2950  -20.5010 O.2   220  LEU220     -0.2718
    123  CB        21.8310   -2.2480  -22.7690 C.3   220  LEU220      0.0284
    124  CG        22.6920   -3.3070  -22.0900 C.3   220  LEU220      0.0019
    125  CD1       22.1940   -4.7060  -22.4080 C.3   220  LEU220      0.0001
    126  CD2       24.1260   -3.1280  -22.5200 C.3   220  LEU220      0.0001
    127  N         20.1400   -1.1320  -20.3400 N.am  221  PHE221     -0.1976
    128  CA        19.6160   -0.9620  -18.9980 C.3   221  PHE221      0.1639
    129  C         18.6380    0.1960  -19.0760 C.2   221  PHE221      0.2290
    130  O         18.7370    1.0250  -19.9760 O.2   221  PHE221     -0.2864
    131  CB        20.7410   -0.6280  -18.0300 C.3   221  PHE221      0.0560
    132  CG        21.8830   -1.5760  -18.1010 C.ar  221  PHE221     -0.0200
    133  CD1       21.8680   -2.7490  -17.3700 C.ar  221  PHE221     -0.0042
    134  CD2       22.9760   -1.3050  -18.9150 C.ar  221  PHE221     -0.0042
    135  CE1       22.9350   -3.6400  -17.4470 C.ar  221  PHE221     -0.0003
    136  CE2       24.0540   -2.1890  -18.9940 C.ar  221  PHE221     -0.0003
    137  CZ        24.0330   -3.3550  -18.2650 C.ar  221  PHE221     -0.0000
    138  N         34.1330  -10.1020  -29.5310 N.3   242  THR242     -0.1203
    139  CA        32.8640   -9.9750  -28.7960 C.3   242  THR242      0.1994
    140  C         31.9700   -8.7960  -29.1810 C.2   242  THR242      0.2617
    141  O         30.7850   -8.7990  -28.8510 O.2   242  THR242     -0.2717
    142  CB        33.0800   -9.9390  -27.2730 C.3   242  THR242      0.1784
    143  OG1       33.9720   -8.8720  -26.9440 O.3   242  THR242     -0.2211
    144  CG2       33.6590  -11.2670  -26.7820 C.3   242  THR242      0.0376
    145  N         32.5340   -7.7980  -29.8650 N.am  243  PHE243     -0.1975
    146  CA        31.7660   -6.6340  -30.3270 C.3   243  PHE243      0.1639
    147  C         31.9900   -6.3440  -31.8020 C.2   243  PHE243      0.2290
    148  O         33.1040   -6.0530  -32.2260 O.2   243  PHE243     -0.2864
    149  CB        32.0800   -5.3840  -29.4890 C.3   243  PHE243      0.0560
    150  CG        31.4990   -5.4280  -28.1030 C.ar  243  PHE243     -0.0200
    151  CD1       30.2340   -4.9260  -27.8530 C.ar  243  PHE243     -0.0042
    152  CD2       32.2060   -6.0020  -27.0530 C.ar  243  PHE243     -0.0042
    153  CE1       29.6810   -4.9790  -26.5750 C.ar  243  PHE243     -0.0003
    154  CE2       31.6600   -6.0600  -25.7560 C.ar  243  PHE243     -0.0003
    155  CZ        30.3960   -5.5470  -25.5190 C.ar  243  PHE243     -0.0000
    156  N         28.3950   -1.6480  -33.9250 N.3   247  ASN247     -0.1240
    157  CA        28.0780   -1.0310  -32.6480 C.3   247  ASN247      0.1653
    158  C         28.3200    0.4900  -32.6270 C.2   247  ASN247      0.2266
    159  O         27.6810    1.2140  -31.8620 O.2   247  ASN247     -0.2867
    160  CB        28.8530   -1.7260  -31.5280 C.3   247  ASN247      0.1155
    161  CG        28.0630   -2.8430  -30.8830 C.2   247  ASN247      0.2627
    162  OD1       27.1170   -2.5920  -30.1320 O.2   247  ASN247     -0.2716
    163  ND2       28.4540   -4.0850  -31.1580 N.am  247  ASN247     -0.0877
    164  N         39.9190   -6.5530  -28.2660 N.3   268  HIS268     -0.1241
    165  CA        39.0410   -6.1930  -27.1410 C.3   268  HIS268      0.1621
    166  C         39.5690   -5.1240  -26.1690 C.2   268  HIS268      0.2264
    167  O         38.8470   -4.1900  -25.8130 O.2   268  HIS268     -0.2867
    168  CB        38.7250   -7.4570  -26.3460 C.3   268  HIS268      0.0745
    169  CG        37.6600   -7.2810  -25.3130 C.ar  268  HIS268      0.0817
    170  ND1       36.3470   -7.0080  -25.6360 N.ar  268  HIS268     -0.2268
    171  CD2       37.7060   -7.3650  -23.9630 C.ar  268  HIS268      0.1154
    172  CE1       35.6310   -6.9240  -24.5280 C.ar  268  HIS268      0.1986
    173  NE2       36.4330   -7.1340  -23.4980 N.ar  268  HIS268     -0.2212
@<TRIPOS>BOND
     1    46    45   ar
     2    47    45   ar
     3    45    44    1
     4    56    57    1
     5   156   157    1
     6    44    43    1
     7    42    41    2
     8    57    60    1
     9    57    58    1
    10    40    43    1
    11    40    41    1
    12    40    39    1
    13    60    61    1
    14   157   158    1
    15   157   160    1
    16   158   159    2
    17    41    48   am
    18    58    59    2
    19   148   147    2
    20    63    62    2
    21   147   146    1
    22    61    62    1
    23   160   161    1
    24    50    51    2
    25    50    49    1
    26    48    49    1
    27    62    64   am
    28   163   161   am
    29   161   162    2
    30    49    52    1
    31   146   145    1
    32   146   149    1
    33   145   140   am
    34   138   139    1
    35   149   150    1
    36    65    66    1
    37    52    53    1
    38    55    53    1
    39   140   141    2
    40   140   139    1
    41   139   142    1
    42    37    36    2
    43    34    35    1
    44    53    54    1
    45    36    35    1
    46   164   165    1
    47    35    38    1
    48   150   151   ar
    49   150   152   ar
    50    66    69    1
    51    66    67    1
    52    70    69    1
    53   151   153   ar
    54    67    68    2
    55   142   143    1
    56   142   144    1
    57   165   168    1
    58   165   166    1
    59   152   154   ar
    60   153   155   ar
    61   168   169    1
    62    71    72    1
    63   166   167    2
    64   154   155   ar
    65    77    79   ar
    66    77    76   ar
    67   170   169   ar
    68   170   172   ar
    69    79    81   ar
    70   169   171   ar
    71    72    75    1
    72    72    73    1
    73    75    76    1
    74    28    29    1
    75    28    27    1
    76    28    31    1
    77   114   113    2
    78    76    78   ar
    79    29    30    2
    80   172   173   ar
    81    27    33    1
    82    81    82    1
    83    81    80   ar
    84    83    73   am
    85    83    84    1
    86   171   173   ar
    87    31    32    1
    88    73    74    2
    89   113   112    1
    90    88    87    1
    91    88    89    1
    92   118   116    1
    93    78    80   ar
    94   115   112    1
    95   115   117    1
    96   115   116    1
    97    87    84    1
    98    90    89    1
    99   119   120    1
   100    33    32    1
   101   112   111    1
   102    84    85    1
   103   123   120    1
   104   123   124    1
   105   120   121    1
   106   126   124    1
   107    85    86    2
   108   125   124    1
   109     7     6   ar
   110     1     2    1
   111     2     5    1
   112     2     3    1
   113   121   122    2
   114   121   127   am
   115     6     5    1
   116     6     8   ar
   117     4     3    2
   118   127   128    1
   119     3     9   am
   120   130   129    2
   121    23    24    1
   122   109   108    1
   123    24    25    1
   124    99    97   ar
   125    99   101   ar
   126   102   101    1
   127    97    96   ar
   128     9    10    1
   129   129   128    1
   130   128   131    1
   131   136   134   ar
   132   136   137   ar
   133   107   108    1
   134   107   104    1
   135   134   132   ar
   136   110   108    1
   137   101   100   ar
   138   106   105    2
   139   105   104    1
   140    26    25    2
   141   137   135   ar
   142    10    11    1
   143    10    13    1
   144   132   131    1
   145   132   133   ar
   146   104   103    1
   147    96    95    1
   148    96    98   ar
   149    15    17   ar
   150    15    14   ar
   151    17    18   ar
   152    11    12    2
   153   135   133   ar
   154   100    98   ar
   155    95    92    1
   156    14    13    1
   157    14    16   ar
   158    18    20   ar
   159    18    16   ar
   160    20    22   ar
   161    94    93    2
   162    16    19   ar
   163    22    21   ar
   164    92    93    1
   165    92    91    1
   166    19    21   ar
