@<TRIPOS>MOLECULE
tmp/4io2A00.pdb
 137 130 0 0 0
SMALL
GASTEIGER

@<TRIPOS>ATOM
      1  N         -1.8990   53.5410  -11.1000 N.3    61  TYR61      -0.1241
      2  CA        -2.0780   52.3530  -10.2670 C.3    61  TYR61       0.1605
      3  C         -3.2640   52.5710   -9.3180 C.2    61  TYR61       0.2264
      4  O         -4.1330   51.6790   -9.2090 O.2    61  TYR61      -0.2867
      5  CB        -0.7480   51.9970   -9.5690 C.3    61  TYR61       0.0534
      6  CG         0.1330   51.2340  -10.5180 C.ar   61  TYR61      -0.0201
      7  CD1        0.8810   51.8940  -11.4830 C.ar   61  TYR61      -0.0009
      8  CD2        0.1700   49.8640  -10.4940 C.ar   61  TYR61      -0.0009
      9  CE1        1.6580   51.1870  -12.4100 C.ar   61  TYR61       0.0417
     10  CE2        0.9110   49.1240  -11.4170 C.ar   61  TYR61       0.0417
     11  CZ         1.6620   49.8090  -12.3680 C.ar   61  TYR61       0.1957
     12  OH         2.4400   49.1350  -13.2990 O.3    61  TYR61      -0.2866
     13  N          1.8270   44.4900  -11.0390 N.3    79  ASP79      -0.1225
     14  CA         2.7900   44.9880  -10.0450 C.3    79  ASP79       0.1805
     15  C          2.1130   46.0620   -9.2000 C.2    79  ASP79       0.2598
     16  O          2.4670   47.2280   -9.2680 O.2    79  ASP79      -0.2718
     17  CB         4.0710   45.5170  -10.7160 C.3    79  ASP79       0.1424
     18  CG         3.8480   46.5050  -11.8740 C.2    79  ASP79       0.3668
     19  OD1        2.7630   46.5900  -12.4540 O.co2  79  ASP79      -0.2456
     20  OD2        4.8450   47.2020  -12.2450 O.co2  79  ASP79      -0.2456
     21  N          1.1060   45.6210   -8.4220 N.am   80  ILE80      -0.1966
     22  CA         0.2300   46.5080   -7.6760 C.3    80  ILE80       0.1727
     23  C          0.5260   46.3600   -6.1960 C.2    80  ILE80       0.2616
     24  O          0.3300   45.2910   -5.5980 O.2    80  ILE80      -0.2715
     25  CB        -1.2500   46.1670   -7.9360 C.3    80  ILE80       0.0290
     26  CG1       -1.5850   46.1810   -9.4350 C.3    80  ILE80       0.0022
     27  CG2       -2.1440   47.1230   -7.2310 C.3    80  ILE80       0.0023
     28  CD1       -2.8930   45.4670   -9.7750 C.3    80  ILE80       0.0001
     29  N          1.0810   47.4250   -5.6090 N.am   81  THR81      -0.1951
     30  CA         1.4590   47.4040   -4.2200 C.3    81  THR81       0.1897
     31  C          0.2700   47.3830   -3.2660 C.2    81  THR81       0.2313
     32  O         -0.6760   48.1550   -3.4030 O.2    81  THR81      -0.2863
     33  CB         2.3720   48.5930   -3.9050 C.3    81  THR81       0.1794
     34  OG1        3.4780   48.5840   -4.8150 O.3    81  THR81      -0.2208
     35  CG2        2.9140   48.5560   -2.4620 C.3    81  THR81       0.0378
     36  N         -5.2440   51.6570    0.0480 N.3    86  ARG86      -0.1245
     37  CA        -5.9880   50.8400   -0.9270 C.3    86  ARG86       0.1563
     38  C         -6.8520   49.7760   -0.2550 C.2    86  ARG86       0.2260
     39  O         -7.9420   49.4790   -0.7220 O.2    86  ARG86      -0.2867
     40  CB        -5.0250   50.2160   -1.9540 C.3    86  ARG86       0.0307
     41  CG        -4.4280   51.2430   -2.9040 C.3    86  ARG86       0.0489
     42  CD        -3.2160   50.7070   -3.6530 C.3    86  ARG86       0.2205
     43  NE        -2.6330   51.7100   -4.5220 N.pl3  86  ARG86      -0.0865
     44  CZ        -1.5450   51.5340   -5.2600 C.cat  86  ARG86       0.5346
     45  NH1       -0.9400   50.3620   -5.2440 N.pl3  86  ARG86       0.1354
     46  NH2       -1.1130   52.5190   -6.0400 N.pl3  86  ARG86       0.1354
     47  N         11.2570   49.6140   -2.9860 N.3   101  MET101     -0.1245
     48  CA        11.5750   50.6650   -3.9570 C.3   101  MET101      0.1570
     49  C         13.0350   51.0170   -3.9080 C.2   101  MET101      0.2261
     50  O         13.7090   50.7870   -2.8990 O.2   101  MET101     -0.2867
     51  CB        10.7270   51.9420   -3.7660 C.3   101  MET101      0.0387
     52  CG         9.2510   51.6990   -3.9360 C.3   101  MET101      0.0595
     53  SD         8.3040   53.2410   -3.9640 S.3   101  MET101     -0.1393
     54  CE         8.2050   53.6270   -2.2390 C.3   101  MET101      0.0692
     55  N          5.7400   59.7650   -9.7390 N.3   130  ARG130     -0.1245
     56  CA         4.5530   59.3730  -10.5000 C.3   130  ARG130      0.1563
     57  C          3.2940   59.3900   -9.6360 C.2   130  ARG130      0.2260
     58  O          3.1580   58.6690   -8.6390 O.2   130  ARG130     -0.2867
     59  CB         4.7490   58.0000  -11.1320 C.3   130  ARG130      0.0307
     60  CG         5.7740   57.9850  -12.2470 C.3   130  ARG130      0.0489
     61  CD         6.1230   56.5580  -12.6460 C.3   130  ARG130      0.2205
     62  NE         6.9500   55.9360  -11.5960 N.pl3 130  ARG130     -0.0865
     63  CZ         7.0190   54.6620  -11.3070 C.cat 130  ARG130      0.5346
     64  NH1        6.2160   53.7900  -11.9420 N.pl3 130  ARG130      0.1354
     65  NH2        7.8810   54.2400  -10.4010 N.pl3 130  ARG130      0.1354
     66  N          0.9730   56.3720   -7.5440 N.3   133  THR133     -0.1203
     67  CA         1.7730   55.2410   -7.1330 C.3   133  THR133      0.1994
     68  C          1.9160   55.2530   -5.5940 C.2   133  THR133      0.2618
     69  O          1.7550   56.2840   -4.9160 O.2   133  THR133     -0.2717
     70  CB         3.1850   55.2040   -7.7780 C.3   133  THR133      0.1784
     71  OG1        3.9420   56.3520   -7.3650 O.3   133  THR133     -0.2211
     72  CG2        3.1120   55.1750   -9.2830 C.3   133  THR133      0.0376
     73  N          2.2780   54.1070   -5.0630 N.am  134  ALA134     -0.1965
     74  CA         2.5340   54.0100   -3.6390 C.3   134  ALA134      0.1728
     75  C          3.6880   54.9310   -3.2370 C.2   134  ALA134      0.2616
     76  O          3.7210   55.4100   -2.1160 O.2   134  ALA134     -0.2715
     77  CB         2.8070   52.5340   -3.2550 C.3   134  ALA134      0.0334
     78  N          4.6190   55.1700   -4.1530 N.am  135  GLY135     -0.1955
     79  CA         5.7410   56.0490   -3.9150 C.3   135  GLY135      0.1869
     80  C          5.3090   57.4710   -3.5640 C.2   135  GLY135      0.2309
     81  O          6.0000   58.1790   -2.8350 O.2   135  GLY135     -0.2863
     82  N          5.7740   56.2630  -16.5430 N.3   156  ARG156     -0.1245
     83  CA         7.1700   55.8710  -16.5670 C.3   156  ARG156      0.1563
     84  C          7.9620   56.6190  -17.6450 C.2   156  ARG156      0.2260
     85  O          9.0720   57.0780  -17.4080 O.2   156  ARG156     -0.2867
     86  CB         7.2960   54.3650  -16.7410 C.3   156  ARG156      0.0307
     87  CG         6.8260   53.6000  -15.5230 C.3   156  ARG156      0.0489
     88  CD         7.0890   52.1140  -15.6750 C.3   156  ARG156      0.2205
     89  NE         6.5760   51.3490  -14.5400 N.pl3 156  ARG156     -0.0865
     90  CZ         5.3490   50.8510  -14.4090 C.cat 156  ARG156      0.5346
     91  NH1        4.4440   50.9510  -15.3620 N.pl3 156  ARG156      0.1354
     92  NH2        5.0530   50.2310  -13.2860 N.pl3 156  ARG156      0.1354
     93  N         11.5200   57.4900   -7.7530 N.3   172  PHE172     -0.1227
     94  CA        11.4220   56.2170   -7.0370 C.3   172  PHE172      0.1736
     95  C         10.7980   55.2200   -8.0000 C.2   172  PHE172      0.2595
     96  O          9.9420   55.5830   -8.8260 O.2   172  PHE172     -0.2718
     97  CB        10.4370   56.3150   -5.8590 C.3   172  PHE172      0.0547
     98  CG        10.7980   57.2980   -4.7690 C.ar  172  PHE172     -0.0202
     99  CD1       12.0810   57.7780   -4.6240 C.ar  172  PHE172     -0.0042
    100  CD2        9.8210   57.7270   -3.8740 C.ar  172  PHE172     -0.0042
    101  CE1       12.3830   58.6730   -3.6170 C.ar  172  PHE172     -0.0003
    102  CE2       10.1210   58.5910   -2.8550 C.ar  172  PHE172     -0.0003
    103  CZ        11.4070   59.0740   -2.7370 C.ar  172  PHE172     -0.0000
    104  N         11.1950   53.9710   -7.8800 N.am  173  MET173     -0.1965
    105  CA        10.6690   52.9030   -8.7380 C.3   173  MET173      0.1736
    106  C         10.7830   51.5740   -8.0270 C.2   173  MET173      0.2616
    107  O         11.7340   51.3230   -7.3090 O.2   173  MET173     -0.2715
    108  CB        11.4080   52.9000  -10.0580 C.3   173  MET173      0.0427
    109  CG        10.8190   51.9660  -11.0660 C.3   173  MET173      0.0599
    110  SD        11.6750   52.1720  -12.6870 S.3   173  MET173     -0.1393
    111  CE        10.7000   51.0250  -13.6910 C.3   173  MET173      0.0692
    112  N          9.7600   50.7410   -8.1550 N.am  174  ASP174     -0.1971
    113  CA         9.8190   49.3850   -7.6260 C.3   174  ASP174      0.1709
    114  C         11.0720   48.6740   -8.1060 C.2   174  ASP174      0.2293
    115  O         11.4670   48.7950   -9.2630 O.2   174  ASP174     -0.2864
    116  CB         8.6420   48.5660   -8.1030 C.3   174  ASP174      0.1436
    117  CG         7.3080   48.9810   -7.5130 C.2   174  ASP174      0.3671
    118  OD1        7.2710   49.6030   -6.4080 O.co2 174  ASP174     -0.2456
    119  OD2        6.3110   48.5950   -8.1670 O.co2 174  ASP174     -0.2456
    120  N         11.0340   45.9740  -11.5800 N.3   177  THR177     -0.1218
    121  CA        10.9940   46.6700  -12.8620 C.3   177  THR177      0.1862
    122  C         12.1510   47.7010  -13.0030 C.2   177  THR177      0.2287
    123  O         12.6260   47.9310  -14.1200 O.2   177  THR177     -0.2866
    124  CB         9.6200   47.3480  -13.1000 C.3   177  THR177      0.1770
    125  OG1        9.2720   48.1760  -11.9640 O.3   177  THR177     -0.2211
    126  CG2        8.5360   46.2840  -13.3720 C.3   177  THR177      0.0375
    127  N          3.2100   42.7720   -3.5730 N.3   201  PHE201     -0.1241
    128  CA         2.2460   42.8770   -4.6530 C.3   201  PHE201      0.1605
    129  C          1.1620   41.8420   -4.3880 C.2   201  PHE201      0.2264
    130  O          1.4610   40.7010   -3.9960 O.2   201  PHE201     -0.2867
    131  CB         2.8420   42.5590   -6.0030 C.3   201  PHE201      0.0534
    132  CG         3.9020   43.5350   -6.4890 C.ar  201  PHE201     -0.0203
    133  CD1        3.9060   44.8700   -6.1350 C.ar  201  PHE201     -0.0042
    134  CD2        4.8810   43.1030   -7.3690 C.ar  201  PHE201     -0.0042
    135  CE1        4.8820   45.7350   -6.6180 C.ar  201  PHE201     -0.0003
    136  CE2        5.8520   43.9710   -7.8700 C.ar  201  PHE201     -0.0003
    137  CZ         5.8500   45.2830   -7.5000 C.ar  201  PHE201     -0.0000
@<TRIPOS>BOND
     1    84    85    2
     2    84    83    1
     3    86    83    1
     4    86    87    1
     5    83    82    1
     6    88    87    1
     7    88    89    1
     8    91    90    1
     9    89    90    2
    10    90    92    1
    11   123   122    2
    12   111   110    1
    13   126   124    1
    14    12    11    1
    15   124   121    1
    16   124   125    1
    17   122   121    1
    18   121   120    1
    19   110   109    1
    20    61    60    1
    21    61    62    1
    22    19    18   ar
    23     9    11   ar
    24     9     7   ar
    25    11    10   ar
    26    60    59    1
    27    20    18   ar
    28    64    63    1
    29    18    17    1
    30    62    63    2
    31     7     6   ar
    32    10     8   ar
    33    63    65    1
    34    59    56    1
    35     1     2    1
    36   109   108    1
    37    13    14    1
    38    17    14    1
    39     6     8   ar
    40     6     5    1
    41    56    55    1
    42    56    57    1
    43     2     5    1
    44     2     3    1
    45   108   105    1
    46    14    15    1
    47    28    26    1
    48    57    58    2
    49    26    25    1
    50     3     4    2
    51    72    70    1
    52    16    15    2
    53   115   114    2
    54    15    21   am
    55    96    95    2
    56   105   106    1
    57   105   104    1
    58    21    22    1
    59   119   117   ar
    60   112   106   am
    61   112   113    1
    62   114   113    1
    63   116   113    1
    64   116   117    1
    65   106   107    2
    66    95   104   am
    67    95    94    1
    68    25    22    1
    69    25    27    1
    70   136   137   ar
    71   136   134   ar
    72    70    71    1
    73    70    67    1
    74    93    94    1
    75    22    23    1
    76    66    67    1
    77   117   118   ar
    78   137   135   ar
    79   134   132   ar
    80    67    68    1
    81    94    97    1
    82   135   133   ar
    83   132   133   ar
    84   132   131    1
    85    23    29   am
    86    23    24    2
    87    46    44    1
    88   131   128    1
    89    97    98    1
    90    29    30    1
    91    68    73   am
    92    68    69    2
    93    44    45    1
    94    44    43    2
    95    73    74    1
    96    34    33    1
    97    98    99   ar
    98    98   100   ar
    99   128   129    1
   100   128   127    1
   101    99   101   ar
   102    43    42    1
   103   129   130    2
   104    30    33    1
   105    30    31    1
   106    78    79    1
   107    78    75   am
   108    53    52    1
   109    53    54    1
   110    48    49    1
   111    48    51    1
   112    48    47    1
   113    52    51    1
   114    79    80    1
   115    49    50    2
   116    33    35    1
   117   100   102   ar
   118    42    41    1
   119    74    77    1
   120    74    75    1
   121   101   103   ar
   122    80    81    2
   123    32    31    2
   124    75    76    2
   125    41    40    1
   126   102   103   ar
   127    40    37    1
   128    37    38    1
   129    37    36    1
   130    39    38    2
