@<TRIPOS>MOLECULE
tmp/4io3B00.pdb
 126 118 0 0 0
SMALL
GASTEIGER

@<TRIPOS>ATOM
      1  N          2.2660   24.1180   15.6070 N.3    61  TYR61      -0.1241
      2  CA         1.7630   25.2680   14.8450 C.3    61  TYR61       0.1605
      3  C          0.4880   24.8920   14.0890 C.2    61  TYR61       0.2264
      4  O         -0.4950   25.6320   14.0850 O.2    61  TYR61      -0.2867
      5  CB         2.8450   25.8750   13.9290 C.3    61  TYR61       0.0534
      6  CG         3.7660   26.7650   14.7230 C.ar   61  TYR61      -0.0201
      7  CD1        4.7260   26.2220   15.5690 C.ar   61  TYR61      -0.0009
      8  CD2        3.6480   28.1290   14.6740 C.ar   61  TYR61      -0.0009
      9  CE1        5.5490   27.0180   16.3320 C.ar   61  TYR61       0.0417
     10  CE2        4.4770   28.9530   15.4580 C.ar   61  TYR61       0.0417
     11  CZ         5.4160   28.3820   16.2760 C.ar   61  TYR61       0.1957
     12  OH         6.2270   29.1790   17.0660 O.3    61  TYR61      -0.2866
     13  N          4.8440   33.6420   14.8400 N.3    79  ASP79      -0.1225
     14  CA         5.6510   33.2200   13.7100 C.3    79  ASP79       0.1805
     15  C          4.9540   32.0580   12.9880 C.2    79  ASP79       0.2598
     16  O          5.4380   30.9260   12.9560 O.2    79  ASP79      -0.2718
     17  CB         7.0840   32.8480   14.1850 C.3    79  ASP79       0.1424
     18  CG         7.1360   31.8890   15.3700 C.2    79  ASP79       0.3668
     19  OD1        6.1640   31.7000   16.1520 O.co2  79  ASP79      -0.2456
     20  OD2        8.2310   31.2760   15.5320 O.co2  79  ASP79      -0.2456
     21  N          3.8060   32.3720   12.4180 N.am   80  ILE80      -0.1966
     22  CA         2.9110   31.3870   11.8260 C.3    80  ILE80       0.1727
     23  C          2.9180   31.5110   10.3110 C.2    80  ILE80       0.2616
     24  O          2.4730   32.5080    9.7480 O.2    80  ILE80      -0.2715
     25  CB         1.4740   31.5560   12.3540 C.3    80  ILE80       0.0290
     26  CG1        1.4440   31.4760   13.8920 C.3    80  ILE80       0.0022
     27  CG2        0.5480   30.5020   11.7200 C.3    80  ILE80       0.0023
     28  CD1        0.1040   31.8680   14.4890 C.3    80  ILE80       0.0001
     29  N          3.4110   30.4680    9.6470 N.am   81  THR81      -0.1951
     30  CA         3.6010   30.5150    8.2070 C.3    81  THR81       0.1897
     31  C          2.2830   30.3820    7.4490 C.2    81  THR81       0.2313
     32  O          1.4560   29.5280    7.7430 O.2    81  THR81      -0.2863
     33  CB         4.5910   29.4170    7.7540 C.3    81  THR81       0.1794
     34  OG1        5.8140   29.5790    8.4660 O.3    81  THR81      -0.2208
     35  CG2        4.8710   29.5040    6.2870 C.3    81  THR81       0.0378
     36  N         -3.2840   25.5220    5.1710 N.3    86  ARG86      -0.1245
     37  CA        -3.9090   26.2370    6.2680 C.3    86  ARG86       0.1563
     38  C         -4.9610   27.2020    5.7460 C.2    86  ARG86       0.2260
     39  O         -5.9990   27.3940    6.3700 O.2    86  ARG86      -0.2867
     40  CB        -2.8490   26.9900    7.0520 C.3    86  ARG86       0.0307
     41  CG        -1.9660   26.0520    7.8650 C.3    86  ARG86       0.0489
     42  CD        -0.7190   26.7360    8.4310 C.3    86  ARG86       0.2205
     43  NE         0.0850   25.7740    9.1920 N.pl3  86  ARG86      -0.0865
     44  CZ         1.2160   26.1020    9.7970 C.cat  86  ARG86       0.5346
     45  NH1        1.6690   27.3380    9.6790 N.pl3  86  ARG86       0.1354
     46  NH2        1.9020   25.2090   10.5130 N.pl3  86  ARG86       0.1354
     47  N         13.4170   29.5440    5.2920 N.3   101  MET101     -0.1245
     48  CA        13.9890   28.5820    6.2240 C.3   101  MET101      0.1570
     49  C         15.4770   28.4250    5.9820 C.2   101  MET101      0.2261
     50  O         15.9610   28.7400    4.9160 O.2   101  MET101     -0.2867
     51  CB        13.2910   27.2490    6.1280 C.3   101  MET101      0.0387
     52  CG        11.8570   27.2610    6.6510 C.3   101  MET101      0.0595
     53  SD        11.1130   25.6470    6.8660 S.3   101  MET101     -0.1393
     54  CE        10.7520   25.2470    5.1390 C.3   101  MET101      0.0692
     55  N         10.3260   19.0150   12.8930 N.3   130  ARG130     -0.1245
     56  CA         9.2630   19.3000   13.8410 C.3   130  ARG130      0.1563
     57  C          7.9030   19.0720   13.1990 C.2   130  ARG130      0.2260
     58  O          7.5220   19.7580   12.2520 O.2   130  ARG130     -0.2867
     59  CB         9.3990   20.7270   14.3920 C.3   130  ARG130      0.0307
     60  CG        10.4370   20.8570   15.4890 C.3   130  ARG130      0.0489
     61  CD        10.8030   22.3090   15.7920 C.3   130  ARG130      0.2205
     62  NE        11.3140   22.9740   14.5900 N.pl3 130  ARG130     -0.0865
     63  CZ        10.8990   24.1470   14.1230 C.cat 130  ARG130      0.5346
     64  NH1        9.9590   24.8560   14.7540 N.pl3 130  ARG130      0.1354
     65  NH2       11.4420   24.6280   13.0120 N.pl3 130  ARG130      0.1354
     66  N          4.6300   21.6350   11.5270 N.3   133  THR133     -0.1203
     67  CA         5.2230   22.8630   11.0280 C.3   133  THR133      0.1994
     68  C          5.2020   22.8930    9.5170 C.2   133  THR133      0.2618
     69  O          5.1460   21.8480    8.8400 O.2   133  THR133     -0.2717
     70  CB         6.6990   23.0990   11.4750 C.3   133  THR133      0.1784
     71  OG1        7.5700   22.0820   10.9300 O.3   133  THR133     -0.2211
     72  CG2        6.8070   23.1510   12.9510 C.3   133  THR133      0.0376
     73  N          5.2920   24.0880    8.9650 N.am  134  ALA134     -0.1965
     74  CA         5.3510   24.2430    7.5130 C.3   134  ALA134      0.1728
     75  C          6.5620   23.5140    6.9070 C.2   134  ALA134      0.2616
     76  O          6.4890   23.0310    5.7560 O.2   134  ALA134     -0.2715
     77  CB         5.4070   25.7400    7.1480 C.3   134  ALA134      0.0334
     78  N          7.6570   23.4520    7.6760 N.am  135  GLY135     -0.1955
     79  CA         8.8730   22.7670    7.2670 C.3   135  GLY135      0.1869
     80  C          8.6660   21.2830    7.0090 C.2   135  GLY135      0.2309
     81  O          9.3290   20.6910    6.1590 O.2   135  GLY135     -0.2863
     82  N         10.9490   22.6050   19.6450 N.3   156  ARG156     -0.1245
     83  CA        12.2730   23.1580   19.3640 C.3   156  ARG156      0.1563
     84  C         13.3040   22.6260   20.3540 C.2   156  ARG156      0.2260
     85  O         14.4360   22.3370   19.9850 O.2   156  ARG156     -0.2867
     86  CB        12.2670   24.6890   19.3940 C.3   156  ARG156      0.0307
     87  CG        11.5070   25.3100   18.2620 C.3   156  ARG156      0.0489
     88  CD        11.6780   26.8320   18.2250 C.3   156  ARG156      0.2205
     89  NE        10.8270   27.4140   17.1970 N.pl3 156  ARG156     -0.0865
     90  CZ         9.5870   27.8430   17.3930 C.cat 156  ARG156      0.5346
     91  NH1        9.0090   27.7580   18.5930 N.pl3 156  ARG156      0.1354
     92  NH2        8.9230   28.3740   16.3740 N.pl3 156  ARG156      0.1354
     93  N         14.7360   25.3440   10.2470 N.3   173  MET173     -0.1230
     94  CA        14.1790   26.3550   11.1220 C.3   173  MET173      0.1702
     95  C         13.8850   27.6150   10.3110 C.2   173  MET173      0.2592
     96  O         14.5740   27.9020    9.3330 O.2   173  MET173     -0.2718
     97  CB        15.2200   26.6540   12.1860 C.3   173  MET173      0.0401
     98  CG        14.6890   26.7200   13.5320 C.3   173  MET173      0.0596
     99  SD        15.9650   27.0070   14.7670 S.3   173  MET173     -0.1393
    100  CE        14.9930   28.1720   15.7050 C.3   173  MET173      0.0692
    101  N         12.8430   28.3590   10.6840 N.am  174  ASP174     -0.1974
    102  CA        12.6010   29.6650   10.1240 C.3   174  ASP174      0.1709
    103  C         13.8040   30.5550   10.3810 C.2   174  ASP174      0.2293
    104  O         14.4330   30.4610   11.4350 O.2   174  ASP174     -0.2864
    105  CB        11.3980   30.3490   10.7940 C.3   174  ASP174      0.1436
    106  CG        10.0740   29.6710   10.5000 C.2   174  ASP174      0.3671
    107  OD1        9.8720   29.1190    9.4010 O.co2 174  ASP174     -0.2456
    108  OD2        9.2090   29.6990   11.3960 O.co2 174  ASP174     -0.2456
    109  N         14.1140   33.1500   13.8430 N.3   177  THR177     -0.1218
    110  CA        14.4320   32.4340   15.0740 C.3   177  THR177      0.1862
    111  C         15.7080   31.5910   14.9400 C.2   177  THR177      0.2287
    112  O         16.4490   31.4410   15.9080 O.2   177  THR177     -0.2866
    113  CB        13.2440   31.5800   15.5350 C.3   177  THR177      0.1770
    114  OG1       12.7910   30.7810   14.4370 O.3   177  THR177     -0.2211
    115  CG2       12.0890   32.4700   15.9820 C.3   177  THR177      0.0375
    116  N          4.6950   35.3170    7.2690 N.3   201  PHE201     -0.1241
    117  CA         3.9480   35.1050    8.4810 C.3   201  PHE201      0.1605
    118  C          2.7240   36.0240    8.4380 C.2   201  PHE201      0.2264
    119  O          2.8480   37.1860    8.0300 O.2   201  PHE201     -0.2867
    120  CB         4.7480   35.5110    9.7190 C.3   201  PHE201      0.0534
    121  CG         5.9640   34.6590   10.0160 C.ar  201  PHE201     -0.0203
    122  CD1        6.0520   33.3200    9.6140 C.ar  201  PHE201     -0.0042
    123  CD2        7.0000   35.1950   10.7540 C.ar  201  PHE201     -0.0042
    124  CE1        7.1780   32.5700    9.8950 C.ar  201  PHE201     -0.0003
    125  CE2        8.1430   34.4310   11.0450 C.ar  201  PHE201     -0.0003
    126  CZ         8.2060   33.1180   10.6450 C.ar  201  PHE201     -0.0000
@<TRIPOS>BOND
     1    50    49    2
     2    54    53    1
     3    36    37    1
     4    47    48    1
     5    38    37    1
     6    38    39    2
     7    76    75    2
     8    49    48    1
     9    51    48    1
    10    51    52    1
    11    81    80    2
    12    37    40    1
    13    35    33    1
    14    52    53    1
    15    75    74    1
    16    75    78   am
    17    80    79    1
    18    40    41    1
    19    77    74    1
    20    79    78    1
    21   116   117    1
    22    31    32    2
    23    31    30    1
    24    74    73    1
    25    33    30    1
    26    33    34    1
    27    41    42    1
    28   119   118    2
    29    30    29    1
    30    42    43    1
    31   118   117    1
    32   117   120    1
    33    69    68    2
    34    73    68   am
    35    43    44    2
    36    96    95    2
    37   107   106   ar
    38    68    67    1
    39   122   124   ar
    40   122   121   ar
    41    29    23   am
    42    45    44    1
    43   120   121    1
    44    24    23    2
    45    44    46    1
    46   124   126   ar
    47   121   123   ar
    48   102   103    1
    49   102   101    1
    50   102   105    1
    51    93    94    1
    52    23    22    1
    53    95   101   am
    54    95    94    1
    55   103   104    2
    56   106   105    1
    57   106   108   ar
    58   126   125   ar
    59   123   125   ar
    60    71    70    1
    61    67    70    1
    62    67    66    1
    63    94    97    1
    64    70    72    1
    65    27    25    1
    66    22    25    1
    67    22    21    1
    68    97    98    1
    69    58    57    2
    70    25    26    1
    71    21    15   am
    72    55    56    1
    73    16    15    2
    74    15    14    1
    75    65    63    1
    76    57    56    1
    77    98    99    1
    78    14    17    1
    79    14    13    1
    80    56    59    1
    81   109   110    1
    82    26    28    1
    83     5     6    1
    84     5     2    1
    85     4     3    2
    86     3     2    1
    87    63    62    2
    88    63    64    1
    89    17    18    1
    90    59    60    1
    91   114   113    1
    92    62    61    1
    93     8     6   ar
    94     8    10   ar
    95     6     7   ar
    96    99   100    1
    97     2     1    1
    98   111   110    1
    99   111   112    2
   100   110   113    1
   101    18    20   ar
   102    18    19   ar
   103    10    11   ar
   104    60    61    1
   105   113   115    1
   106     7     9   ar
   107    11     9   ar
   108    11    12    1
   109    92    90    1
   110    89    90    2
   111    89    88    1
   112    90    91    1
   113    88    87    1
   114    87    86    1
   115    83    86    1
   116    83    82    1
   117    83    84    1
   118    85    84    2
