@<TRIPOS>MOLECULE
tmp/4io4B00.pdb
 103 95 0 0 0
SMALL
GASTEIGER

@<TRIPOS>ATOM
      1  N         -1.9620   47.4370   14.8540 N.3    62  TYR62      -0.1241
      2  CA        -1.4530   46.3050   14.0810 C.3    62  TYR62       0.1605
      3  C         -0.1960   46.7150   13.3210 C.2    62  TYR62       0.2264
      4  O          0.8040   45.9920   13.2750 O.2    62  TYR62      -0.2867
      5  CB        -2.5390   45.7330   13.1640 C.3    62  TYR62       0.0534
      6  CG        -3.4800   44.8480   13.9740 C.ar   62  TYR62      -0.0201
      7  CD1       -4.4520   45.4020   14.8110 C.ar   62  TYR62      -0.0009
      8  CD2       -3.3150   43.4870   14.0060 C.ar   62  TYR62      -0.0009
      9  CE1       -5.2740   44.5830   15.6040 C.ar   62  TYR62       0.0417
     10  CE2       -4.1240   42.6670   14.8010 C.ar   62  TYR62       0.0417
     11  CZ        -5.0990   43.2260   15.6000 C.ar   62  TYR62       0.1957
     12  OH        -5.8970   42.4060   16.3700 O.3    62  TYR62      -0.2866
     13  N         -4.3560   38.0510   14.3400 N.3    80  ASP80      -0.1239
     14  CA        -5.2380   38.3600   13.2340 C.3    80  ASP80       0.1674
     15  C         -4.6240   39.5040   12.4520 C.2    80  ASP80       0.2266
     16  O         -5.1570   40.6000   12.3880 O.2    80  ASP80      -0.2867
     17  CB        -6.6680   38.6580   13.7210 C.3    80  ASP80       0.1410
     18  CG        -6.7380   39.6300   14.9220 C.2    80  ASP80       0.3668
     19  OD1       -5.7350   39.7960   15.6640 O.co2  80  ASP80      -0.2456
     20  OD2       -7.8520   40.1820   15.1450 O.co2  80  ASP80      -0.2456
     21  N         -3.1630   41.1270    9.1030 N.3    82  THR82      -0.1218
     22  CA        -3.4090   41.0500    7.6840 C.3    82  THR82       0.1862
     23  C         -2.1260   41.2420    6.9090 C.2    82  THR82       0.2287
     24  O         -1.3410   42.1400    7.2270 O.2    82  THR82      -0.2866
     25  CB        -4.4100   42.1290    7.2810 C.3    82  THR82       0.1770
     26  OG1       -5.6070   41.8600    7.9860 O.3    82  THR82      -0.2211
     27  CG2       -4.7130   42.1120    5.7870 C.3    82  THR82       0.0375
     28  N          3.3280   46.2630    4.4370 N.3    87  ARG87      -0.1245
     29  CA         3.9640   45.5470    5.5150 C.3    87  ARG87       0.1563
     30  C          5.0230   44.5790    4.9520 C.2    87  ARG87       0.2260
     31  O          6.1040   44.4120    5.5200 O.2    87  ARG87      -0.2867
     32  CB         2.9340   44.7930    6.3350 C.3    87  ARG87       0.0307
     33  CG         2.0970   45.6840    7.2400 C.3    87  ARG87       0.0489
     34  CD         0.8810   44.9550    7.7880 C.3    87  ARG87       0.2205
     35  NE        -0.0090   45.8900    8.4870 N.pl3  87  ARG87      -0.0865
     36  CZ        -1.1450   45.5520    9.0940 C.cat  87  ARG87       0.5346
     37  NH1       -1.5920   44.3000    9.1390 N.pl3  87  ARG87       0.1354
     38  NH2       -1.8340   46.4850    9.6790 N.pl3  87  ARG87       0.1354
     39  N        -13.2410   41.8830    5.0980 N.3   102  MET102     -0.1245
     40  CA       -13.8340   42.8200    6.0680 C.3   102  MET102      0.1570
     41  C        -15.3060   42.9960    5.8400 C.2   102  MET102      0.2261
     42  O        -15.8220   42.7010    4.7660 O.2   102  MET102     -0.2867
     43  CB       -13.1500   44.1930    6.0380 C.3   102  MET102      0.0387
     44  CG       -11.6950   44.1460    6.5760 C.3   102  MET102      0.0595
     45  SD       -10.9110   45.7640    6.7710 S.3   102  MET102     -0.1393
     46  CE       -10.1930   45.9670    5.1650 C.3   102  MET102      0.0692
     47  N         -9.9040   52.5100   12.6720 N.3   131  ARG131     -0.1245
     48  CA        -8.8120   52.2380   13.5790 C.3   131  ARG131      0.1563
     49  C         -7.5200   52.5170   12.8480 C.2   131  ARG131      0.2260
     50  O         -7.2210   51.8880   11.8100 O.2   131  ARG131     -0.2867
     51  CB        -8.8680   50.7910   14.0270 C.3   131  ARG131      0.0307
     52  CG        -9.8100   50.5270   15.1720 C.3   131  ARG131      0.0489
     53  CD        -9.9190   49.0090   15.4260 C.3   131  ARG131      0.2205
     54  NE       -10.6130   48.3300   14.3380 N.pl3 131  ARG131     -0.0865
     55  CZ       -10.2530   47.1720   13.7730 C.cat 131  ARG131      0.5346
     56  NH1       -9.1550   46.5070   14.1640 N.pl3 131  ARG131      0.1354
     57  NH2      -10.9890   46.7070   12.7700 N.pl3 131  ARG131      0.1354
     58  N         -4.3340   49.9800   10.7590 N.3   134  THR134     -0.1203
     59  CA        -4.9710   48.7480   10.3850 C.3   134  THR134      0.1994
     60  C         -5.1670   48.7080    8.8840 C.2   134  THR134      0.2618
     61  O         -5.1450   49.7370    8.1950 O.2   134  THR134     -0.2717
     62  CB        -6.3700   48.5530   11.0640 C.3   134  THR134      0.1784
     63  OG1       -7.3050   49.5370   10.5710 O.3   134  THR134     -0.2211
     64  CG2       -6.2550   48.6650   12.5730 C.3   134  THR134      0.0376
     65  N         -5.3930   47.5130    8.3770 N.am  135  ALA135     -0.1965
     66  CA        -5.6990   47.3340    6.9680 C.3   135  ALA135      0.1728
     67  C         -6.9960   48.0480    6.5920 C.2   135  ALA135      0.2616
     68  O         -7.1940   48.4190    5.4350 O.2   135  ALA135     -0.2715
     69  CB        -5.8090   45.8410    6.6450 C.3   135  ALA135      0.0334
     70  N         -7.9050   48.2150    7.5470 N.am  136  GLY136     -0.1955
     71  CA        -9.1090   48.9660    7.2720 C.3   136  GLY136      0.1869
     72  C         -8.7910   50.4220    6.9170 C.2   136  GLY136      0.2309
     73  O         -9.4100   51.0230    6.0400 O.2   136  GLY136     -0.2863
     74  N        -10.2770   48.6430   19.1640 N.3   157  ARG157     -0.1245
     75  CA       -11.5970   48.0740   18.9940 C.3   157  ARG157      0.1563
     76  C        -12.5630   48.6000   20.0490 C.2   157  ARG157      0.2260
     77  O        -13.7050   48.8950   19.7370 O.2   157  ARG157     -0.2867
     78  CB       -11.5400   46.5430   19.0110 C.3   157  ARG157      0.0307
     79  CG       -10.9640   45.9500   17.7370 C.3   157  ARG157      0.0489
     80  CD       -11.1430   44.4470   17.6900 C.3   157  ARG157      0.2205
     81  NE       -10.4880   43.9280   16.5030 N.pl3 157  ARG157     -0.0865
     82  CZ        -9.1930   43.5980   16.4370 C.cat 157  ARG157      0.5346
     83  NH1       -8.4220   43.6800   17.4950 N.pl3 157  ARG157      0.1354
     84  NH2       -8.6860   43.1560   15.3140 N.pl3 157  ARG157      0.1354
     85  N        -12.5400   42.8920   10.4870 N.3   175  ASP175     -0.1239
     86  CA       -12.2930   41.6170    9.8420 C.3   175  ASP175      0.1674
     87  C        -13.4890   40.7460   10.0970 C.2   175  ASP175      0.2266
     88  O        -14.0840   40.8450   11.1420 O.2   175  ASP175     -0.2867
     89  CB       -11.0830   40.9560   10.4750 C.3   175  ASP175      0.1410
     90  CG        -9.7930   41.7470   10.2400 C.2   175  ASP175      0.3668
     91  OD1       -9.6690   42.3100    9.1320 O.co2 175  ASP175     -0.2456
     92  OD2       -8.9400   41.8260   11.1740 O.co2 175  ASP175     -0.2456
     93  N         -4.4520   36.2900    6.7820 N.3   202  PHE202     -0.1241
     94  CA        -3.6840   36.4750    7.9890 C.3   202  PHE202      0.1605
     95  C         -2.3950   35.6300    7.8730 C.2   202  PHE202      0.2264
     96  O         -2.4500   34.4970    7.4060 O.2   202  PHE202     -0.2867
     97  CB        -4.4610   35.9980    9.2090 C.3   202  PHE202      0.0534
     98  CG        -5.6630   36.8730    9.5740 C.ar  202  PHE202     -0.0203
     99  CD1       -5.7440   38.2110    9.1770 C.ar  202  PHE202     -0.0042
    100  CD2       -6.6960   36.3510   10.3170 C.ar  202  PHE202     -0.0042
    101  CE1       -6.8600   38.9830    9.5170 C.ar  202  PHE202     -0.0003
    102  CE2       -7.7990   37.1240   10.6810 C.ar  202  PHE202     -0.0003
    103  CZ        -7.8780   38.4380   10.2870 C.ar  202  PHE202     -0.0000
@<TRIPOS>BOND
     1    28    29    1
     2    42    41    2
     3    30    29    1
     4    30    31    2
     5    39    40    1
     6    46    45    1
     7    68    67    2
     8    29    32    1
     9    27    25    1
    10    41    40    1
    11    43    40    1
    12    43    44    1
    13    73    72    2
    14    32    33    1
    15    44    45    1
    16    67    66    1
    17    67    70   am
    18    69    66    1
    19    93    94    1
    20    23    24    2
    21    23    22    1
    22    72    71    1
    23    66    65    1
    24    33    34    1
    25    71    70    1
    26    25    22    1
    27    25    26    1
    28    96    95    2
    29    22    21    1
    30    34    35    1
    31    95    94    1
    32    94    97    1
    33    61    60    2
    34    65    60   am
    35    35    36    2
    36    60    59    1
    37    36    37    1
    38    36    38    1
    39    91    90   ar
    40    99   101   ar
    41    99    98   ar
    42    97    98    1
    43   101   103   ar
    44    98   100   ar
    45    86    87    1
    46    86    89    1
    47    86    85    1
    48    87    88    2
    49    90    89    1
    50    90    92   ar
    51   103   102   ar
    52   100   102   ar
    53    59    58    1
    54    59    62    1
    55    63    62    1
    56    62    64    1
    57    50    49    2
    58    16    15    2
    59    15    14    1
    60    47    48    1
    61    57    55    1
    62    49    48    1
    63     5     6    1
    64     5     2    1
    65    14    17    1
    66    14    13    1
    67     4     3    2
    68     3     2    1
    69    48    51    1
    70    17    18    1
    71    55    56    1
    72    55    54    2
    73     6     8   ar
    74     6     7   ar
    75     8    10   ar
    76    51    52    1
    77     2     1    1
    78    54    53    1
    79    10    11   ar
    80     7     9   ar
    81    18    20   ar
    82    18    19   ar
    83    52    53    1
    84    84    82    1
    85    11     9   ar
    86    11    12    1
    87    82    81    2
    88    82    83    1
    89    81    80    1
    90    80    79    1
    91    79    78    1
    92    75    78    1
    93    75    74    1
    94    75    76    1
    95    77    76    2
