@<TRIPOS>MOLECULE
tmp/4io6A00.pdb
 122 115 0 0 0
SMALL
GASTEIGER

@<TRIPOS>ATOM
      1  N         -1.9950   53.4090  -11.0830 N.3    62  TYR62      -0.1241
      2  CA        -2.2470   52.2360  -10.2470 C.3    62  TYR62       0.1605
      3  C         -3.4530   52.4990   -9.3450 C.2    62  TYR62       0.2264
      4  O         -4.3290   51.6310   -9.1800 O.2    62  TYR62      -0.2867
      5  CB        -0.9870   51.8320   -9.4690 C.3    62  TYR62       0.0534
      6  CG        -0.0260   51.1270  -10.3860 C.ar   62  TYR62      -0.0201
      7  CD1        0.7690   51.8230  -11.2600 C.ar   62  TYR62      -0.0009
      8  CD2        0.0160   49.7380  -10.4360 C.ar   62  TYR62      -0.0009
      9  CE1        1.6180   51.1650  -12.1510 C.ar   62  TYR62       0.0417
     10  CE2        0.8460   49.0740  -11.3140 C.ar   62  TYR62       0.0417
     11  CZ         1.6530   49.7920  -12.1770 C.ar   62  TYR62       0.1957
     12  OH         2.4750   49.1170  -13.0720 O.3    62  TYR62      -0.2866
     13  N          1.7150   44.4480  -10.9960 N.3    80  ASP80      -0.1239
     14  CA         2.6900   44.9140  -10.0270 C.3    80  ASP80       0.1674
     15  C          2.0220   45.9780   -9.1670 C.2    80  ASP80       0.2266
     16  O          2.3770   47.1550   -9.1840 O.2    80  ASP80      -0.2867
     17  CB         3.9600   45.3940  -10.7440 C.3    80  ASP80       0.1410
     18  CG         3.7130   46.4030  -11.8720 C.2    80  ASP80       0.3668
     19  OD1        2.5970   46.5210  -12.4270 O.co2  80  ASP80      -0.2456
     20  OD2        4.7310   47.0620  -12.2900 O.co2  80  ASP80      -0.2456
     21  N          0.8550   47.3330   -5.6100 N.3    82  THR82      -0.1218
     22  CA         1.2640   47.3340   -4.2390 C.3    82  THR82       0.1862
     23  C          0.0620   47.3390   -3.2930 C.2    82  THR82       0.2287
     24  O         -0.8940   48.0840   -3.4970 O.2    82  THR82      -0.2866
     25  CB         2.1590   48.5680   -3.9570 C.3    82  THR82       0.1770
     26  OG1        3.2550   48.4890   -4.8640 O.3    82  THR82      -0.2211
     27  CG2        2.6700   48.5670   -2.5690 C.3    82  THR82       0.0375
     28  N         -5.6570   51.5470   -0.0480 N.3    87  ARG87      -0.1245
     29  CA        -6.3690   50.7400   -1.0090 C.3    87  ARG87       0.1563
     30  C         -7.1890   49.6580   -0.3430 C.2    87  ARG87       0.2260
     31  O         -8.2690   49.3230   -0.8140 O.2    87  ARG87      -0.2867
     32  CB        -5.3820   50.1040   -1.9720 C.3    87  ARG87       0.0307
     33  CG        -4.7140   51.1310   -2.8780 C.3    87  ARG87       0.0489
     34  CD        -3.5020   50.5700   -3.6080 C.3    87  ARG87       0.2205
     35  NE        -2.8720   51.6070   -4.4400 N.pl3  87  ARG87      -0.0865
     36  CZ        -1.8340   51.4160   -5.2570 C.cat  87  ARG87       0.5346
     37  NH1       -1.2710   50.2290   -5.3650 N.pl3  87  ARG87       0.1354
     38  NH2       -1.3300   52.4370   -5.9620 N.pl3  87  ARG87       0.1354
     39  N         11.0860   49.6650   -3.0960 N.3   102  MET102     -0.1245
     40  CA        11.3740   50.6750   -4.1130 C.3   102  MET102      0.1570
     41  C         12.8430   51.0410   -4.1660 C.2   102  MET102      0.2261
     42  O         13.5800   50.8680   -3.1840 O.2   102  MET102     -0.2867
     43  CB        10.5270   51.9250   -3.8630 C.3   102  MET102      0.0387
     44  CG         9.0730   51.6960   -4.1730 C.3   102  MET102      0.0595
     45  SD         8.1150   53.2530   -4.1500 S.3   102  MET102     -0.1393
     46  CE         7.6880   53.3990   -2.4390 C.3   102  MET102      0.0692
     47  N          5.3190   59.7150  -10.1640 N.3   131  ARG131     -0.1245
     48  CA         4.1390   59.2800  -10.8980 C.3   131  ARG131      0.1563
     49  C          2.8930   59.4010   -9.9910 C.2   131  ARG131      0.2260
     50  O          2.8280   58.7960   -8.9300 O.2   131  ARG131     -0.2867
     51  CB         4.2950   57.8430  -11.3940 C.3   131  ARG131      0.0307
     52  CG         5.1800   57.7380  -12.6080 C.3   131  ARG131      0.0489
     53  CD         5.4310   56.2570  -12.9200 C.3   131  ARG131      0.2205
     54  NE         6.4480   55.7280  -12.0220 N.pl3 131  ARG131     -0.0865
     55  CZ         6.5870   54.4430  -11.6790 C.cat 131  ARG131      0.5346
     56  NH1        5.7310   53.5160  -12.0900 N.pl3 131  ARG131      0.1354
     57  NH2        7.5780   54.0980  -10.8770 N.pl3 131  ARG131      0.1354
     58  N          0.3990   56.4920   -7.4840 N.3   134  THR134     -0.1203
     59  CA         1.2410   55.3300   -7.2140 C.3   134  THR134      0.1994
     60  C          1.6830   55.3090   -5.7630 C.2   134  THR134      0.2618
     61  O          1.6510   56.3330   -5.0480 O.2   134  THR134     -0.2717
     62  CB         2.5290   55.3000   -8.0600 C.3   134  THR134      0.1784
     63  OG1        3.3740   56.4110   -7.6800 O.3   134  THR134     -0.2211
     64  CG2        2.1830   55.3480   -9.5320 C.3   134  THR134      0.0376
     65  N          2.1850   54.1580   -5.3290 N.am  135  ALA135     -0.1965
     66  CA         2.7900   54.0660   -4.0120 C.3   135  ALA135      0.1728
     67  C          4.0090   54.9870   -3.8150 C.2   135  ALA135      0.2616
     68  O          4.3490   55.3640   -2.6850 O.2   135  ALA135     -0.2715
     69  CB         3.1600   52.5940   -3.7010 C.3   135  ALA135      0.0334
     70  N          4.6730   55.3600   -4.9060 N.am  136  GLY136     -0.1955
     71  CA         5.7890   56.2870   -4.8470 C.3   136  GLY136      0.1869
     72  C          5.3030   57.6660   -4.4110 C.2   136  GLY136      0.2309
     73  O          5.9690   58.3620   -3.6270 O.2   136  GLY136     -0.2863
     74  N          5.3440   55.7160  -16.7710 N.3   157  ARG157     -0.1245
     75  CA         6.7610   55.4040  -16.7420 C.3   157  ARG157      0.1563
     76  C          7.4630   56.0360  -17.9300 C.2   157  ARG157      0.2260
     77  O          8.5820   56.4800  -17.8060 O.2   157  ARG157     -0.2867
     78  CB         6.9980   53.8960  -16.7340 C.3   157  ARG157      0.0307
     79  CG         6.6730   53.2690  -15.4070 C.3   157  ARG157      0.0489
     80  CD         7.0510   51.8080  -15.3730 C.3   157  ARG157      0.2205
     81  NE         6.6780   51.1600  -14.1290 N.pl3 157  ARG157     -0.0865
     82  CZ         5.4950   50.6180  -13.8590 C.cat 157  ARG157      0.5346
     83  NH1        4.4980   50.6640  -14.7470 N.pl3 157  ARG157      0.1354
     84  NH2        5.2920   50.1020  -12.6470 N.pl3 157  ARG157      0.1354
     85  N         11.3090   57.3140   -8.5080 N.3   173  PHE173     -0.1227
     86  CA        11.2320   56.0560   -7.7470 C.3   173  PHE173      0.1736
     87  C         10.6370   54.9760   -8.6320 C.2   173  PHE173      0.2595
     88  O          9.7230   55.2510   -9.4280 O.2   173  PHE173     -0.2718
     89  CB        10.3010   56.1740   -6.5390 C.3   173  PHE173      0.0547
     90  CG        10.6670   57.2400   -5.5350 C.ar  173  PHE173     -0.0202
     91  CD1       11.9670   57.6530   -5.3510 C.ar  173  PHE173     -0.0042
     92  CD2        9.6630   57.7940   -4.7340 C.ar  173  PHE173     -0.0042
     93  CE1       12.2660   58.6310   -4.3980 C.ar  173  PHE173     -0.0003
     94  CE2        9.9500   58.7470   -3.7740 C.ar  173  PHE173     -0.0003
     95  CZ        11.2360   59.1640   -3.5990 C.ar  173  PHE173     -0.0000
     96  N         11.1350   53.7500   -8.4720 N.am  174  MET174     -0.1965
     97  CA        10.5640   52.5860   -9.1180 C.3   174  MET174      0.1736
     98  C         10.5220   51.4190   -8.1420 C.2   174  MET174      0.2616
     99  O         11.3330   51.3290   -7.2340 O.2   174  MET174     -0.2715
    100  CB        11.3980   52.1260  -10.3210 C.3   174  MET174      0.0427
    101  CG        11.2800   53.0180  -11.5480 C.3   174  MET174      0.0599
    102  SD        12.0670   52.3180  -13.0210 S.3   174  MET174     -0.1393
    103  CE        10.9200   51.0110  -13.4700 C.3   174  MET174      0.0692
    104  N          9.6060   50.4700   -8.3880 N.am  175  ASP175     -0.1971
    105  CA         9.6600   49.1600   -7.7300 C.3   175  ASP175      0.1709
    106  C         10.9310   48.4160   -8.1670 C.2   175  ASP175      0.2293
    107  O         11.3970   48.5770   -9.2940 O.2   175  ASP175     -0.2864
    108  CB         8.4440   48.3120   -8.1050 C.3   175  ASP175      0.1436
    109  CG         7.1250   48.8640   -7.5880 C.2   175  ASP175      0.3671
    110  OD1        7.0780   49.4600   -6.4750 O.co2 175  ASP175     -0.2456
    111  OD2        6.1130   48.7130   -8.3140 O.co2 175  ASP175     -0.2456
    112  N          3.0800   42.7670   -3.4830 N.3   202  PHE202     -0.1241
    113  CA         2.1280   42.8630   -4.5910 C.3   202  PHE202      0.1605
    114  C          1.0320   41.8240   -4.3450 C.2   202  PHE202      0.2264
    115  O          1.3350   40.6950   -3.9300 O.2   202  PHE202     -0.2867
    116  CB         2.7170   42.5350   -5.9820 C.3   202  PHE202      0.0534
    117  CG         3.7820   43.4840   -6.4790 C.ar  202  PHE202     -0.0203
    118  CD1        3.7760   44.7970   -6.1150 C.ar  202  PHE202     -0.0042
    119  CD2        4.7630   43.0490   -7.3440 C.ar  202  PHE202     -0.0042
    120  CE1        4.7470   45.6680   -6.5840 C.ar  202  PHE202     -0.0003
    121  CE2        5.7380   43.9050   -7.8040 C.ar  202  PHE202     -0.0003
    122  CZ         5.7170   45.2030   -7.4370 C.ar  202  PHE202     -0.0000
@<TRIPOS>BOND
     1    76    77    2
     2    76    75    1
     3    74    75    1
     4    75    78    1
     5    78    79    1
     6    79    80    1
     7    80    81    1
     8    83    82    1
     9    81    82    2
    10    82    84    1
    11   103   102    1
    12    12    11    1
    13   102   101    1
    14    53    52    1
    15    53    54    1
    16    52    51    1
    17    19    18   ar
    18    20    18   ar
    19    11     9   ar
    20    11    10   ar
    21     9     7   ar
    22    56    55    1
    23    54    55    2
    24    18    17    1
    25    55    57    1
    26   101   100    1
    27    51    48    1
    28    10     8   ar
    29     7     6   ar
    30     1     2    1
    31    13    14    1
    32    48    47    1
    33    48    49    1
    34    17    14    1
    35     8     6   ar
    36     6     5    1
    37   100    97    1
    38     2     5    1
    39     2     3    1
    40    14    15    1
    41    49    50    2
    42    64    62    1
    43    88    87    2
    44     3     4    2
    45   107   106    2
    46    16    15    2
    47    97    96    1
    48    97    98    1
    49    87    96   am
    50    87    86    1
    51    85    86    1
    52   104    98   am
    53   104   105    1
    54   111   109   ar
    55   106   105    1
    56    98    99    2
    57   108   105    1
    58   108   109    1
    59    62    63    1
    60    62    59    1
    61   121   122   ar
    62   121   119   ar
    63    86    89    1
    64   109   110   ar
    65    58    59    1
    66   122   120   ar
    67   119   117   ar
    68    59    60    1
    69   120   118   ar
    70    89    90    1
    71   117   118   ar
    72   117   116    1
    73   116   113    1
    74    38    36    1
    75    60    65   am
    76    60    61    2
    77    21    22    1
    78    90    91   ar
    79    90    92   ar
    80    37    36    1
    81    91    93   ar
    82    65    66    1
    83    36    35    2
    84    70    71    1
    85    70    67   am
    86    26    25    1
    87    71    72    1
    88    92    94   ar
    89   113   114    1
    90   113   112    1
    91    35    34    1
    92    72    73    2
    93    93    95   ar
    94   114   115    2
    95    22    25    1
    96    22    23    1
    97    44    45    1
    98    44    43    1
    99    41    40    1
   100    41    42    2
   101    45    46    1
   102    40    43    1
   103    40    39    1
   104    66    67    1
   105    66    69    1
   106    25    27    1
   107    67    68    2
   108    94    95   ar
   109    34    33    1
   110    24    23    2
   111    33    32    1
   112    32    29    1
   113    29    30    1
   114    29    28    1
   115    31    30    2
