@<TRIPOS>MOLECULE
tmp/4io7B00.pdb
 143 135 0 0 0
SMALL
GASTEIGER

@<TRIPOS>ATOM
      1  N          8.2860   30.9950   21.0630 N.3    17  SER17      -0.1217
      2  CA         9.2920   30.9990   20.0020 C.3    17  SER17       0.1889
      3  C         10.1390   32.2590   20.1530 C.2    17  SER17       0.2288
      4  O          9.7290   33.3430   19.7380 O.2    17  SER17      -0.2866
      5  CB         8.6260   30.9640   18.6110 C.3    17  SER17       0.2089
      6  OG         9.6000   30.9500   17.5760 O.3    17  SER17      -0.2183
      7  N          2.6060   24.2150   15.2360 N.3    65  TYR65      -0.1241
      8  CA         2.0270   25.3650   14.5590 C.3    65  TYR65       0.1605
      9  C          0.7350   24.9240   13.8640 C.2    65  TYR65       0.2264
     10  O         -0.2790   25.6070   13.9060 O.2    65  TYR65      -0.2867
     11  CB         3.0350   25.9560   13.5910 C.3    65  TYR65       0.0534
     12  CG         4.0380   26.8000   14.3310 C.ar   65  TYR65      -0.0201
     13  CD1        5.0340   26.2050   15.0950 C.ar   65  TYR65      -0.0009
     14  CD2        3.9580   28.1840   14.3160 C.ar   65  TYR65      -0.0009
     15  CE1        5.9600   26.9700   15.8100 C.ar   65  TYR65       0.0417
     16  CE2        4.8650   28.9610   15.0590 C.ar   65  TYR65       0.0417
     17  CZ         5.8570   28.3370   15.7830 C.ar   65  TYR65       0.1957
     18  OH         6.7640   29.0820   16.4700 O.3    65  TYR65      -0.2866
     19  N          5.0910   33.6440   14.6070 N.3    83  ASP83      -0.1225
     20  CA         5.8750   33.3280   13.4500 C.3    83  ASP83       0.1805
     21  C          5.2010   32.1610   12.6780 C.2    83  ASP83       0.2598
     22  O          5.7410   31.0700   12.5670 O.2    83  ASP83      -0.2718
     23  CB         7.3340   33.0360   13.8380 C.3    83  ASP83       0.1424
     24  CG         7.5010   32.0350   14.9700 C.2    83  ASP83       0.3668
     25  OD1        6.5670   31.7400   15.7600 O.co2  83  ASP83      -0.2456
     26  OD2        8.6660   31.5590   15.0940 O.co2  83  ASP83      -0.2456
     27  N          4.0200   32.4400   12.1540 N.am   84  ILE84      -0.1966
     28  CA         3.1420   31.4310   11.5700 C.3    84  ILE84       0.1727
     29  C          3.0940   31.5940   10.0710 C.2    84  ILE84       0.2616
     30  O          2.6320   32.6150    9.5620 O.2    84  ILE84      -0.2715
     31  CB         1.7130   31.5610   12.1220 C.3    84  ILE84       0.0290
     32  CG1        1.7490   31.5490   13.6510 C.3    84  ILE84       0.0022
     33  CG2        0.7930   30.4680   11.5390 C.3    84  ILE84       0.0023
     34  CD1        0.4740   31.9970   14.3120 C.3    84  ILE84       0.0001
     35  N          3.6170   30.5880    9.3730 N.am   85  THR85      -0.1951
     36  CA         3.7960   30.6540    7.9550 C.3    85  THR85       0.1897
     37  C          2.4620   30.4840    7.2580 C.2    85  THR85       0.2313
     38  O          1.6500   29.6310    7.6040 O.2    85  THR85      -0.2863
     39  CB         4.7790   29.5770    7.5060 C.3    85  THR85       0.1794
     40  OG1        6.0060   29.7680    8.2120 O.3    85  THR85      -0.2208
     41  CG2        5.0480   29.6060    5.9940 C.3    85  THR85       0.0378
     42  N         -3.1320   25.4630    5.1600 N.3    90  ARG90      -0.1245
     43  CA        -3.7360   26.2290    6.2610 C.3    90  ARG90       0.1563
     44  C         -4.8240   27.1460    5.7260 C.2    90  ARG90       0.2260
     45  O         -5.9030   27.2710    6.3260 O.2    90  ARG90      -0.2867
     46  CB        -2.6720   27.0160    7.0640 C.3    90  ARG90       0.0307
     47  CG        -1.7050   26.0900    7.8350 C.3    90  ARG90       0.0489
     48  CD        -0.5040   26.7960    8.4040 C.3    90  ARG90       0.2205
     49  NE         0.4040   25.8610    9.0460 N.pl3  90  ARG90      -0.0865
     50  CZ         1.5610   26.1980    9.6030 C.cat  90  ARG90       0.5346
     51  NH1        1.9750   27.4610    9.5970 N.pl3  90  ARG90       0.1354
     52  NH2        2.3070   25.2650   10.1840 N.pl3  90  ARG90       0.1354
     53  N         13.5890   29.6700    4.9760 N.3   105  MET105     -0.1245
     54  CA        14.2100   28.7540    5.9100 C.3   105  MET105      0.1570
     55  C         15.6790   28.6120    5.6130 C.2   105  MET105      0.2261
     56  O         16.1190   28.8560    4.4830 O.2   105  MET105     -0.2867
     57  CB        13.5150   27.3940    5.8730 C.3   105  MET105      0.0387
     58  CG        12.1340   27.4240    6.5150 C.3   105  MET105      0.0595
     59  SD        11.4470   25.7710    6.6740 S.3   105  MET105     -0.1393
     60  CE        10.8920   25.5470    4.9830 C.3   105  MET105      0.0692
     61  N         10.7720   19.6520   12.8450 N.3   134  ARG134     -0.1245
     62  CA         9.7480   19.9510   13.8400 C.3   134  ARG134      0.1563
     63  C          8.3960   19.6330   13.2510 C.2   134  ARG134      0.2260
     64  O          8.0210   20.1690   12.2340 O.2   134  ARG134     -0.2867
     65  CB         9.8190   21.4020   14.3180 C.3   134  ARG134      0.0307
     66  CG        10.4200   21.4700   15.7100 C.3   134  ARG134      0.0489
     67  CD        10.0020   22.6780   16.4470 C.3   134  ARG134      0.2205
     68  NE         8.6370   22.6280   16.9620 N.pl3 134  ARG134     -0.0865
     69  CZ         8.0580   23.6860   17.5190 C.cat 134  ARG134      0.5346
     70  NH1        8.7520   24.7970   17.5920 N.pl3 134  ARG134      0.1354
     71  NH2        6.8120   23.6510   17.9920 N.pl3 134  ARG134      0.1354
     72  N          4.7890   21.7070   11.1350 N.3   137  THR137     -0.1203
     73  CA         5.3240   22.9730   10.7060 C.3   137  THR137      0.1994
     74  C          5.5300   22.9780    9.2220 C.2   137  THR137      0.2618
     75  O          5.5550   21.9440    8.5740 O.2   137  THR137     -0.2717
     76  CB         6.7070   23.2830   11.3320 C.3   137  THR137      0.1784
     77  OG1        7.6760   22.3160   10.8990 O.3   137  THR137     -0.2211
     78  CG2        6.6240   23.2570   12.8210 C.3   137  THR137      0.0376
     79  N          5.7180   24.1760    8.6970 N.am  138  ALA138     -0.1965
     80  CA         6.0110   24.3950    7.2920 C.3   138  ALA138      0.1728
     81  C          7.2910   23.7040    6.8680 C.2   138  ALA138      0.2616
     82  O          7.4630   23.3190    5.7200 O.2   138  ALA138     -0.2715
     83  CB         6.1260   25.8900    7.0290 C.3   138  ALA138      0.0334
     84  N          8.2170   23.5560    7.7870 N.am  139  GLY139     -0.1955
     85  CA         9.4250   22.8200    7.4760 C.3   139  GLY139      0.1869
     86  C          9.1620   21.3460    7.2200 C.2   139  GLY139      0.2309
     87  O          9.7910   20.7300    6.3470 O.2   139  GLY139     -0.2863
     88  N         11.6370   23.5890   20.0830 N.3   160  ARG160     -0.1245
     89  CA        12.9730   24.0880   19.8210 C.3   160  ARG160      0.1563
     90  C         13.9810   23.5060   20.8140 C.2   160  ARG160      0.2260
     91  O         15.1640   23.3620   20.4980 O.2   160  ARG160     -0.2867
     92  CB        13.0010   25.6240   19.8920 C.3   160  ARG160      0.0307
     93  CG        14.3720   26.1910   19.5110 C.3   160  ARG160      0.0489
     94  CD        14.4580   27.6910   19.6260 C.3   160  ARG160      0.2205
     95  NE        13.4400   28.4030   18.8510 N.pl3 160  ARG160     -0.0865
     96  CZ        13.4740   29.7170   18.6570 C.cat 160  ARG160      0.5346
     97  NH1       14.4830   30.4140   19.1550 N.pl3 160  ARG160      0.1354
     98  NH2       12.5220   30.3260   17.9540 N.pl3 160  ARG160      0.1354
     99  N         15.8780   22.2660   10.1800 N.3   176  PHE176     -0.1227
    100  CA        15.3760   23.4240    9.4160 C.3   176  PHE176      0.1736
    101  C         14.7240   24.4150   10.3590 C.2   176  PHE176      0.2595
    102  O         13.9670   24.0260   11.2390 O.2   176  PHE176     -0.2718
    103  CB        14.2730   23.0120    8.4140 C.3   176  PHE176      0.0547
    104  CG        14.7130   22.1070    7.2960 C.ar  176  PHE176     -0.0202
    105  CD1       16.0460   21.8550    7.0340 C.ar  176  PHE176     -0.0042
    106  CD2       13.7520   21.5160    6.4840 C.ar  176  PHE176     -0.0042
    107  CE1       16.4150   21.0260    5.9800 C.ar  176  PHE176     -0.0003
    108  CE2       14.1120   20.6880    5.4180 C.ar  176  PHE176     -0.0003
    109  CZ        15.4450   20.4380    5.1690 C.ar  176  PHE176     -0.0000
    110  N         14.9850   25.7000   10.1640 N.am  177  MET177     -0.1965
    111  CA        14.3020   26.7350   10.9260 C.3   177  MET177      0.1736
    112  C         14.0470   27.9020   10.0270 C.2   177  MET177      0.2616
    113  O         14.8130   28.1460    9.0890 O.2   177  MET177     -0.2715
    114  CB        15.1750   27.2600   12.0830 C.3   177  MET177      0.0427
    115  CG        15.0720   26.5030   13.3900 C.3   177  MET177      0.0599
    116  SD        16.0820   27.2630   14.6950 S.3   177  MET177     -0.1393
    117  CE        14.9330   28.4960   15.3360 C.3   177  MET177      0.0692
    118  N         12.9940   28.6530   10.3380 N.am  178  ASP178     -0.1971
    119  CA        12.7960   29.9920    9.7670 C.3   178  ASP178      0.1709
    120  C         14.0320   30.8470    9.9860 C.2   178  ASP178      0.2293
    121  O         14.6810   30.7370   11.0230 O.2   178  ASP178     -0.2864
    122  CB        11.6280   30.6680   10.4540 C.3   178  ASP178      0.1436
    123  CG        10.3240   29.9050   10.2630 C.2   178  ASP178      0.3671
    124  OD1       10.1430   29.2740    9.1970 O.co2 178  ASP178     -0.2456
    125  OD2        9.4800   29.9630   11.1820 O.co2 178  ASP178     -0.2456
    126  N         14.4410   33.3680   13.2780 N.3   181  THR181     -0.1218
    127  CA        14.7360   32.7000   14.5490 C.3   181  THR181      0.1862
    128  C         16.0160   31.8750   14.4620 C.2   181  THR181      0.2287
    129  O         16.7290   31.7160   15.4600 O.2   181  THR181     -0.2866
    130  CB        13.5750   31.8280   15.0250 C.3   181  THR181      0.1770
    131  OG1       13.1060   31.0280   13.9460 O.3   181  THR181     -0.2211
    132  CG2       12.4090   32.6940   15.5080 C.3   181  THR181      0.0375
    133  N          4.7940   35.3920    6.9620 N.3   205  PHE205     -0.1241
    134  CA         4.0550   35.1620    8.1810 C.3   205  PHE205      0.1605
    135  C          2.8180   36.0460    8.1620 C.2   205  PHE205      0.2264
    136  O          2.8830   37.1960    7.7340 O.2   205  PHE205     -0.2867
    137  CB         4.8450   35.5960    9.4190 C.3   205  PHE205      0.0534
    138  CG         6.1040   34.7900    9.7030 C.ar  205  PHE205     -0.0203
    139  CD1        6.2070   33.4410    9.4020 C.ar  205  PHE205     -0.0042
    140  CD2        7.1700   35.3980   10.3090 C.ar  205  PHE205     -0.0042
    141  CE1        7.3960   32.7270    9.6970 C.ar  205  PHE205     -0.0003
    142  CE2        8.3460   34.7060   10.5980 C.ar  205  PHE205     -0.0003
    143  CZ         8.4570   33.3620   10.2910 C.ar  205  PHE205     -0.0000
@<TRIPOS>BOND
     1    56    55    2
     2    53    54    1
     3    60    59    1
     4    42    43    1
     5   109   108   ar
     6   109   107   ar
     7   108   106   ar
     8    55    54    1
     9    82    81    2
    10    44    43    1
    11    44    45    2
    12    57    54    1
    13    57    58    1
    14   107   105   ar
    15    41    39    1
    16    43    46    1
    17    87    86    2
    18   106   104   ar
    19    58    59    1
    20    81    80    1
    21    81    84   am
    22   133   134    1
    23    83    80    1
    24   105   104   ar
    25    46    47    1
    26    86    85    1
    27    37    38    2
    28    37    36    1
    29    80    79    1
    30   104   103    1
    31    85    84    1
    32    39    36    1
    33    39    40    1
    34   136   135    2
    35    47    48    1
    36    36    35    1
    37   135   134    1
    38   134   137    1
    39    48    49    1
    40   103   100    1
    41    75    74    2
    42    79    74   am
    43    49    50    2
    44   113   112    2
    45   124   123   ar
    46    74    73    1
    47    35    29   am
    48   139   141   ar
    49   139   138   ar
    50   100    99    1
    51   100   101    1
    52   137   138    1
    53    30    29    2
    54    51    50    1
    55    50    52    1
    56   141   143   ar
    57   138   140   ar
    58   119   120    1
    59   119   118    1
    60   119   122    1
    61   120   121    2
    62   112   118   am
    63   112   111    1
    64    29    28    1
    65   110   101   am
    66   110   111    1
    67   123   122    1
    68   123   125   ar
    69   143   142   ar
    70   140   142   ar
    71   101   102    2
    72    73    72    1
    73    73    76    1
    74    77    76    1
    75   111   114    1
    76    76    78    1
    77    33    31    1
    78    28    31    1
    79    28    27    1
    80   114   115    1
    81    31    32    1
    82    27    21   am
    83    64    63    2
    84    22    21    2
    85    21    20    1
    86    61    62    1
    87    63    62    1
    88   126   127    1
    89   115   116    1
    90    20    23    1
    91    20    19    1
    92    11    12    1
    93    11     8    1
    94    32    34    1
    95    23    24    1
    96    62    65    1
    97     9    10    2
    98     9     8    1
    99   131   130    1
   100    14    12   ar
   101    14    16   ar
   102    65    66    1
   103    12    13   ar
   104   128   127    1
   105   128   129    2
   106   127   130    1
   107     8     7    1
   108   116   117    1
   109    24    26   ar
   110    24    25   ar
   111   130   132    1
   112    16    17   ar
   113    13    15   ar
   114    66    67    1
   115    17    15   ar
   116    17    18    1
   117    67    68    1
   118    68    69    2
   119    69    70    1
   120    69    71    1
   121     6     5    1
   122    98    96    1
   123     5     2    1
   124    96    95    2
   125    96    97    1
   126    95    94    1
   127    93    94    1
   128    93    92    1
   129     4     3    2
   130    89    92    1
   131    89    88    1
   132    89    90    1
   133     2     3    1
   134     2     1    1
   135    91    90    2
