@<TRIPOS>MOLECULE
tmp/4io8A00.pdb
 139 128 0 0 0
SMALL
GASTEIGER

@<TRIPOS>ATOM
      1  N          9.2000   -1.3220   11.8190 N.3    13  TYR13      -0.1241
      2  CA         9.1780   -0.2270   10.8680 C.3    13  TYR13       0.1605
      3  C         10.5330    0.4420   10.6620 C.2    13  TYR13       0.2264
      4  O         11.2650    0.6730   11.6300 O.2    13  TYR13      -0.2867
      5  CB         8.1620    0.8230   11.3500 C.3    13  TYR13       0.0534
      6  CG         6.7370    0.3250   11.4030 C.ar   13  TYR13      -0.0201
      7  CD1        5.9590    0.2540   10.2520 C.ar   13  TYR13      -0.0009
      8  CD2        6.1510   -0.0390   12.6110 C.ar   13  TYR13      -0.0009
      9  CE1        4.6450   -0.2090   10.2950 C.ar   13  TYR13       0.0417
     10  CE2        4.8430   -0.5210   12.6660 C.ar   13  TYR13       0.0417
     11  CZ         4.0920   -0.5980   11.5050 C.ar   13  TYR13       0.1957
     12  OH         2.7930   -1.0320   11.5560 O.3    13  TYR13      -0.2866
     13  N          4.4880    7.3230    1.7930 N.3    33  ASN33      -0.1240
     14  CA         4.7070    7.0720    3.2250 C.3    33  ASN33       0.1653
     15  C          6.1850    7.2570    3.5970 C.2    33  ASN33       0.2266
     16  O          7.0840    6.7630    2.8980 O.2    33  ASN33      -0.2867
     17  CB         4.2610    5.6650    3.6070 C.3    33  ASN33       0.1155
     18  CG         2.8320    5.3460    3.2720 C.2    33  ASN33       0.2627
     19  OD1        1.8990    5.9750    3.7730 O.2    33  ASN33      -0.2716
     20  ND2        2.6290    4.3360    2.4380 N.am   33  ASN33      -0.0877
     21  N          7.4740    6.1090    6.4410 N.3    35  THR35      -0.1218
     22  CA         7.7650    4.8870    7.2220 C.3    35  THR35       0.1862
     23  C          7.4140    3.6390    6.3780 C.2    35  THR35       0.2287
     24  O          6.3260    3.5810    5.7930 O.2    35  THR35      -0.2866
     25  CB         7.0170    4.9150    8.5560 C.3    35  THR35       0.1770
     26  OG1        7.5710    5.9630    9.3440 O.3    35  THR35      -0.2211
     27  CG2        7.1460    3.6230    9.3270 C.3    35  THR35       0.0375
     28  N          7.6450    1.9060   20.7660 N.3   199  GLY199     -0.1210
     29  CA         7.2520    1.6190   19.3960 C.3   199  GLY199      0.1956
     30  C          6.1280    0.6180   19.2370 C.2   199  GLY199      0.2612
     31  O          5.3460    0.4030   20.1690 O.2   199  GLY199     -0.2717
     32  N          6.0540    0.0290   18.0330 N.am  200  GLY200     -0.1956
     33  CA         5.0510   -0.9470   17.6330 C.3   200  GLY200      0.1869
     34  C          5.0970   -2.2550   18.3870 C.2   200  GLY200      0.2309
     35  O          4.0430   -2.8360   18.6790 O.2   200  GLY200     -0.2863
     36  N          3.0880   -0.9830   20.9800 N.3   228  GLY228     -0.1210
     37  CA         1.7690   -0.5810   20.4920 C.3   228  GLY228      0.1956
     38  C          0.8030   -1.7150   20.2150 C.2   228  GLY228      0.2611
     39  O         -0.3970   -1.5810   20.4740 O.2   228  GLY228     -0.2717
     40  N          1.3280   -2.8510   19.7050 N.am  229  GLU229     -0.1979
     41  CA         0.5760   -4.0660   19.3850 C.3   229  GLU229      0.1602
     42  C         -0.1620   -4.6500   20.5830 C.2   229  GLU229      0.2287
     43  O         -1.2440   -5.1980   20.3990 O.2   229  GLU229     -0.2864
     44  CB         1.4930   -5.1270   18.7700 C.3   229  GLU229      0.0415
     45  CG         0.7710   -6.0470   17.7950 C.3   229  GLU229      0.1163
     46  CD         1.4990   -7.2940   17.3190 C.2   229  GLU229      0.3649
     47  OE1        2.7530   -7.3150   17.3240 O.co2 229  GLU229     -0.2457
     48  OE2        0.7990   -8.2510   16.9130 O.co2 229  GLU229     -0.2457
     49  N         -3.4480   -2.8120   21.1320 N.3   232  ASP232     -0.1239
     50  CA        -4.4120   -3.2710   20.1270 C.3   232  ASP232      0.1674
     51  C         -5.0490   -4.5650   20.6530 C.2   232  ASP232      0.2266
     52  O         -6.2710   -4.6800   20.6130 O.2   232  ASP232     -0.2867
     53  CB        -3.7090   -3.5330   18.7770 C.3   232  ASP232      0.1410
     54  CG        -2.9320   -2.3690   18.1880 C.2   232  ASP232      0.3668
     55  OD1       -3.1670   -1.2270   18.6120 O.co2 232  ASP232     -0.2456
     56  OD2       -2.0690   -2.6110   17.3120 O.co2 232  ASP232     -0.2456
     57  N         -6.7440   -0.6290   15.8660 N.3   266  GLU266     -0.1231
     58  CA        -5.5020    0.1080   15.7470 C.3   266  GLU266      0.1699
     59  C         -5.8300    1.5710   15.5050 C.2   266  GLU266      0.2592
     60  O         -5.2830    2.4530   16.1540 O.2   266  GLU266     -0.2718
     61  CB        -4.6750   -0.4640   14.5960 C.3   266  GLU266      0.0402
     62  CG        -3.1900   -0.6000   14.8760 C.3   266  GLU266      0.1161
     63  CD        -2.3520    0.4620   14.1940 C.2   266  GLU266      0.3649
     64  OE1       -1.1290    0.2530   14.0520 O.co2 266  GLU266     -0.2457
     65  OE2       -2.9140    1.4970   13.7900 O.co2 266  GLU266     -0.2457
     66  N         -6.7460    1.8140   14.5750 N.am  267  ARG267     -0.1980
     67  CA        -7.1710    3.1660   14.2360 C.3   267  ARG267      0.1597
     68  C         -7.9070    3.8530   15.3790 C.2   267  ARG267      0.2287
     69  O         -7.7290    5.0400   15.6150 O.2   267  ARG267     -0.2864
     70  CB        -8.0510    3.1500   12.9880 C.3   267  ARG267      0.0334
     71  CG        -8.7430    4.4690   12.7090 C.3   267  ARG267      0.0492
     72  CD        -9.4340    4.4510   11.3630 C.3   267  ARG267      0.2205
     73  NE        -8.4850    4.1710   10.2970 N.pl3 267  ARG267     -0.0865
     74  CZ        -7.7060    5.0860    9.7360 C.cat 267  ARG267      0.5346
     75  NH1       -7.7680    6.3470   10.1340 N.pl3 267  ARG267      0.1354
     76  NH2       -6.8650    4.7380    8.7770 N.pl3 267  ARG267      0.1354
     77  N         -7.6100    3.2780   18.7320 N.3   269  LYS269     -0.1231
     78  CA        -6.6070    3.6590   19.7130 C.3   269  LYS269      0.1693
     79  C         -5.9240    4.9420   19.2730 C.2   269  LYS269      0.2591
     80  O         -5.5510    5.7800   20.0870 O.2   269  LYS269     -0.2718
     81  CB        -5.5650    2.5520   19.8580 C.3   269  LYS269      0.0285
     82  CG        -4.3120    2.9760   20.6020 C.3   269  LYS269      0.0035
     83  CD        -3.1530    2.0400   20.3270 C.3   269  LYS269      0.0206
     84  CE        -2.7080    2.1150   18.8780 C.3   269  LYS269      0.1093
     85  NZ        -1.5460    1.2290   18.6040 N.3   269  LYS269     -0.1314
     86  N         -5.7660    5.0770   17.9660 N.am  270  ARG270     -0.1980
     87  CA        -5.0390    6.1830   17.3760 C.3   270  ARG270      0.1597
     88  C         -5.8390    7.4790   17.4620 C.2   270  ARG270      0.2287
     89  O         -5.2840    8.5510   17.6630 O.2   270  ARG270     -0.2864
     90  CB        -4.7140    5.8430   15.9260 C.3   270  ARG270      0.0334
     91  CG        -3.3070    6.1940   15.5070 C.3   270  ARG270      0.0492
     92  CD        -2.7180    5.1470   14.5780 C.3   270  ARG270      0.2205
     93  NE        -3.6230    4.7620   13.5010 N.pl3 270  ARG270     -0.0865
     94  CZ        -3.9020    5.5140   12.4450 C.cat 270  ARG270      0.5346
     95  NH1       -3.3600    6.7120   12.3180 N.pl3 270  ARG270      0.1354
     96  NH2       -4.7300    5.0670   11.5200 N.pl3 270  ARG270      0.1354
     97  N         -5.7880    9.4000   20.9470 N.3   273  SER273     -0.1217
     98  CA        -4.6360   10.1970   21.3470 C.3   273  SER273      0.1889
     99  C         -4.9560   11.6790   21.2300 C.2   273  SER273      0.2288
    100  O         -4.3550   12.5100   21.9030 O.2   273  SER273     -0.2866
    101  CB        -3.4180    9.8590   20.4910 C.3   273  SER273      0.2089
    102  OG        -2.8650    8.6130   20.8590 O.3   273  SER273     -0.2183
    103  N          6.2200    5.7070   18.1480 N.3   337  GLY337     -0.1210
    104  CA         4.8540    6.1080   17.8180 C.3   337  GLY337      0.1956
    105  C          3.8230    5.9930   18.9200 C.2   337  GLY337      0.2612
    106  O          2.8480    6.7440   18.9250 O.2   337  GLY337     -0.2717
    107  N          4.0310    5.0540   19.8630 N.am  338  SER338     -0.1952
    108  CA         3.1250    4.8120   20.9830 C.3   338  SER338      0.1924
    109  C          3.2290    5.8960   22.0700 C.2   338  SER338      0.2314
    110  O          2.3110    6.0250   22.8930 O.2   338  SER338     -0.2863
    111  CB         3.3570    3.4170   21.5570 C.3   338  SER338      0.2116
    112  OG         3.1870    2.4310   20.5490 O.3   338  SER338     -0.2180
    113  N          2.7380    8.8350   21.6860 N.3   340  ARG340     -0.1231
    114  CA         1.6660    9.7800   21.3690 C.3   340  ARG340      0.1694
    115  C          0.4860    9.6350   22.3570 C.2   340  ARG340      0.2591
    116  O         -0.2870   10.5820   22.4790 O.2   340  ARG340     -0.2718
    117  CB         1.1810    9.5970   19.9290 C.3   340  ARG340      0.0321
    118  CG         2.1760   10.0620   18.8720 C.3   340  ARG340      0.0489
    119  CD         1.4620   10.1660   17.5290 C.3   340  ARG340      0.2205
    120  NE         2.3370   10.6710   16.4680 N.pl3 340  ARG340     -0.0865
    121  CZ         3.1090    9.9090   15.6980 C.cat 340  ARG340      0.5346
    122  NH1        3.1390    8.5950   15.8700 N.pl3 340  ARG340      0.1354
    123  NH2        3.8690   10.4590   14.7600 N.pl3 340  ARG340      0.1354
    124  N          0.3630    8.4550   23.0670 N.am  341  ILE341     -0.1980
    125  CA        -0.6960    8.1710   24.0520 C.3   341  ILE341      0.1595
    126  C         -0.5860    9.1310   25.2240 C.2   341  ILE341      0.2287
    127  O          0.4320    9.1020   25.9190 O.2   341  ILE341     -0.2864
    128  CB        -0.7890    6.6840   24.5110 C.3   341  ILE341      0.0276
    129  CG1       -0.9510    5.7120   23.3120 C.3   341  ILE341      0.0022
    130  CG2       -1.9400    6.5050   25.5310 C.3   341  ILE341      0.0022
    131  CD1       -0.5440    4.2600   23.6160 C.3   341  ILE341      0.0001
    132  N          8.2690    8.8650   15.1930 N.3   364  ASP364     -0.1239
    133  CA         8.5720    7.7780   14.2760 C.3   364  ASP364      0.1674
    134  C          9.7890    8.1010   13.4110 C.2   364  ASP364      0.2266
    135  O         10.4310    7.1730   12.9040 O.2   364  ASP364     -0.2867
    136  CB         7.3580    7.5040   13.3870 C.3   364  ASP364      0.1410
    137  CG         6.1720    6.9780   14.1560 C.2   364  ASP364      0.3668
    138  OD1        6.3100    5.9150   14.7850 O.co2 364  ASP364     -0.2456
    139  OD2        5.0920    7.6230   14.1090 O.co2 364  ASP364     -0.2456
@<TRIPOS>BOND
     1    13    14    1
     2    20    18   am
     3    16    15    2
     4    14    15    1
     5    14    17    1
     6    18    17    1
     7    18    19    2
     8    24    23    2
     9    23    22    1
    10    21    22    1
    11    22    25    1
    12    25    27    1
    13    25    26    1
    14    76    74    1
    15    74    75    1
    16    74    73    2
    17     7     9   ar
    18     7     6   ar
    19     9    11   ar
    20    73    72    1
    21     3     2    1
    22     3     4    2
    23     2     5    1
    24     2     1    1
    25     5     6    1
    26    72    71    1
    27     6     8   ar
    28    11    12    1
    29    11    10   ar
    30    96    94    1
    31    95    94    1
    32    94    93    2
    33     8    10   ar
    34    71    70    1
    35   135   134    2
    36    70    67    1
    37   136   137    1
    38   136   133    1
    39   134   133    1
    40    93    92    1
    41    65    63   ar
    42    64    63   ar
    43   139   137   ar
    44   137   138   ar
    45    63    62    1
    46    67    66    1
    47    67    68    1
    48   133   132    1
    49    66    59   am
    50    92    91    1
    51    61    62    1
    52    61    58    1
    53   123   121    1
    54    68    69    2
    55    59    58    1
    56    59    60    2
    57    91    90    1
    58   121   122    1
    59   121   120    2
    60    58    57    1
    61    90    87    1
    62   120   119    1
    63    48    46   ar
    64    56    54   ar
    65    46    47   ar
    66    46    45    1
    67    87    88    1
    68    87    86    1
    69    88    89    2
    70   119   118    1
    71    33    32    1
    72    33    34    1
    73    45    44    1
    74   104   103    1
    75   104   105    1
    76    86    79   am
    77    32    30   am
    78    54    55   ar
    79    54    53    1
    80    34    35    2
    81    85    84    1
    82    77    78    1
    83    44    41    1
    84    53    50    1
    85   118   117    1
    86    84    83    1
    87   105   106    2
    88   105   107   am
    89    30    29    1
    90    30    31    2
    91    79    78    1
    92    79    80    2
    93    41    40    1
    94    41    42    1
    95    29    28    1
    96    40    38   am
    97    78    81    1
    98    81    82    1
    99   107   108    1
   100   117   114    1
   101    50    51    1
   102    50    49    1
   103    38    39    2
   104    38    37    1
   105    83    82    1
   106    43    42    2
   107   101   102    1
   108   101    98    1
   109    37    36    1
   110   112   111    1
   111    52    51    2
   112    97    98    1
   113   108   111    1
   114   108   109    1
   115    99    98    1
   116    99   100    2
   117   114   113    1
   118   114   115    1
   119   109   110    2
   120   115   116    2
   121   115   124   am
   122   124   125    1
   123   129   131    1
   124   129   128    1
   125   125   128    1
   126   125   126    1
   127   128   130    1
   128   126   127    2
