@<TRIPOS>MOLECULE
tmp/4ioiB00.pdb
 116 111 0 0 0
SMALL
GASTEIGER

@<TRIPOS>ATOM
      1  N        -22.4610  -14.9800   13.9940 N.3    39  GLN39      -0.1231
      2  CA       -22.9140  -16.3110   14.4060 C.3    39  GLN39       0.1698
      3  C        -24.1680  -16.1780   15.2580 C.2    39  GLN39       0.2593
      4  O        -24.1690  -15.4800   16.2770 O.2    39  GLN39      -0.2718
      5  CB       -21.8040  -17.0320   15.1740 C.3    39  GLN39       0.0381
      6  CG       -22.0500  -18.5450   15.4250 C.3    39  GLN39       0.0905
      7  CD       -20.8240  -19.2250   16.0150 C.2    39  GLN39       0.2608
      8  OE1      -20.0140  -18.5720   16.6690 O.2    39  GLN39      -0.2717
      9  NE2      -20.6790  -20.5410   15.7830 N.am   39  GLN39      -0.0878
     10  N        -25.2400  -16.8460   14.8370 N.am   40  SER40      -0.1939
     11  CA       -26.5450  -16.6590   15.4760 C.3    40  SER40       0.2040
     12  C        -27.3040  -17.9820   15.5410 C.2    40  SER40       0.2485
     13  O        -27.0080  -18.8890   14.7790 O.2    40  SER40      -0.2729
     14  CB       -27.3690  -15.6610   14.6630 C.3    40  SER40       0.2129
     15  OG       -27.7520  -16.2420   13.4200 O.3    40  SER40      -0.2179
     16  N        -28.3000  -18.0870   16.4410 N.am   41  PRO41      -0.2715
     17  CA       -29.1000  -19.3140   16.5090 C.3    41  PRO41       0.1536
     18  C        -29.7660  -19.6160   15.1750 C.2    41  PRO41       0.2599
     19  O        -29.8620  -20.7750   14.7920 O.2    41  PRO41      -0.2715
     20  CB       -30.1730  -18.9750   17.5550 C.3    41  PRO41       0.0310
     21  CG       -29.5410  -17.9410   18.4150 C.3    41  PRO41       0.0237
     22  CD       -28.7280  -17.1010   17.4520 C.3    41  PRO41       0.0939
     23  N        -30.2070  -18.5720   14.4760 N.am   42  GLY42      -0.1955
     24  CA       -30.9960  -18.7500   13.2730 C.3    42  GLY42       0.1869
     25  C        -30.2100  -19.2090   12.0560 C.2    42  GLY42       0.2309
     26  O        -30.7020  -20.0100   11.2510 O.2    42  GLY42      -0.2863
     27  N        -26.5280  -19.7750   12.1920 N.3    44  GLY44      -0.1225
     28  CA       -25.2170  -20.2940   12.5230 C.3    44  GLY44       0.1811
     29  C        -24.1570  -19.3280   12.0270 C.2    44  GLY44       0.2280
     30  O        -24.3440  -18.1200   12.0890 O.2    44  GLY44      -0.2866
     31  N        -29.2510   -9.9700   15.2720 N.3    91  THR91      -0.1203
     32  CA       -28.7450  -10.2830   16.6120 C.3    91  THR91       0.1994
     33  C        -27.8080  -11.4620   16.5030 C.2    91  THR91       0.2618
     34  O        -28.1910  -12.4940   15.9560 O.2    91  THR91      -0.2717
     35  CB       -29.9040  -10.6460   17.5690 C.3    91  THR91       0.1784
     36  OG1      -30.7020   -9.4750   17.8040 O.3    91  THR91      -0.2211
     37  CG2      -29.3750  -11.1780   18.8830 C.3    91  THR91       0.0376
     38  N        -26.5760  -11.3070   16.9960 N.am   92  ALA92      -0.1965
     39  CA       -25.5350  -12.3100   16.7630 C.3    92  ALA92       0.1728
     40  C        -24.2410  -11.9220   17.4540 C.2    92  ALA92       0.2616
     41  O        -24.0920  -10.7990   17.9140 O.2    92  ALA92      -0.2715
     42  CB       -25.2620  -12.4680   15.2430 C.3    92  ALA92       0.0334
     43  N        -23.2990  -12.8580   17.5020 N.am   93  ILE93      -0.1977
     44  CA       -21.9380  -12.5080   17.8600 C.3    93  ILE93       0.1596
     45  C        -21.2670  -12.1220   16.5630 C.2    93  ILE93       0.2287
     46  O        -21.3580  -12.8580   15.5780 O.2    93  ILE93      -0.2864
     47  CB       -21.1550  -13.7120   18.4090 C.3    93  ILE93       0.0276
     48  CG1      -21.8950  -14.3580   19.5750 C.3    93  ILE93       0.0022
     49  CG2      -19.7450  -13.2790   18.8140 C.3    93  ILE93       0.0022
     50  CD1      -22.0390  -13.4690   20.7490 C.3    93  ILE93       0.0001
     51  N        -17.7720  -11.3670   14.6650 N.3    95  TYR95      -0.1241
     52  CA       -16.3360  -11.5430   14.6860 C.3    95  TYR95       0.1605
     53  C        -15.6820  -10.8300   13.5270 C.2    95  TYR95       0.2264
     54  O        -16.2350  -10.7520   12.4410 O.2    95  TYR95      -0.2867
     55  CB       -15.9630  -13.0030   14.4570 C.3    95  TYR95       0.0534
     56  CG       -16.5790  -13.9890   15.3960 C.ar   95  TYR95      -0.0201
     57  CD1      -15.9600  -14.3250   16.5900 C.ar   95  TYR95      -0.0009
     58  CD2      -17.7670  -14.6210   15.0670 C.ar   95  TYR95      -0.0009
     59  CE1      -16.5300  -15.2730   17.4460 C.ar   95  TYR95       0.0417
     60  CE2      -18.3460  -15.5480   15.9130 C.ar   95  TYR95       0.0417
     61  CZ       -17.7230  -15.8680   17.0940 C.ar   95  TYR95       0.1957
     62  OH       -18.3120  -16.8060   17.9070 O.3    95  TYR95      -0.2866
     63  N        -12.2520  -12.1320   19.6160 N.3   112  GLN112     -0.1231
     64  CA       -13.0670  -12.7590   20.6520 C.3   112  GLN112      0.1698
     65  C        -14.5630  -12.6560   20.3400 C.2   112  GLN112      0.2592
     66  O        -15.3660  -13.4310   20.8640 O.2   112  GLN112     -0.2718
     67  CB       -12.7430  -12.1860   22.0430 C.3   112  GLN112      0.0381
     68  CG       -13.3360  -10.8000   22.3670 C.3   112  GLN112      0.0905
     69  CD       -12.7530   -9.6400   21.5410 C.2   112  GLN112      0.2608
     70  OE1      -11.6620   -9.7420   20.9730 O.2   112  GLN112     -0.2717
     71  NE2      -13.4970   -8.5290   21.4770 N.am  112  GLN112     -0.0878
     72  N        -14.9260  -11.6990   19.4880 N.am  113  GLY113     -0.1957
     73  CA       -16.3060  -11.5300   19.0690 C.3   113  GLY113      0.1869
     74  C        -17.0070  -10.4940   19.9230 C.2   113  GLY113      0.2309
     75  O        -16.6840  -10.3380   21.1010 O.2   113  GLY113     -0.2863
     76  N        -20.9860   -8.9980   20.9220 N.3   115  LEU115     -0.1245
     77  CA       -22.4110   -9.3420   20.8860 C.3   115  LEU115      0.1561
     78  C        -23.2940   -8.1640   20.5150 C.2   115  LEU115      0.2260
     79  O        -23.2840   -7.1400   21.1890 O.2   115  LEU115     -0.2867
     80  CB       -22.8620   -9.9250   22.2390 C.3   115  LEU115      0.0270
     81  CG       -24.3560  -10.2520   22.3900 C.3   115  LEU115      0.0019
     82  CD1      -24.8090  -11.2840   21.3620 C.3   115  LEU115      0.0001
     83  CD2      -24.6970  -10.7450   23.8130 C.3   115  LEU115      0.0001
     84  N        -27.7720   -9.8350   27.5870 N.3   155  GLU155     -0.1245
     85  CA       -26.5140  -10.5290   27.7830 C.3   155  GLU155      0.1567
     86  C        -25.3710   -9.5970   27.3620 C.2   155  GLU155      0.2260
     87  O        -25.5890   -8.6300   26.6250 O.2   155  GLU155     -0.2867
     88  CB       -26.5110  -11.8330   26.9730 C.3   155  GLU155      0.0388
     89  CG       -27.3140  -12.9500   27.6080 C.3   155  GLU155      0.1160
     90  CD       -26.4330  -13.9250   28.3740 C.2   155  GLU155      0.3649
     91  OE1      -26.1350  -14.9980   27.8070 O.co2 155  GLU155     -0.2457
     92  OE2      -26.0330  -13.6200   29.5290 O.co2 155  GLU155     -0.2457
     93  N        -24.9580  -21.5950   31.8830 N.3   174  PRO174     -0.2102
     94  CA       -25.4540  -20.7710   30.7770 C.3   174  PRO174      0.1504
     95  C        -26.6670  -19.9880   31.2470 C.2   174  PRO174      0.2575
     96  O        -27.4690  -20.5020   32.0330 O.2   174  PRO174     -0.2718
     97  CB       -25.8870  -21.8030   29.7380 C.3   174  PRO174      0.0282
     98  CG       -25.0700  -23.0180   30.0310 C.3   174  PRO174      0.0208
     99  CD       -24.8520  -23.0210   31.5230 C.3   174  PRO174      0.0893
    100  N        -26.7940  -18.7520   30.7770 N.am  175  ALA175     -0.1980
    101  CA       -27.9300  -17.9150   31.1290 C.3   175  ALA175      0.1597
    102  C        -29.2200  -18.5130   30.5970 C.2   175  ALA175      0.2287
    103  O        -29.2380  -19.1390   29.5400 O.2   175  ALA175     -0.2864
    104  CB       -27.7410  -16.4990   30.5720 C.3   175  ALA175      0.0319
    105  N        -32.8450  -12.1850   31.8270 N.3   183  TYR183     -0.1241
    106  CA       -31.9770  -13.3420   31.9820 C.3   183  TYR183      0.1605
    107  C        -31.6360  -13.5830   33.4460 C.2   183  TYR183      0.2264
    108  O        -31.6780  -12.6680   34.2660 O.2   183  TYR183     -0.2867
    109  CB       -30.6970  -13.1520   31.1860 C.3   183  TYR183      0.0534
    110  CG       -30.9230  -13.2530   29.7010 C.ar  183  TYR183     -0.0201
    111  CD1      -30.8800  -14.4880   29.0600 C.ar  183  TYR183     -0.0009
    112  CD2      -31.2050  -12.1170   28.9380 C.ar  183  TYR183     -0.0009
    113  CE1      -31.0960  -14.5920   27.6870 C.ar  183  TYR183      0.0417
    114  CE2      -31.4300  -12.2120   27.5730 C.ar  183  TYR183      0.0417
    115  CZ       -31.3730  -13.4540   26.9560 C.ar  183  TYR183      0.1957
    116  OH       -31.5890  -13.5740   25.6050 O.3   183  TYR183     -0.2866
@<TRIPOS>BOND
     1    26    25    2
     2    29    30    2
     3    29    28    1
     4    25    24    1
     5    27    28    1
     6    54    53    2
     7    24    23    1
     8    15    14    1
     9    53    52    1
    10     1     2    1
    11     2     5    1
    12     2     3    1
    13    55    52    1
    14    55    56    1
    15    23    18   am
    16    14    11    1
    17    51    52    1
    18    13    12    2
    19    19    18    2
    20    10     3   am
    21    10    11    1
    22    58    56   ar
    23    58    60   ar
    24     5     6    1
    25    18    17    1
    26    42    39    1
    27     3     4    2
    28    31    32    1
    29    56    57   ar
    30     6     7    1
    31    11    12    1
    32    12    16   am
    33    46    45    2
    34     9     7   am
    35    60    61   ar
    36    34    33    2
    37     7     8    2
    38    16    17    1
    39    16    22    1
    40    33    32    1
    41    33    38   am
    42    17    20    1
    43    45    44    1
    44    57    59   ar
    45    32    35    1
    46    39    38    1
    47    39    40    1
    48    61    59   ar
    49    61    62    1
    50    22    21    1
    51    40    43   am
    52    40    41    2
    53    43    44    1
    54    20    21    1
    55    35    36    1
    56    35    37    1
    57    44    47    1
    58    47    49    1
    59    47    48    1
    60    73    72    1
    61    73    74    1
    62    72    65   am
    63    48    50    1
    64    63    64    1
    65    74    75    2
    66    65    64    1
    67    65    66    2
    68    78    77    1
    69    78    79    2
    70    64    67    1
    71    77    76    1
    72    77    80    1
    73    70    69    2
    74    82    81    1
    75    71    69   am
    76    69    68    1
    77    67    68    1
    78    80    81    1
    79    81    83    1
    80   116   115    1
    81    87    86    2
    82   115   114   ar
    83   115   113   ar
    84    88    89    1
    85    88    85    1
    86    86    85    1
    87   114   112   ar
    88    84    85    1
    89    89    90    1
    90   113   111   ar
    91    91    90   ar
    92    90    92   ar
    93   112   110   ar
    94   111   110   ar
    95   103   102    2
    96   110   109    1
    97    97    98    1
    98    97    94    1
    99    98    99    1
   100   104   101    1
   101   102   101    1
   102   100   101    1
   103   100    95   am
   104    94    95    1
   105    94    93    1
   106   109   106    1
   107    95    96    2
   108    99    93    1
   109   105   106    1
   110   106   107    1
   111   107   108    2
