@<TRIPOS>MOLECULE
tmp/4iokA01.pdb
 103 97 0 0 0
SMALL
GASTEIGER

@<TRIPOS>ATOM
      1  N         28.4780   21.6800   79.4740 N.3    65  PRO65      -0.2102
      2  CA        27.5020   22.1270   80.4950 C.3    65  PRO65       0.1504
      3  C         26.9830   21.0940   81.5040 C.2    65  PRO65       0.2576
      4  O         27.0800   19.9000   81.2740 O.2    65  PRO65      -0.2718
      5  CB        26.3290   22.6740   79.6580 C.3    65  PRO65       0.0282
      6  CG        26.4550   22.0080   78.3280 C.3    65  PRO65       0.0208
      7  CD        27.8900   21.5980   78.1210 C.3    65  PRO65       0.0893
      8  N         26.4760   21.5890   82.6300 N.am   66  THR66      -0.1953
      9  CA        25.6050   20.8410   83.5240 C.3    66  THR66       0.1897
     10  C         24.1680   21.0600   83.0320 C.2    66  THR66       0.2313
     11  O         23.9540   21.8330   82.0900 O.2    66  THR66      -0.2863
     12  CB        25.7000   21.3190   85.0020 C.3    66  THR66       0.1794
     13  OG1       24.8210   22.4380   85.2220 O.3    66  THR66      -0.2208
     14  CG2       27.1230   21.6790   85.3820 C.3    66  THR66       0.0378
     15  N         23.0630   24.7060   82.7580 N.3    69  GLY69      -0.1210
     16  CA        23.5600   25.4890   81.6150 C.3    69  GLY69       0.1956
     17  C         24.5650   26.4760   82.1710 C.2    69  GLY69       0.2611
     18  O         24.4970   26.8380   83.3450 O.2    69  GLY69      -0.2717
     19  N         25.5260   26.9080   81.3770 N.am   70  GLU70      -0.1979
     20  CA        26.6200   27.6340   82.0180 C.3    70  GLU70       0.1602
     21  C         26.6650   29.1670   81.8300 C.2    70  GLU70       0.2287
     22  O         27.5600   29.8290   82.3700 O.2    70  GLU70      -0.2864
     23  CB        27.9750   26.9460   81.7440 C.3    70  GLU70       0.0415
     24  CG        28.1220   25.5430   82.3480 C.3    70  GLU70       0.1163
     25  CD        27.3150   25.2770   83.6350 C.2    70  GLU70       0.3649
     26  OE1       27.4640   26.0020   84.6380 O.co2  70  GLU70      -0.2457
     27  OE2       26.5330   24.2980   83.6690 O.co2  70  GLU70      -0.2457
     28  N         25.9430   31.1400   78.6020 N.3    72  LYS72      -0.1231
     29  CA        26.1590   31.8180   77.3380 C.3    72  LYS72       0.1693
     30  C         25.1670   32.9560   77.2030 C.2    72  LYS72       0.2592
     31  O         25.5200   34.0840   76.9150 O.2    72  LYS72      -0.2718
     32  CB        25.9970   30.8780   76.1470 C.3    72  LYS72       0.0285
     33  CG        27.2220   30.0520   75.8170 C.3    72  LYS72       0.0035
     34  CD        26.9440   29.0190   74.7180 C.3    72  LYS72       0.0206
     35  CE        26.3720   27.7310   75.2770 C.3    72  LYS72       0.1093
     36  NZ        24.9880   27.7970   75.8310 N.3    72  LYS72      -0.1314
     37  N         23.9070   32.6620   77.3950 N.am   73  THR73      -0.1953
     38  CA        22.9130   33.6630   77.0830 C.3    73  THR73       0.1897
     39  C         23.0500   34.8650   78.0130 C.2    73  THR73       0.2313
     40  O         23.1660   35.9840   77.5560 O.2    73  THR73      -0.2863
     41  CB        21.4930   33.0570   77.0560 C.3    73  THR73       0.1794
     42  OG1       21.4240   32.2250   75.9020 O.3    73  THR73      -0.2208
     43  CG2       20.4360   34.1100   76.9410 C.3    73  THR73       0.0378
     44  N         18.6860   33.2970   70.0320 N.3    95  ARG95      -0.1245
     45  CA        17.7160   32.3240   69.5270 C.3    95  ARG95       0.1563
     46  C         16.4520   32.4770   70.3350 C.2    95  ARG95       0.2260
     47  O         16.5050   32.7930   71.5270 O.2    95  ARG95      -0.2867
     48  CB        18.2360   30.8870   69.6810 C.3    95  ARG95       0.0307
     49  CG        19.4530   30.5680   68.8500 C.3    95  ARG95       0.0489
     50  CD        19.9470   29.1610   69.1690 C.3    95  ARG95       0.2205
     51  NE        20.6010   29.1360   70.4800 N.pl3  95  ARG95      -0.0865
     52  CZ        20.8870   28.0300   71.1590 C.cat  95  ARG95       0.5346
     53  NH1       20.5450   26.8380   70.6500 N.pl3  95  ARG95       0.1354
     54  NH2       21.4710   28.1210   72.3630 N.pl3  95  ARG95       0.1354
     55  N         15.0710   22.7610   82.0670 N.3   106  LYS106     -0.1245
     56  CA        15.9590   23.8710   81.6670 C.3   106  LYS106      0.1561
     57  C         15.3670   25.2910   81.8490 C.2   106  LYS106      0.2260
     58  O         16.1040   26.2300   82.1350 O.2   106  LYS106     -0.2867
     59  CB        16.4520   23.7040   80.2230 C.3   106  LYS106      0.0271
     60  CG        17.5830   24.6490   79.7890 C.3   106  LYS106      0.0035
     61  CD        18.9670   23.9860   79.8810 C.3   106  LYS106      0.0206
     62  CE        20.0880   24.9280   80.3310 C.3   106  LYS106      0.1093
     63  NZ        20.1750   26.2440   79.6260 N.3   106  LYS106     -0.1314
     64  N         15.0460   30.7170   77.6210 N.3   109  ALA109     -0.1245
     65  CA        16.3700   31.1850   77.2420 C.3   109  ALA109      0.1562
     66  C         16.4410   32.7340   77.1250 C.2   109  ALA109      0.2260
     67  O         16.8810   33.2820   76.1170 O.2   109  ALA109     -0.2867
     68  CB        16.8570   30.4650   75.9770 C.3   109  ALA109      0.0290
     69  N         17.9370   23.8360   68.8440 N.3   273  PHE273     -0.1241
     70  CA        18.9160   23.2570   69.8000 C.3   273  PHE273      0.1605
     71  C         20.2310   22.9370   69.1280 C.2   273  PHE273      0.2264
     72  O         20.2610   22.7180   67.9170 O.2   273  PHE273     -0.2867
     73  CB        18.4130   21.9190   70.3250 C.3   273  PHE273      0.0534
     74  CG        17.2120   22.0080   71.1970 C.ar  273  PHE273     -0.0203
     75  CD1       16.8360   23.2140   71.7910 C.ar  273  PHE273     -0.0042
     76  CD2       16.4650   20.8620   71.4600 C.ar  273  PHE273     -0.0042
     77  CE1       15.7230   23.2700   72.6210 C.ar  273  PHE273     -0.0003
     78  CE2       15.3590   20.9180   72.2920 C.ar  273  PHE273     -0.0003
     79  CZ        14.9870   22.1220   72.8720 C.ar  273  PHE273     -0.0000
     80  N         25.1930   34.0650   69.7930 N.3   299  GLU299     -0.1245
     81  CA        25.3780   32.8330   70.5610 C.3   299  GLU299      0.1567
     82  C         25.1910   31.5360   69.7150 C.2   299  GLU299      0.2260
     83  O         24.3590   31.4740   68.7780 O.2   299  GLU299     -0.2867
     84  CB        24.4510   32.8460   71.7740 C.3   299  GLU299      0.0388
     85  CG        24.5380   31.6330   72.6790 C.3   299  GLU299      0.1160
     86  CD        23.3350   31.5170   73.6020 C.2   299  GLU299      0.3649
     87  OE1       23.1310   30.4370   74.2110 O.co2 299  GLU299     -0.2457
     88  OE2       22.5870   32.5160   73.7220 O.co2 299  GLU299     -0.2457
     89  N         24.5200   27.2810   70.3260 N.3   301  GLY301     -0.1210
     90  CA        23.9950   26.3410   71.3310 C.3   301  GLY301      0.1956
     91  C         25.0000   25.4360   72.0400 C.2   301  GLY301      0.2611
     92  O         25.9690   24.9490   71.4170 O.2   301  GLY301     -0.2717
     93  N         24.7390   25.2090   73.3350 N.am  302  PHE302     -0.1976
     94  CA        25.5410   24.3450   74.2040 C.3   302  PHE302      0.1639
     95  C         27.0530   24.5690   74.0590 C.2   302  PHE302      0.2290
     96  O         27.4900   25.6970   73.8360 O.2   302  PHE302     -0.2864
     97  CB        25.2160   22.8600   73.9920 C.3   302  PHE302      0.0560
     98  CG        23.7900   22.4900   74.2850 C.ar  302  PHE302     -0.0200
     99  CD1       23.2630   22.6380   75.5620 C.ar  302  PHE302     -0.0042
    100  CD2       22.9790   21.9530   73.2750 C.ar  302  PHE302     -0.0042
    101  CE1       21.9440   22.2830   75.8230 C.ar  302  PHE302     -0.0003
    102  CE2       21.6710   21.6040   73.5190 C.ar  302  PHE302     -0.0003
    103  CZ        21.1480   21.7720   74.8010 C.ar  302  PHE302     -0.0000
@<TRIPOS>BOND
     1    72    71    2
     2    83    82    2
     3    69    70    1
     4    49    50    1
     5    49    48    1
     6    71    70    1
     7    50    51    1
     8    45    48    1
     9    45    44    1
    10    45    46    1
    11    82    81    1
    12    80    81    1
    13    70    73    1
    14    73    74    1
    15    89    90    1
    16    46    47    2
    17    51    52    2
    18    81    84    1
    19    53    52    1
    20    52    54    1
    21    74    76   ar
    22    74    75   ar
    23    90    91    1
    24    92    91    2
    25    76    78   ar
    26    84    85    1
    27    75    77   ar
    28    91    93   am
    29    78    79   ar
    30    77    79   ar
    31    85    86    1
    32   100   102   ar
    33   100    98   ar
    34    93    94    1
    35   102   103   ar
    36    86    88   ar
    37    86    87   ar
    38    96    95    2
    39    97    94    1
    40    97    98    1
    41    95    94    1
    42    98    99   ar
    43    34    35    1
    44    34    33    1
    45   103   101   ar
    46    35    36    1
    47    99   101   ar
    48    33    32    1
    49    42    41    1
    50    68    65    1
    51    67    66    2
    52    32    29    1
    53    31    30    2
    54    43    41    1
    55    41    38    1
    56    38    37    1
    57    38    39    1
    58    66    65    1
    59    30    29    1
    60    30    37   am
    61    65    64    1
    62    29    28    1
    63    40    39    2
    64     7     6    1
    65     7     1    1
    66     6     5    1
    67     1     2    1
    68    63    62    1
    69     5     2    1
    70    60    61    1
    71    60    59    1
    72    61    62    1
    73    59    56    1
    74     2     3    1
    75     4     3    2
    76    19    20    1
    77    19    17   am
    78     3     8   am
    79    16    17    1
    80    16    15    1
    81    56    57    1
    82    56    55    1
    83    23    20    1
    84    23    24    1
    85    21    20    1
    86    21    22    2
    87    57    58    2
    88    11    10    2
    89    17    18    2
    90    24    25    1
    91     8     9    1
    92    10     9    1
    93     9    12    1
    94    25    27   ar
    95    25    26   ar
    96    12    13    1
    97    12    14    1
