@<TRIPOS>MOLECULE
tmp/4iooA00.pdb
 87 83 0 0 0
SMALL
GASTEIGER

@<TRIPOS>ATOM
      1  N          6.1520    2.4210   -0.7850 N.3    41  PRO41      -0.2102
      2  CA         7.3630    3.2330   -1.0440 C.3    41  PRO41       0.1504
      3  C          8.1000    2.7710   -2.2970 C.2    41  PRO41       0.2575
      4  O          8.9860    3.4810   -2.7420 O.2    41  PRO41      -0.2718
      5  CB         8.2270    3.0020    0.1750 C.3    41  PRO41       0.0282
      6  CG         7.2720    2.5330    1.2350 C.3    41  PRO41       0.0208
      7  CD         6.2790    1.6930    0.4840 C.3    41  PRO41       0.0893
      8  N          7.7790    1.5910   -2.7840 N.am   42  PHE42      -0.1977
      9  CA         8.4920    0.9300   -3.8700 C.3    42  PHE42       0.1639
     10  C          7.7050    0.9000   -5.1690 C.2    42  PHE42       0.2290
     11  O          8.1820    0.3140   -6.1320 O.2    42  PHE42      -0.2864
     12  CB         8.8920   -0.5000   -3.4530 C.3    42  PHE42       0.0560
     13  CG         9.7220   -0.5270   -2.1840 C.ar   42  PHE42      -0.0200
     14  CD1       11.1000   -0.2360   -2.1980 C.ar   42  PHE42      -0.0042
     15  CD2        9.0990   -0.7680   -0.9510 C.ar   42  PHE42      -0.0042
     16  CE1       11.8350   -0.2700   -1.0180 C.ar   42  PHE42      -0.0003
     17  CE2        9.8440   -0.7700    0.2260 C.ar   42  PHE42      -0.0003
     18  CZ        11.1830   -0.5100    0.1880 C.ar   42  PHE42      -0.0000
     19  N         11.8280    6.8530   -6.7380 N.3    46  VAL46      -0.1245
     20  CA        11.9870    7.7300   -5.5730 C.3    46  VAL46       0.1561
     21  C         11.8900    9.1880   -6.0430 C.2    46  VAL46       0.2260
     22  O         12.6840    9.6200   -6.9080 O.2    46  VAL46      -0.2867
     23  CB        13.3260    7.4580   -4.8740 C.3    46  VAL46       0.0252
     24  CG1       13.6310    8.5160   -3.8200 C.3    46  VAL46       0.0019
     25  CG2       13.2650    6.0800   -4.2250 C.3    46  VAL46       0.0019
     26  N         10.1860   13.9610   -1.2920 N.3    51  LEU51      -0.1245
     27  CA        10.6650   13.3350   -0.0640 C.3    51  LEU51       0.1561
     28  C         11.8040   14.0690    0.6310 C.2    51  LEU51       0.2260
     29  O         12.2420   13.6630    1.7140 O.2    51  LEU51      -0.2867
     30  CB        11.0300   11.8620   -0.3140 C.3    51  LEU51       0.0270
     31  CG         9.8700   10.9850   -0.7650 C.3    51  LEU51       0.0019
     32  CD1       10.3610    9.6340   -1.3140 C.3    51  LEU51       0.0001
     33  CD2        8.8640   10.7630    0.3650 C.3    51  LEU51       0.0001
     34  N         15.0620   14.3900   -0.0820 N.3    53  LEU53      -0.1245
     35  CA        16.2300   13.5300   -0.0200 C.3    53  LEU53       0.1561
     36  C         17.2320   14.0530   -1.0560 C.2    53  LEU53       0.2260
     37  O         17.4820   13.4050   -2.0560 O.2    53  LEU53      -0.2867
     38  CB        15.8560   12.0790   -0.3090 C.3    53  LEU53       0.0270
     39  CG        14.7750   11.4200    0.5270 C.3    53  LEU53       0.0019
     40  CD1       14.4390   10.0410   -0.0130 C.3    53  LEU53       0.0001
     41  CD2       15.2050   11.4020    1.9760 C.3    53  LEU53       0.0001
     42  N         19.8300   11.6200   -2.4280 N.3    56  TYR56      -0.1241
     43  CA        19.4730   10.2460   -2.8090 C.3    56  TYR56       0.1605
     44  C         20.2010    9.8250   -4.0960 C.2    56  TYR56       0.2264
     45  O         20.8020    8.7780   -4.1610 O.2    56  TYR56      -0.2867
     46  CB        17.9460   10.1110   -2.9880 C.3    56  TYR56       0.0534
     47  CG        17.5720    8.6790   -3.2640 C.ar   56  TYR56      -0.0201
     48  CD1       17.4580    7.7620   -2.2230 C.ar   56  TYR56      -0.0009
     49  CD2       17.3860    8.2250   -4.5560 C.ar   56  TYR56      -0.0009
     50  CE1       17.1660    6.4280   -2.4480 C.ar   56  TYR56       0.0417
     51  CE2       17.0720    6.8850   -4.8050 C.ar   56  TYR56       0.0417
     52  CZ        16.9600    5.9840   -3.7510 C.ar   56  TYR56       0.1957
     53  OH        16.6960    4.6630   -4.0040 O.3    56  TYR56      -0.2866
     54  N         17.8700    0.3500   -1.4040 N.3    95  CYS95      -0.1235
     55  CA        17.2030    0.7050   -0.1500 C.3    95  CYS95       0.1677
     56  C         18.1840    0.4840    1.0110 C.2    95  CYS95       0.2270
     57  O         18.3440    1.3560    1.8790 O.2    95  CYS95      -0.2867
     58  CB        15.9390   -0.1200    0.0140 C.3    95  CYS95       0.0956
     59  SG        15.0060    0.2710    1.4910 S.3    95  CYS95      -0.0801
     60  N         21.1540    3.1740    0.7840 N.3    98  TYR98      -0.1227
     61  CA        20.8490    4.5400    1.1630 C.3    98  TYR98       0.1736
     62  C         20.4930    4.6910    2.6270 C.2    98  TYR98       0.2595
     63  O         20.8610    5.6620    3.2480 O.2    98  TYR98      -0.2718
     64  CB        19.7240    5.1010    0.2550 C.3    98  TYR98       0.0548
     65  CG        19.4150    6.5310    0.5720 C.ar   98  TYR98      -0.0200
     66  CD1       20.3050    7.5160    0.1670 C.ar   98  TYR98      -0.0009
     67  CD2       18.3270    6.9020    1.3400 C.ar   98  TYR98      -0.0009
     68  CE1       20.0810    8.8370    0.4940 C.ar   98  TYR98       0.0417
     69  CE2       18.0890    8.2130    1.6890 C.ar   98  TYR98       0.0417
     70  CZ        18.9350    9.1950    1.2520 C.ar   98  TYR98       0.1957
     71  OH        18.7170   10.4990    1.6020 O.3    98  TYR98      -0.2866
     72  N         19.6840    3.7940    3.1570 N.am   99  ASN99      -0.1974
     73  CA        19.0460    3.9790    4.4570 C.3    99  ASN99       0.1688
     74  C         19.9000    3.4150    5.5830 C.2    99  ASN99       0.2292
     75  O         20.8610    2.7300    5.3730 O.2    99  ASN99      -0.2864
     76  CB        17.6490    3.3590    4.3820 C.3    99  ASN99       0.1181
     77  CG        16.7500    4.1340    3.4670 C.2    99  ASN99       0.2629
     78  OD1       16.3490    5.2380    3.7530 O.2    99  ASN99      -0.2716
     79  ND2       16.4920    3.5600    2.3070 N.am   99  ASN99      -0.0877
     80  N         11.8450    1.7860    6.4070 N.3   105  ILE105     -0.1245
     81  CA        11.9130    1.4380    4.9940 C.3   105  ILE105      0.1561
     82  C         12.7100    0.1540    4.8050 C.2   105  ILE105      0.2260
     83  O         12.4010   -0.6110    3.8960 O.2   105  ILE105     -0.2867
     84  CB        12.4780    2.6100    4.1560 C.3   105  ILE105      0.0252
     85  CG1       12.3310    2.3580    2.6590 C.3   105  ILE105      0.0019
     86  CG2       13.9340    2.8810    4.4890 C.3   105  ILE105      0.0019
     87  CD1       10.9080    2.4710    2.1880 C.3   105  ILE105      0.0001
@<TRIPOS>BOND
     1    22    21    2
     2    19    20    1
     3    11    10    2
     4    21    20    1
     5    20    23    1
     6    10     9    1
     7    23    25    1
     8    23    24    1
     9    51    49   ar
    10    51    52   ar
    11    49    47   ar
    12    45    44    2
    13    44    43    1
    14    53    52    1
    15     9    12    1
    16     9     8    1
    17    52    50   ar
    18    12    13    1
    19    47    46    1
    20    47    48   ar
    21    46    43    1
    22    43    42    1
    23     8     3   am
    24     4     3    2
    25    50    48   ar
    26     3     2    1
    27    14    13   ar
    28    14    16   ar
    29    13    15   ar
    30    37    36    2
    31    54    55    1
    32    32    31    1
    33    26    27    1
    34    36    35    1
    35     2     1    1
    36     2     5    1
    37    16    18   ar
    38    15    17   ar
    39     1     7    1
    40    31    30    1
    41    31    33    1
    42    30    27    1
    43    38    35    1
    44    38    39    1
    45    55    58    1
    46    55    56    1
    47    34    35    1
    48    27    28    1
    49    40    39    1
    50    58    59    1
    51    66    68   ar
    52    66    65   ar
    53     5     6    1
    54    18    17   ar
    55    64    65    1
    56    64    61    1
    57     7     6    1
    58    68    70   ar
    59    39    41    1
    60    65    67   ar
    61    28    29    2
    62    60    61    1
    63    56    57    2
    64    61    62    1
    65    70    71    1
    66    70    69   ar
    67    67    69   ar
    68    87    85    1
    69    79    77   am
    70    62    72   am
    71    62    63    2
    72    85    84    1
    73    72    73    1
    74    77    78    2
    75    77    76    1
    76    83    82    2
    77    84    86    1
    78    84    81    1
    79    76    73    1
    80    73    74    1
    81    82    81    1
    82    81    80    1
    83    75    74    2
