@<TRIPOS>MOLECULE
tmp/4iopA00.pdb
 98 95 0 0 0
SMALL
GASTEIGER

@<TRIPOS>ATOM
      1  N        -13.3160  -13.2610   30.9160 N.3    11  ARG11      -0.1231
      2  CA       -14.2390  -12.2700   30.4010 C.3    11  ARG11       0.1694
      3  C        -15.3460  -12.9380   29.5940 C.2    11  ARG11       0.2592
      4  O        -16.0230  -13.8480   30.0670 O.2    11  ARG11      -0.2718
      5  CB       -13.5070  -11.2370   29.5320 C.3    11  ARG11       0.0321
      6  CG       -13.8630   -9.7880   29.8790 C.3    11  ARG11       0.0489
      7  CD       -15.3770   -9.6000   30.0260 C.3    11  ARG11       0.2205
      8  NE       -15.7130   -8.6540   31.0910 N.pl3  11  ARG11      -0.0865
      9  CZ       -16.9310   -8.4960   31.6070 C.cat  11  ARG11       0.5346
     10  NH1      -17.1290   -7.6090   32.5730 N.pl3  11  ARG11       0.1354
     11  NH2      -17.9510   -9.2230   31.1640 N.pl3  11  ARG11       0.1354
     12  N        -15.5070  -12.4690   28.3660 N.am   12  ASP12      -0.1974
     13  CA       -16.5200  -12.9650   27.4500 C.3    12  ASP12       0.1709
     14  C        -15.9880  -14.1060   26.5950 C.2    12  ASP12       0.2293
     15  O        -16.4810  -14.3410   25.4910 O.2    12  ASP12      -0.2864
     16  CB       -16.9560  -11.8230   26.5420 C.3    12  ASP12       0.1436
     17  CG       -15.7820  -11.1770   25.8320 C.2    12  ASP12       0.3671
     18  OD1      -14.8130  -10.7910   26.5210 O.co2  12  ASP12      -0.2456
     19  OD2      -15.8240  -11.0580   24.5900 O.co2  12  ASP12      -0.2456
     20  N         -8.4850  -17.1240   19.0670 N.3    40  GLN40      -0.1245
     21  CA        -8.2890  -15.8660   18.3610 C.3    40  GLN40       0.1566
     22  C         -8.4360  -14.7490   19.4010 C.2    40  GLN40       0.2260
     23  O         -9.4990  -14.6160   20.0170 O.2    40  GLN40      -0.2867
     24  CB        -9.3470  -15.7450   17.2570 C.3    40  GLN40       0.0367
     25  CG       -10.7520  -16.1810   17.6960 C.3    40  GLN40       0.0905
     26  CD       -11.7040  -15.0140   17.8370 C.2    40  GLN40       0.2608
     27  OE1      -12.6750  -15.0690   18.5990 O.2    40  GLN40      -0.2717
     28  NE2      -11.4360  -13.9500   17.0890 N.am   40  GLN40      -0.0878
     29  N         -8.5830  -10.7500   20.7620 N.3    42  ASP42      -0.1225
     30  CA        -9.0210   -9.4520   20.2640 C.3    42  ASP42       0.1805
     31  C         -8.7850   -8.2210   21.1580 C.2    42  ASP42       0.2598
     32  O         -8.4580   -7.1460   20.6420 O.2    42  ASP42      -0.2718
     33  CB       -10.4980   -9.5380   19.8150 C.3    42  ASP42       0.1424
     34  CG       -11.2830  -10.6630   20.5110 C.2    42  ASP42       0.3668
     35  OD1      -12.3870  -10.9900   20.0240 O.co2  42  ASP42      -0.2456
     36  OD2      -10.8230  -11.2160   21.5340 O.co2  42  ASP42      -0.2456
     37  N         -8.9490   -8.3600   22.4770 N.am   43  THR43      -0.1953
     38  CA        -8.7100   -7.2410   23.3970 C.3    43  THR43       0.1897
     39  C         -7.2710   -7.2860   23.8860 C.2    43  THR43       0.2313
     40  O         -6.5800   -8.2840   23.6990 O.2    43  THR43      -0.2863
     41  CB        -9.6220   -7.2700   24.6470 C.3    43  THR43       0.1794
     42  OG1       -9.2310   -6.2220   25.5420 O.3    43  THR43      -0.2208
     43  CG2       -9.4930   -8.5780   25.3830 C.3    43  THR43       0.0378
     44  N         -7.8470  -14.8000   10.6320 N.3    73  TRP73      -0.1241
     45  CA        -8.2480  -15.6840   11.7290 C.3    73  TRP73       0.1605
     46  C         -8.9400  -16.9810   11.2880 C.2    73  TRP73       0.2264
     47  O         -8.8980  -17.3590   10.1150 O.2    73  TRP73      -0.2867
     48  CB        -9.1680  -14.9280   12.7090 C.3    73  TRP73       0.0550
     49  CG        -8.4530  -14.0390   13.7170 C.ar   73  TRP73       0.0003
     50  CD1       -7.5080  -14.4280   14.6250 C.ar   73  TRP73       0.0946
     51  CD2       -8.6330  -12.6220   13.9140 C.ar   73  TRP73       0.0152
     52  NE1       -7.0900  -13.3490   15.3680 N.ar   73  TRP73      -0.2442
     53  CE2       -7.7650  -12.2310   14.9520 C.ar   73  TRP73       0.0810
     54  CE3       -9.4460  -11.6520   13.3120 C.ar   73  TRP73       0.0012
     55  CZ2       -7.6820  -10.9050   15.4030 C.ar   73  TRP73       0.0191
     56  CZ3       -9.3630  -10.3310   13.7610 C.ar   73  TRP73       0.0001
     57  CH2       -8.4890   -9.9740   14.7960 C.ar   73  TRP73       0.0015
     58  N        -12.4040  -17.7700   12.2790 N.3    75  ASN75      -0.1225
     59  CA       -13.7570  -17.3840   11.9020 C.3    75  ASN75       0.1785
     60  C        -13.6620  -16.7170   10.5280 C.2    75  ASN75       0.2598
     61  O        -13.0940  -17.2820    9.5890 O.2    75  ASN75      -0.2718
     62  CB       -14.4070  -16.4600   12.9860 C.3    75  ASN75       0.1169
     63  CG       -13.8230  -15.0300   13.0330 C.2    75  ASN75       0.2627
     64  OD1      -12.6410  -14.8270   12.7660 O.2    75  ASN75      -0.2716
     65  ND2      -14.6630  -14.0520   13.3980 N.am   75  ASN75      -0.0877
     66  N        -14.2160  -15.5280   10.3930 N.am   76  GLY76      -0.1942
     67  CA       -14.1360  -14.8600    9.1180 C.3    76  GLY76       0.2014
     68  C        -13.7210  -13.4390    9.4110 C.2    76  GLY76       0.2639
     69  O        -14.3590  -12.7770   10.2360 O.2    76  GLY76      -0.2714
     70  N        -12.6450  -12.9760    8.7790 N.am   77  THR77      -0.1950
     71  CA       -12.1750  -11.5990    8.9590 C.3    77  THR77       0.1897
     72  C        -10.6730  -11.4340    8.7510 C.2    77  THR77       0.2313
     73  O         -9.8650  -12.2360    9.2150 O.2    77  THR77      -0.2863
     74  CB       -12.5610  -11.0480   10.3560 C.3    77  THR77       0.1794
     75  OG1      -12.2380   -9.6520   10.4410 O.3    77  THR77      -0.2208
     76  CG2      -11.8360  -11.8190   11.4490 C.3    77  THR77       0.0378
     77  N         -6.5170   -7.1450   11.4790 N.3    80  ASN80      -0.1240
     78  CA        -6.0860   -5.7530   11.5080 C.3    80  ASN80       0.1653
     79  C         -4.6050   -5.7900   11.8920 C.2    80  ASN80       0.2266
     80  O         -3.7830   -6.2100   11.0800 O.2    80  ASN80      -0.2867
     81  CB        -6.9310   -4.9420   12.5080 C.3    80  ASN80       0.1155
     82  CG        -7.1460   -5.6620   13.8290 C.2    80  ASN80       0.2627
     83  OD1       -6.2660   -5.6810   14.6840 O.2    80  ASN80      -0.2716
     84  ND2       -8.3240   -6.2580   13.9990 N.am   80  ASN80      -0.0877
     85  N         -3.0540   -4.7740   15.7840 N.3    82  TRP82      -0.1241
     86  CA        -2.5900   -4.1100   16.9980 C.3    82  TRP82       0.1605
     87  C         -1.3500   -4.7720   17.5750 C.2    82  TRP82       0.2264
     88  O         -0.8270   -4.3360   18.6010 O.2    82  TRP82      -0.2867
     89  CB        -3.6930   -4.0460   18.0640 C.3    82  TRP82       0.0550
     90  CG        -4.4510   -5.3100   18.2650 C.ar   82  TRP82       0.0003
     91  CD1       -5.2580   -5.9350   17.3590 C.ar   82  TRP82       0.0946
     92  CD2       -4.5100   -6.0910   19.4620 C.ar   82  TRP82       0.0152
     93  NE1       -5.8190   -7.0580   17.9180 N.ar   82  TRP82      -0.2442
     94  CE2       -5.3730   -7.1790   19.2080 C.ar   82  TRP82       0.0810
     95  CE3       -3.9150   -5.9800   20.7250 C.ar   82  TRP82       0.0012
     96  CZ2       -5.6590   -8.1470   20.1730 C.ar   82  TRP82       0.0191
     97  CZ3       -4.1990   -6.9410   21.6830 C.ar   82  TRP82       0.0001
     98  CH2       -5.0610   -8.0110   21.4000 C.ar   82  TRP82       0.0015
@<TRIPOS>BOND
     1    72    71    1
     2    72    73    2
     3    70    71    1
     4    70    68   am
     5    71    74    1
     6    67    68    1
     7    67    66    1
     8    68    69    2
     9    61    60    2
    10    47    46    2
    11    74    75    1
    12    74    76    1
    13    66    60   am
    14    60    59    1
    15    44    45    1
    16    80    79    2
    17    46    45    1
    18    77    78    1
    19    78    79    1
    20    78    81    1
    21    45    48    1
    22    59    58    1
    23    59    62    1
    24    81    82    1
    25    48    49    1
    26    64    63    2
    27    62    63    1
    28    63    65   am
    29    54    56   ar
    30    54    51   ar
    31    49    51   ar
    32    49    50   ar
    33    56    57   ar
    34    82    84   am
    35    82    83    2
    36    51    53   ar
    37    50    52   ar
    38    57    55   ar
    39    53    52   ar
    40    53    55   ar
    41    85    86    1
    42    86    87    1
    43    86    89    1
    44    28    26   am
    45    24    25    1
    46    24    21    1
    47    91    93   ar
    48    91    90   ar
    49    87    88    2
    50    25    26    1
    51    26    27    2
    52    93    94   ar
    53    89    90    1
    54    90    92   ar
    55    21    20    1
    56    21    22    1
    57    94    92   ar
    58    94    96   ar
    59    22    23    2
    60    92    95   ar
    61    33    30    1
    62    33    34    1
    63    35    34   ar
    64    96    98   ar
    65    30    29    1
    66    30    31    1
    67    34    36   ar
    68    32    31    2
    69    95    97   ar
    70    31    37   am
    71    98    97   ar
    72    37    38    1
    73    38    39    1
    74    38    41    1
    75    40    39    2
    76    19    17   ar
    77    41    43    1
    78    41    42    1
    79    15    14    2
    80    17    18   ar
    81    17    16    1
    82    16    13    1
    83    14    13    1
    84    13    12    1
    85    12     3   am
    86     5     6    1
    87     5     2    1
    88     3     4    2
    89     3     2    1
    90     6     7    1
    91     7     8    1
    92     2     1    1
    93     8     9    2
    94    11     9    1
    95     9    10    1
