@<TRIPOS>MOLECULE
tmp/4ioxC00.pdb
 119 113 0 0 0
SMALL
GASTEIGER

@<TRIPOS>ATOM
      1  N         31.9910   56.9790   30.6550 N.3     2  VAL2       -0.1245
      2  CA        33.2170   57.7660   30.4580 C.3     2  VAL2        0.1561
      3  C         33.8540   57.6930   29.0640 C.2     2  VAL2        0.2260
      4  O         34.0550   58.7280   28.4320 O.2     2  VAL2       -0.2867
      5  CB        34.2860   57.4310   31.5180 C.3     2  VAL2        0.0252
      6  CG1       35.5560   58.1810   31.2300 C.3     2  VAL2        0.0019
      7  CG2       33.7750   57.7650   32.9080 C.3     2  VAL2        0.0019
      8  N         47.7840   61.1220   38.6120 N.3   144  LYS144     -0.1231
      9  CA        46.7970   60.1380   38.1670 C.3   144  LYS144      0.1693
     10  C         45.5930   60.8130   37.5160 C.2   144  LYS144      0.2592
     11  O         45.1710   60.4450   36.4230 O.2   144  LYS144     -0.2718
     12  CB        46.3490   59.2560   39.3400 C.3   144  LYS144      0.0285
     13  CG        45.3410   58.1570   39.0020 C.3   144  LYS144      0.0035
     14  CD        45.2550   57.1240   40.1380 C.3   144  LYS144      0.0206
     15  CE        44.3370   55.9380   39.8230 C.3   144  LYS144      0.1093
     16  NZ        44.6530   54.7340   40.6770 N.3   144  LYS144     -0.1314
     17  N         45.0420   61.8060   38.1970 N.am  145  THR145     -0.1953
     18  CA        43.8490   62.4890   37.7110 C.3   145  THR145      0.1897
     19  C         44.0220   63.2130   36.3630 C.2   145  THR145      0.2313
     20  O         43.2260   63.0000   35.4560 O.2   145  THR145     -0.2863
     21  CB        43.2460   63.4200   38.8070 C.3   145  THR145      0.1794
     22  OG1       42.6220   62.6220   39.8230 O.3   145  THR145     -0.2208
     23  CG2       42.2270   64.3760   38.2110 C.3   145  THR145      0.0378
     24  N         44.4700   60.5390   33.4550 N.3   148  PHE148     -0.1227
     25  CA        43.2100   59.8990   33.1220 C.3   148  PHE148      0.1736
     26  C         42.2900   60.8590   32.4020 C.2   148  PHE148      0.2595
     27  O         41.6670   60.5050   31.4040 O.2   148  PHE148     -0.2718
     28  CB        42.5130   59.3910   34.3900 C.3   148  PHE148      0.0547
     29  CG        42.9600   58.0220   34.8360 C.ar  148  PHE148     -0.0202
     30  CD1       44.2960   57.7680   35.1390 C.ar  148  PHE148     -0.0042
     31  CD2       42.0410   57.0050   34.9980 C.ar  148  PHE148     -0.0042
     32  CE1       44.7010   56.5180   35.5580 C.ar  148  PHE148     -0.0003
     33  CE2       42.4370   55.7500   35.4240 C.ar  148  PHE148     -0.0003
     34  CZ        43.7650   55.5020   35.7020 C.ar  148  PHE148     -0.0000
     35  N         42.2110   62.0810   32.9100 N.am  149  GLU149     -0.1979
     36  CA        41.3470   63.0870   32.3090 C.3   149  GLU149      0.1602
     37  C         41.8050   63.3910   30.8860 C.2   149  GLU149      0.2287
     38  O         40.9720   63.5310   29.9970 O.2   149  GLU149     -0.2864
     39  CB        41.2770   64.3420   33.1830 C.3   149  GLU149      0.0415
     40  CG        40.3800   65.4330   32.6380 C.3   149  GLU149      0.1163
     41  CD        40.3720   66.6730   33.5180 C.2   149  GLU149      0.3649
     42  OE1       41.1120   66.6960   34.5280 O.co2 149  GLU149     -0.2457
     43  OE2       39.6170   67.6210   33.2070 O.co2 149  GLU149     -0.2457
     44  N         41.0050   60.2830   28.4710 N.3   152  ILE152     -0.1245
     45  CA        39.5800   60.2130   28.1610 C.3   152  ILE152      0.1561
     46  C         39.2060   61.1560   27.0250 C.2   152  ILE152      0.2260
     47  O         38.5480   60.7560   26.0590 O.2   152  ILE152     -0.2867
     48  CB        38.7380   60.5300   29.4090 C.3   152  ILE152      0.0252
     49  CG1       38.8290   59.3740   30.4090 C.3   152  ILE152      0.0019
     50  CG2       37.2910   60.8190   29.0360 C.3   152  ILE152      0.0019
     51  CD1       38.5930   59.7890   31.8350 C.3   152  ILE152      0.0001
     52  N         35.7330   49.8680   32.1310 N.3   187  ASN187     -0.1225
     53  CA        35.4540   49.8720   33.5680 C.3   187  ASN187      0.1785
     54  C         35.6960   51.2350   34.2150 C.2   187  ASN187      0.2597
     55  O         35.4510   51.4150   35.4110 O.2   187  ASN187     -0.2718
     56  CB        36.2840   48.8160   34.2880 C.3   187  ASN187      0.1169
     57  CG        35.8010   47.4210   34.0090 C.2   187  ASN187      0.2627
     58  OD1       34.6750   47.2200   33.5510 O.2   187  ASN187     -0.2716
     59  ND2       36.6490   46.4440   34.2750 N.am  187  ASN187     -0.0877
     60  N         36.2220   52.1710   33.4310 N.am  188  LEU188     -0.1966
     61  CA        36.4450   53.5330   33.8890 C.3   188  LEU188      0.1728
     62  C         35.1280   54.1920   34.2950 C.2   188  LEU188      0.2617
     63  O         34.1270   54.0740   33.5880 O.2   188  LEU188     -0.2715
     64  CB        37.0800   54.3510   32.7640 C.3   188  LEU188      0.0311
     65  CG        38.5910   54.5700   32.7450 C.3   188  LEU188      0.0022
     66  CD1       38.9930   55.5040   31.6000 C.3   188  LEU188      0.0001
     67  CD2       39.0430   55.1410   34.0810 C.3   188  LEU188      0.0001
     68  N         35.1400   54.8720   35.4420 N.am  189  THR189     -0.1937
     69  CA        34.0220   55.7170   35.8790 C.3   189  THR189      0.2028
     70  C         34.5580   56.9630   36.5820 C.2   189  THR189      0.2642
     71  O         35.5910   56.9040   37.2490 O.2   189  THR189     -0.2714
     72  CB        33.0330   54.9880   36.8070 C.3   189  THR189      0.1808
     73  OG1       33.7580   54.2890   37.8260 O.3   189  THR189     -0.2208
     74  CG2       32.1710   54.0080   36.0260 C.3   189  THR189      0.0379
     75  N         33.8550   58.0830   36.4320 N.am  190  GLU190     -0.1963
     76  CA        34.3050   59.3590   36.9960 C.3   190  GLU190      0.1733
     77  C         34.3130   59.3790   38.5310 C.2   190  GLU190      0.2617
     78  O         33.2570   59.3870   39.1710 O.2   190  GLU190     -0.2715
     79  CB        33.4680   60.5130   36.4440 C.3   190  GLU190      0.0429
     80  CG        33.9260   61.8930   36.8700 C.3   190  GLU190      0.1163
     81  CD        35.2940   62.2590   36.3240 C.2   190  GLU190      0.3649
     82  OE1       35.6450   61.7680   35.2240 O.co2 190  GLU190     -0.2457
     83  OE2       36.0130   63.0300   36.9990 O.co2 190  GLU190     -0.2457
     84  N         35.5150   59.3970   39.1080 N.am  191  THR191     -0.1937
     85  CA        35.6810   59.4110   40.5600 C.3   191  THR191      0.2028
     86  C         36.6630   60.4830   41.0600 C.2   191  THR191      0.2642
     87  O         37.2810   60.3170   42.1130 O.2   191  THR191     -0.2714
     88  CB        36.1020   58.0350   41.0560 C.3   191  THR191      0.1808
     89  OG1       37.3350   57.6960   40.4390 O.3   191  THR191     -0.2208
     90  CG2       35.0510   56.9800   40.7670 C.3   191  THR191      0.0379
     91  N         36.8030   61.5700   40.3000 N.am  192  VAL192     -0.1977
     92  CA        37.6280   62.7180   40.6980 C.3   192  VAL192      0.1596
     93  C         37.3230   63.9550   39.8500 C.2   192  VAL192      0.2287
     94  O         37.8550   64.1240   38.7490 O.2   192  VAL192     -0.2864
     95  CB        39.1140   62.3780   40.6310 C.3   192  VAL192      0.0276
     96  CG1       39.6340   62.0800   39.2480 C.3   192  VAL192      0.0022
     97  CG2       39.9580   63.4210   41.3470 C.3   192  VAL192      0.0022
     98  N         40.6750   44.2110   38.0880 N.3   193  SER193     -0.1202
     99  CA        42.0510   44.2090   37.5960 C.3   193  SER193      0.2020
    100  C         42.2420   45.3050   36.5440 C.2   193  SER193      0.2618
    101  O         41.6870   45.2240   35.4500 O.2   193  SER193     -0.2717
    102  CB        42.4090   42.8330   37.0140 C.3   193  SER193      0.2103
    103  OG        43.8140   42.6230   36.9900 O.3   193  SER193     -0.2182
    104  N         43.0100   46.3380   36.8810 N.am  194  ASP194     -0.1973
    105  CA        43.1660   47.4900   35.9880 C.3   194  ASP194      0.1709
    106  C         44.6370   47.8660   35.6980 C.2   194  ASP194      0.2293
    107  O         44.9300   48.9860   35.2610 O.2   194  ASP194     -0.2864
    108  CB        42.3630   48.6970   36.4970 C.3   194  ASP194      0.1436
    109  CG        42.6080   48.9980   37.9570 C.2   194  ASP194      0.3671
    110  OD1       43.7870   49.0490   38.3720 O.co2 194  ASP194     -0.2456
    111  OD2       41.6110   49.1930   38.6870 O.co2 194  ASP194     -0.2456
    112  N         45.0940   48.9570   31.9790 N.3   197  MET197     -0.1245
    113  CA        44.4850   50.2500   31.7440 C.3   197  MET197      0.1570
    114  C         45.3670   51.3650   32.3210 C.2   197  MET197      0.2261
    115  O         45.5370   52.4150   31.7110 O.2   197  MET197     -0.2867
    116  CB        43.1040   50.2790   32.4000 C.3   197  MET197      0.0387
    117  CG        42.3330   51.5540   32.1660 C.3   197  MET197      0.0595
    118  SD        40.9410   51.7030   33.2860 S.3   197  MET197     -0.1393
    119  CE        41.8280   52.0300   34.8080 C.3   197  MET197      0.0692
@<TRIPOS>BOND
     1    47    46    2
     2    46    45    1
     3    45    44    1
     4    45    48    1
     5     4     3    2
     6    50    48    1
     7     3     2    1
     8    48    49    1
     9    38    37    2
    10    49    51    1
    11     2     1    1
    12     2     5    1
    13    37    36    1
    14     6     5    1
    15    27    26    2
    16     5     7    1
    17    66    65    1
    18   115   114    2
    19   113   112    1
    20   113   114    1
    21   113   116    1
    22    52    53    1
    23   117   116    1
    24   117   118    1
    25    36    35    1
    26    36    39    1
    27    26    35   am
    28    26    25    1
    29    40    39    1
    30    40    41    1
    31    65    64    1
    32    65    67    1
    33    64    61    1
    34    25    24    1
    35    25    28    1
    36    43    41   ar
    37   118   119    1
    38    60    61    1
    39    60    54   am
    40    41    42   ar
    41    58    57    2
    42    53    54    1
    43    53    56    1
    44    63    62    2
    45    61    62    1
    46    57    59   am
    47    57    56    1
    48    54    55    2
    49    62    68   am
    50    28    29    1
    51    29    31   ar
    52    29    30   ar
    53    31    33   ar
    54    30    32   ar
    55    82    81   ar
    56   107   106    2
    57    33    34   ar
    58    68    69    1
    59   101   100    2
    60    20    19    2
    61    32    34   ar
    62   106   105    1
    63    69    70    1
    64    69    72    1
    65   105   108    1
    66   105   104    1
    67    74    72    1
    68    81    80    1
    69    81    83   ar
    70    19    18    1
    71    11    10    2
    72    75    70   am
    73    75    76    1
    74    79    80    1
    75    79    76    1
    76   108   109    1
    77   100   104   am
    78   100    99    1
    79    70    71    2
    80    72    73    1
    81   103   102    1
    82    76    77    1
    83   102    99    1
    84    10     9    1
    85    10    17   am
    86    99    98    1
    87    18    17    1
    88    18    21    1
    89   109   110   ar
    90   109   111   ar
    91     9     8    1
    92     9    12    1
    93    23    21    1
    94    77    84   am
    95    77    78    2
    96    94    93    2
    97    21    22    1
    98    13    12    1
    99    13    14    1
   100    84    85    1
   101    96    95    1
   102    15    14    1
   103    15    16    1
   104    93    92    1
   105    91    92    1
   106    91    86   am
   107    89    88    1
   108    85    88    1
   109    85    86    1
   110    95    92    1
   111    95    97    1
   112    90    88    1
   113    86    87    2
