@<TRIPOS>MOLECULE
tmp/4ioxA00.pdb
 91 88 0 0 0
SMALL
GASTEIGER

@<TRIPOS>ATOM
      1  N         60.5100   51.9740   -2.9630 N.3    14  TYR14      -0.1227
      2  CA        59.7400   51.0290   -3.7650 C.3    14  TYR14       0.1736
      3  C         60.3300   49.6390   -3.6760 C.2    14  TYR14       0.2595
      4  O         61.3160   49.3190   -4.3400 O.2    14  TYR14      -0.2718
      5  CB        59.6450   51.4690   -5.2210 C.3    14  TYR14       0.0548
      6  CG        59.0210   52.8190   -5.3800 C.ar   14  TYR14      -0.0200
      7  CD1       57.6400   52.9710   -5.3660 C.ar   14  TYR14      -0.0009
      8  CD2       59.8140   53.9570   -5.5320 C.ar   14  TYR14      -0.0009
      9  CE1       57.0520   54.2220   -5.5010 C.ar   14  TYR14       0.0417
     10  CE2       59.2410   55.2130   -5.6630 C.ar   14  TYR14       0.0417
     11  CZ        57.8610   55.3380   -5.6450 C.ar   14  TYR14       0.1957
     12  OH        57.3040   56.5880   -5.8010 O.3    14  TYR14      -0.2866
     13  N         59.7010   48.8250   -2.8400 N.am   15  ARG15      -0.1966
     14  CA        60.1460   47.4810   -2.5560 C.3    15  ARG15       0.1714
     15  C         59.0890   46.4670   -2.9280 C.2    15  ARG15       0.2458
     16  O         58.1390   46.2970   -2.1960 O.2    15  ARG15      -0.2730
     17  CB        60.4340   47.3490   -1.0700 C.3    15  ARG15       0.0347
     18  CG        61.3020   48.4320   -0.5570 C.3    15  ARG15       0.0492
     19  CD        61.7370   48.1550    0.8510 C.3    15  ARG15       0.2205
     20  NE        62.4320   49.3090    1.4040 N.pl3  15  ARG15      -0.0865
     21  CZ        62.9750   49.3240    2.6110 C.cat  15  ARG15       0.5346
     22  NH1       62.8950   48.2450    3.3850 N.pl3  15  ARG15       0.1354
     23  NH2       63.5830   50.4200    3.0410 N.pl3  15  ARG15       0.1354
     24  N         59.2820   45.7580   -4.0490 N.am   16  PRO16      -0.2716
     25  CA        58.2730   44.7930   -4.4960 C.3    16  PRO16       0.1536
     26  C         58.0190   43.7800   -3.3970 C.2    16  PRO16       0.2599
     27  O         58.9380   43.4410   -2.6550 O.2    16  PRO16      -0.2715
     28  CB        58.9350   44.1170   -5.6960 C.3    16  PRO16       0.0310
     29  CG        59.9750   45.1030   -6.1660 C.3    16  PRO16       0.0237
     30  CD        60.4730   45.7630   -4.9200 C.3    16  PRO16       0.0939
     31  N         56.7680   43.3810   -3.2290 N.am   17  SER17      -0.1950
     32  CA        56.4580   42.3180   -2.3000 C.3    17  SER17       0.1924
     33  C         56.7070   40.9710   -3.0010 C.2    17  SER17       0.2314
     34  O         55.9500   40.5560   -3.8670 O.2    17  SER17      -0.2863
     35  CB        55.0270   42.4250   -1.7990 C.3    17  SER17       0.2116
     36  OG        54.7390   41.2840   -1.0200 O.3    17  SER17      -0.2180
     37  N         54.3590   37.9290   -5.2100 N.3    21  ASN21      -0.1240
     38  CA        54.5540   38.0560   -6.6520 C.3    21  ASN21       0.1653
     39  C         55.6080   37.0800   -7.1120 C.2    21  ASN21       0.2266
     40  O         56.4700   37.3990   -7.9350 O.2    21  ASN21      -0.2867
     41  CB        54.9340   39.4820   -7.0450 C.3    21  ASN21       0.1155
     42  CG        53.7850   40.4610   -6.8700 C.2    21  ASN21       0.2627
     43  OD1       52.8850   40.5230   -7.7030 O.2    21  ASN21      -0.2716
     44  ND2       53.8110   41.2280   -5.7880 N.am   21  ASN21      -0.0877
     45  N         56.9570   36.2720  -10.5990 N.3    24  LEU24      -0.1245
     46  CA        57.8550   37.1870  -11.2840 C.3    24  LEU24       0.1561
     47  C         59.3260   36.8520  -11.0400 C.2    24  LEU24       0.2260
     48  O         60.2140   37.3690  -11.7260 O.2    24  LEU24      -0.2867
     49  CB        57.5530   38.6220  -10.8630 C.3    24  LEU24       0.0270
     50  CG        56.1920   39.1520  -11.3110 C.3    24  LEU24       0.0019
     51  CD1       55.9490   40.5540  -10.7640 C.3    24  LEU24       0.0001
     52  CD2       56.1100   39.1230  -12.8320 C.3    24  LEU24       0.0001
     53  N         64.1370   39.3150  -10.7590 N.3    54  TYR54      -0.1227
     54  CA        62.7460   39.6940  -10.5920 C.3    54  TYR54       0.1736
     55  C         62.3790   40.4020  -11.8880 C.2    54  TYR54       0.2595
     56  O         62.9330   41.4520  -12.1850 O.2    54  TYR54      -0.2718
     57  CB        62.6200   40.6490   -9.4100 C.3    54  TYR54       0.0548
     58  CG        61.2100   41.0520   -9.0870 C.ar   54  TYR54      -0.0200
     59  CD1       60.6310   42.1530   -9.6830 C.ar   54  TYR54      -0.0009
     60  CD2       60.4480   40.3150   -8.1900 C.ar   54  TYR54      -0.0009
     61  CE1       59.3440   42.5240   -9.3820 C.ar   54  TYR54       0.0417
     62  CE2       59.1520   40.6730   -7.8910 C.ar   54  TYR54       0.0417
     63  CZ        58.6050   41.7750   -8.4880 C.ar   54  TYR54       0.1957
     64  OH        57.3180   42.1350   -8.1830 O.3    54  TYR54      -0.2866
     65  N         61.4310   39.8470  -12.6400 N.am   55  ARG55      -0.1980
     66  CA        61.2990   40.1750  -14.0610 C.3    55  ARG55       0.1597
     67  C         62.7260   40.1110  -14.6480 C.2    55  ARG55       0.2287
     68  O         63.3870   39.1050  -14.4990 O.2    55  ARG55      -0.2864
     69  CB        60.6170   41.5370  -14.2710 C.3    55  ARG55       0.0334
     70  CG        59.1760   41.5870  -13.7700 C.3    55  ARG55       0.0492
     71  CD        58.5960   43.0040  -13.8590 C.3    55  ARG55       0.2205
     72  NE        57.1780   43.0320  -13.5150 N.pl3  55  ARG55      -0.0865
     73  CZ        56.2320   42.5530  -14.3230 C.cat  55  ARG55       0.5346
     74  NH1       56.5850   42.0210  -15.4950 N.pl3  55  ARG55       0.1354
     75  NH2       54.9440   42.6010  -13.9750 N.pl3  55  ARG55       0.1354
     76  N         65.0100   42.3240  -13.6970 N.3    57  ASP57      -0.1239
     77  CA        65.7370   43.1620  -12.7680 C.3    57  ASP57       0.1674
     78  C         66.3330   42.3020  -11.6630 C.2    57  ASP57       0.2266
     79  O         66.2750   41.0830  -11.7380 O.2    57  ASP57      -0.2867
     80  CB        64.8180   44.2450  -12.1970 C.3    57  ASP57       0.1410
     81  CG        64.4580   45.3210  -13.2320 C.2    57  ASP57       0.3668
     82  OD1       65.1600   45.4590  -14.2560 O.co2  57  ASP57      -0.2456
     83  OD2       63.4780   46.0470  -13.0080 O.co2  57  ASP57      -0.2456
     84  N         66.4040   46.3900   -6.7370 N.3   171  MET171     -0.1245
     85  CA        65.5100   46.7210   -5.6510 C.3   171  MET171      0.1570
     86  C         65.6210   45.7540   -4.5040 C.2   171  MET171      0.2261
     87  O         66.3490   44.7620   -4.5660 O.2   171  MET171     -0.2867
     88  CB        64.0760   46.7700   -6.1310 C.3   171  MET171      0.0387
     89  CG        63.6110   45.5580   -6.9070 C.3   171  MET171      0.0595
     90  SD        63.5420   45.9850   -8.6440 S.3   171  MET171     -0.1393
     91  CE        62.1760   45.0170   -9.0990 C.3   171  MET171      0.0692
@<TRIPOS>BOND
     1    74    73    1
     2    67    68    2
     3    67    66    1
     4    73    75    1
     5    73    72    2
     6    69    66    1
     7    69    70    1
     8    82    81   ar
     9    66    65    1
    10    71    70    1
    11    71    72    1
    12    76    77    1
    13    81    83   ar
    14    81    80    1
    15    52    50    1
    16    77    80    1
    17    77    78    1
    18    65    55   am
    19    56    55    2
    20    55    54    1
    21    79    78    2
    22    48    47    2
    23    50    49    1
    24    50    51    1
    25    46    47    1
    26    46    49    1
    27    46    45    1
    28    53    54    1
    29    54    57    1
    30    59    61   ar
    31    59    58   ar
    32    57    58    1
    33    61    63   ar
    34    91    90    1
    35    58    60   ar
    36    90    89    1
    37    63    64    1
    38    63    62   ar
    39    60    62   ar
    40    40    39    2
    41    43    42    2
    42    39    38    1
    43    41    42    1
    44    41    38    1
    45    89    88    1
    46    42    44   am
    47    84    85    1
    48    38    37    1
    49    29    28    1
    50    29    30    1
    51    88    85    1
    52    12    11    1
    53    28    25    1
    54    10    11   ar
    55    10     8   ar
    56    85    86    1
    57    11     9   ar
    58     8     6   ar
    59     9     7   ar
    60     6     7   ar
    61     6     5    1
    62     5     2    1
    63    30    24    1
    64    87    86    2
    65    25    24    1
    66    25    26    1
    67     4     3    2
    68    24    15   am
    69    34    33    2
    70     2     3    1
    71     2     1    1
    72     3    13   am
    73    26    31   am
    74    26    27    2
    75    31    32    1
    76    33    32    1
    77    15    14    1
    78    15    16    2
    79    13    14    1
    80    14    17    1
    81    32    35    1
    82    35    36    1
    83    17    18    1
    84    18    19    1
    85    19    20    1
    86    20    21    2
    87    21    23    1
    88    21    22    1
