@<TRIPOS>MOLECULE
tmp/4ip5A00.pdb
 148 138 0 0 0
SMALL
GASTEIGER

@<TRIPOS>ATOM
      1  N         26.6690    0.5710   -1.9670 N.3    21  GLY21      -0.1225
      2  CA        26.2600    1.6030   -1.0280 C.3    21  GLY21       0.1811
      3  C         25.6030    2.8140   -1.6720 C.2    21  GLY21       0.2280
      4  O         25.0270    3.6540   -0.9730 O.2    21  GLY21      -0.2866
      5  N         23.2750    5.5730   -3.3870 N.3    23  ASP23      -0.1239
      6  CA        21.8590    5.9000   -3.2570 C.3    23  ASP23       0.1674
      7  C         21.5520    7.2850   -3.8460 C.2    23  ASP23       0.2266
      8  O         22.4150    7.9170   -4.4380 O.2    23  ASP23      -0.2867
      9  CB        21.4380    5.8320   -1.7910 C.3    23  ASP23       0.1410
     10  CG        22.2280    6.7870   -0.9200 C.2    23  ASP23       0.3668
     11  OD1       22.1320    8.0150   -1.1500 O.co2  23  ASP23      -0.2456
     12  OD2       22.9410    6.3180   -0.0040 O.co2  23  ASP23      -0.2456
     13  N         23.7200    9.8250   -1.7740 N.3    26  ASN26      -0.1240
     14  CA        25.1390    9.4970   -1.7320 C.3    26  ASN26       0.1653
     15  C         25.5050    8.6400   -2.9340 C.2    26  ASN26       0.2266
     16  O         25.3800    7.4070   -2.8910 O.2    26  ASN26      -0.2867
     17  CB        25.4580    8.7490   -0.4240 C.3    26  ASN26       0.1155
     18  CG        24.8050    9.4020    0.7950 C.2    26  ASN26       0.2627
     19  OD1       25.1380   10.5330    1.1520 O.2    26  ASN26      -0.2716
     20  ND2       23.8650    8.7010    1.4200 N.am   26  ASN26      -0.0877
     21  N         29.5990    6.5740   -2.1750 N.3    29  PRO29      -0.2116
     22  CA        30.1820    6.5030   -0.8330 C.3    29  PRO29       0.1372
     23  C         31.3950    5.5770   -0.7670 C.2    29  PRO29       0.2244
     24  O         31.4250    4.5180   -1.4060 O.2    29  PRO29      -0.2868
     25  CB        29.0420    5.9240    0.0090 C.3    29  PRO29       0.0268
     26  CG        28.2250    5.1340   -0.9710 C.3    29  PRO29       0.0207
     27  CD        28.2720    5.9330   -2.2390 C.3    29  PRO29       0.0892
     28  N         32.8730    3.5880    2.0190 N.3    31  TYR31      -0.1241
     29  CA        32.6150    3.0810    3.3640 C.3    31  TYR31       0.1605
     30  C         33.8430    3.1950    4.2590 C.2    31  TYR31       0.2264
     31  O         34.9070    2.6630    3.9490 O.2    31  TYR31      -0.2867
     32  CB        32.1030    1.6380    3.2980 C.3    31  TYR31       0.0534
     33  CG        30.6260    1.5390    2.9670 C.ar   31  TYR31      -0.0201
     34  CD1       29.9330    2.6260    2.4440 C.ar   31  TYR31      -0.0009
     35  CD2       29.9200    0.3610    3.1950 C.ar   31  TYR31      -0.0009
     36  CE1       28.5700    2.5420    2.1490 C.ar   31  TYR31       0.0417
     37  CE2       28.5720    0.2610    2.9030 C.ar   31  TYR31       0.0417
     38  CZ        27.8950    1.3530    2.3890 C.ar   31  TYR31       0.1957
     39  OH        26.5480    1.2570    2.1170 O.3    31  TYR31      -0.2866
     40  N         30.7310    4.7830   11.8350 N.3    51  PHE51      -0.1241
     41  CA        30.7170    4.6200   10.3830 C.3    51  PHE51       0.1605
     42  C         30.4950    5.9330    9.6340 C.2    51  PHE51       0.2264
     43  O         29.5830    6.6930    9.9700 O.2    51  PHE51      -0.2867
     44  CB        29.6350    3.6000    9.9880 C.3    51  PHE51       0.0534
     45  CG        29.3120    3.5890    8.5130 C.ar   51  PHE51      -0.0203
     46  CD1       30.2260    3.0850    7.5900 C.ar   51  PHE51      -0.0042
     47  CD2       28.0910    4.0710    8.0530 C.ar   51  PHE51      -0.0042
     48  CE1       29.9380    3.0760    6.2300 C.ar   51  PHE51      -0.0003
     49  CE2       27.7890    4.0610    6.6870 C.ar   51  PHE51      -0.0003
     50  CZ        28.7150    3.5640    5.7770 C.ar   51  PHE51      -0.0000
     51  N         31.1660    7.7480    5.2960 N.3    53  ILE53      -0.1245
     52  CA        31.2870    7.3550    3.8940 C.3    53  ILE53       0.1561
     53  C         32.4260    8.0550    3.1540 C.2    53  ILE53       0.2260
     54  O         32.3300    8.3120    1.9500 O.2    53  ILE53      -0.2867
     55  CB        29.9560    7.5230    3.1310 C.3    53  ILE53       0.0252
     56  CG1       29.4340    8.9640    3.2490 C.3    53  ILE53       0.0019
     57  CG2       28.9110    6.5320    3.6600 C.3    53  ILE53       0.0019
     58  CD1       28.2520    9.2700    2.3210 C.3    53  ILE53       0.0001
     59  N         21.2400   -1.1980   -4.3100 N.3   191  TRP191     -0.1241
     60  CA        22.0140    0.0320   -4.5280 C.3   191  TRP191      0.1605
     61  C         21.7060    0.6950   -5.8740 C.2   191  TRP191      0.2264
     62  O         21.5790    0.0310   -6.8990 O.2   191  TRP191     -0.2867
     63  CB        23.5200   -0.2010   -4.3360 C.3   191  TRP191      0.0550
     64  CG        23.8330   -0.8790   -3.0200 C.ar  191  TRP191      0.0003
     65  CD1       24.3860   -2.1140   -2.8460 C.ar  191  TRP191      0.0946
     66  CD2       23.5760   -0.3670   -1.7030 C.ar  191  TRP191      0.0152
     67  NE1       24.5000   -2.3970   -1.5070 N.ar  191  TRP191     -0.2442
     68  CE2       24.0100   -1.3430   -0.7840 C.ar  191  TRP191      0.0810
     69  CE3       23.0240    0.8220   -1.2140 C.ar  191  TRP191      0.0012
     70  CZ2       23.9210   -1.1640    0.5950 C.ar  191  TRP191      0.0191
     71  CZ3       22.9420    1.0020    0.1620 C.ar  191  TRP191      0.0001
     72  CH2       23.3870    0.0150    1.0480 C.ar  191  TRP191      0.0015
     73  N         15.2310   -4.6050    0.1510 N.3   215  LYS215     -0.1245
     74  CA        15.1260   -3.1500    0.0960 C.3   215  LYS215      0.1561
     75  C         15.8380   -2.5740   -1.1230 C.2   215  LYS215      0.2260
     76  O         16.9120   -3.0340   -1.4980 O.2   215  LYS215     -0.2867
     77  CB        15.6530   -2.5140    1.3880 C.3   215  LYS215      0.0271
     78  CG        15.3630   -1.0020    1.4950 C.3   215  LYS215      0.0035
     79  CD        15.7020   -0.4390    2.8770 C.3   215  LYS215      0.0206
     80  CE        17.2110   -0.4000    3.1250 C.3   215  LYS215      0.1093
     81  NZ        17.5440    0.1610    4.4720 N.3   215  LYS215     -0.1314
     82  N         16.9490    1.1190   -3.3960 N.3   217  LYS217     -0.1245
     83  CA        17.1190    2.5630   -3.4090 C.3   217  LYS217      0.1561
     84  C         16.2280    3.2110   -4.4780 C.2   217  LYS217      0.2260
     85  O         16.0260    2.6420   -5.5550 O.2   217  LYS217     -0.2867
     86  CB        18.5840    2.9220   -3.6540 C.3   217  LYS217      0.0271
     87  CG        19.5190    2.4850   -2.5400 C.3   217  LYS217      0.0035
     88  CD        19.0470    3.0300   -1.1970 C.3   217  LYS217      0.0206
     89  CE        20.0130    2.6640   -0.0880 C.3   217  LYS217      0.1093
     90  NZ        19.6920    3.3130    1.2110 N.3   217  LYS217     -0.1314
     91  N         13.9520    3.1320   -0.1740 N.3   245  ASP245     -0.1239
     92  CA        14.7160    4.0770    0.6320 C.3   245  ASP245      0.1674
     93  C         15.1230    5.2400   -0.2600 C.2   245  ASP245      0.2266
     94  O         15.8010    5.0240   -1.2720 O.2   245  ASP245     -0.2867
     95  CB        15.9780    3.3840    1.1530 C.3   245  ASP245      0.1410
     96  CG        16.7400    4.2100    2.1880 C.2   245  ASP245      0.3668
     97  OD1       16.4730    5.4310    2.3560 O.co2 245  ASP245     -0.2456
     98  OD2       17.6330    3.6180    2.8360 O.co2 245  ASP245     -0.2456
     99  N         16.7330    8.0700    1.0180 N.3   247  ASN247     -0.1240
    100  CA        17.8920    8.7350    1.6070 C.3   247  ASN247      0.1653
    101  C         17.7620   10.2630    1.7500 C.2   247  ASN247      0.2266
    102  O         18.7050   10.9950    1.4550 O.2   247  ASN247     -0.2867
    103  CB        19.1700    8.3430    0.8450 C.3   247  ASN247      0.1155
    104  CG        19.6060    6.9240    1.1570 C.2   247  ASN247      0.2627
    105  OD1       19.2080    5.9710    0.4800 O.2   247  ASN247     -0.2716
    106  ND2       20.3940    6.7710    2.2170 N.am  247  ASN247     -0.0877
    107  N         11.6650    4.5930    3.3050 N.3   271  GLU271     -0.1245
    108  CA        12.6430    4.9170    4.3350 C.3   271  GLU271      0.1567
    109  C         13.2450    6.2910    4.0760 C.2   271  GLU271      0.2260
    110  O         13.5710    6.6260    2.9260 O.2   271  GLU271     -0.2867
    111  CB        13.7430    3.8500    4.3770 C.3   271  GLU271      0.0388
    112  CG        14.9510    4.2350    5.2260 C.3   271  GLU271      0.1160
    113  CD        15.9140    3.0790    5.4350 C.2   271  GLU271      0.3649
    114  OE1       15.4850    1.9120    5.2790 O.co2 271  GLU271     -0.2457
    115  OE2       17.0940    3.3380    5.7660 O.co2 271  GLU271     -0.2457
    116  N         18.3400    6.0810   10.7030 N.3   298  GLU298     -0.1245
    117  CA        19.7690    5.7810   10.5900 C.3   298  GLU298      0.1567
    118  C         20.6440    7.0080   10.8540 C.2   298  GLU298      0.2260
    119  O         21.7640    6.8840   11.3460 O.2   298  GLU298     -0.2867
    120  CB        20.1190    5.1490    9.2380 C.3   298  GLU298      0.0388
    121  CG        20.1640    6.1180    8.0670 C.3   298  GLU298      0.1160
    122  CD        20.4410    5.3960    6.7550 C.2   298  GLU298      0.3649
    123  OE1       19.6140    4.5480    6.3460 O.co2 298  GLU298     -0.2457
    124  OE2       21.4940    5.6630    6.1470 O.co2 298  GLU298     -0.2457
    125  N         19.1670   -0.1090   11.2590 N.3   348  HIS348     -0.1226
    126  CA        19.9740    0.1670   10.0910 C.3   348  HIS348      0.1752
    127  C         21.2900   -0.5760   10.2350 C.2   348  HIS348      0.2595
    128  O         21.8300   -0.6850   11.3410 O.2   348  HIS348     -0.2718
    129  CB        20.2410    1.6680   10.0110 C.3   348  HIS348      0.0759
    130  CG        21.2910    2.0490    9.0140 C.ar  348  HIS348      0.0818
    131  ND1       22.5480    2.4800    9.3860 N.ar  348  HIS348     -0.2268
    132  CD2       21.2570    2.1080    7.6600 C.ar  348  HIS348      0.1154
    133  CE1       23.2500    2.7680    8.3030 C.ar  348  HIS348      0.1986
    134  NE2       22.4910    2.5510    7.2410 N.ar  348  HIS348     -0.2212
    135  N         21.8040   -1.0910    9.1230 N.am  349  ALA349     -0.1980
    136  CA        23.0500   -1.8500    9.1490 C.3   349  ALA349      0.1597
    137  C         23.8550   -1.6450    7.8760 C.2   349  ALA349      0.2287
    138  O         23.7410   -0.6040    7.2160 O.2   349  ALA349     -0.2864
    139  CB        22.7740   -3.3450    9.3840 C.3   349  ALA349      0.0319
    140  N         18.3220   -5.0000    9.3610 N.3   379  GLU379     -0.1245
    141  CA        18.9120   -4.8570    8.0420 C.3   379  GLU379      0.1567
    142  C         20.1370   -5.7630    7.9530 C.2   379  GLU379      0.2260
    143  O         20.8360   -5.9800    8.9500 O.2   379  GLU379     -0.2867
    144  CB        19.3040   -3.4070    7.7520 C.3   379  GLU379      0.0388
    145  CG        19.8740   -3.2130    6.3470 C.3   379  GLU379      0.1160
    146  CD        20.0610   -1.7460    5.9590 C.2   379  GLU379      0.3649
    147  OE1       20.0790   -0.8650    6.8580 O.co2 379  GLU379     -0.2457
    148  OE2       20.1810   -1.4830    4.7410 O.co2 379  GLU379     -0.2457
@<TRIPOS>BOND
     1    62    61    2
     2    61    60    1
     3    85    84    2
     4    60    63    1
     5    60    59    1
     6    84    83    1
     7     8     7    2
     8    63    64    1
     9     7     6    1
    10    86    83    1
    11    86    87    1
    12    83    82    1
    13     5     6    1
    14     6     9    1
    15    64    65   ar
    16    64    66   ar
    17    15    16    2
    18    15    14    1
    19    65    67   ar
    20    87    88    1
    21    27    21    1
    22    27    26    1
    23    21    22    1
    24     1     2    1
    25     9    10    1
    26    13    14    1
    27    14    17    1
    28    66    69   ar
    29    66    68   ar
    30     3     2    1
    31     3     4    2
    32    67    68   ar
    33    76    75    2
    34    24    23    2
    35    94    93    2
    36    69    71   ar
    37    88    89    1
    38    11    10   ar
    39    75    74    1
    40    26    25    1
    41    10    12   ar
    42    22    23    1
    43    22    25    1
    44    68    70   ar
    45    17    18    1
    46    93    92    1
    47    91    92    1
    48    89    90    1
    49    74    73    1
    50    74    77    1
    51    71    72   ar
    52   105   104    2
    53    70    72   ar
    54    92    95    1
    55    18    19    2
    56    18    20   am
    57   103   104    1
    58   103   100    1
    59    99   100    1
    60    95    96    1
    61   104   106   am
    62    77    78    1
    63   102   101    2
    64    78    79    1
    65   100   101    1
    66    54    53    2
    67    28    29    1
    68    39    38    1
    69    36    38   ar
    70    36    34   ar
    71    96    97   ar
    72    96    98   ar
    73    58    56    1
    74    38    37   ar
    75    34    33   ar
    76    79    80    1
    77    37    35   ar
    78   110   109    2
    79    33    35   ar
    80    33    32    1
    81    80    81    1
    82    55    56    1
    83    55    57    1
    84    55    52    1
    85    53    52    1
    86    32    29    1
    87   107   108    1
    88    29    30    1
    89    52    51    1
    90    31    30    2
    91   109   108    1
    92   108   111    1
    93   111   112    1
    94   148   146   ar
    95   112   113    1
    96   114   113   ar
    97   113   115   ar
    98    50    48   ar
    99    50    49   ar
   100   146   145    1
   101   146   147   ar
   102   124   122   ar
   103    48    46   ar
   104   123   122   ar
   105   145   144    1
   106    49    47   ar
   107   122   121    1
   108   138   137    2
   109   134   132   ar
   110   134   133   ar
   111    46    45   ar
   112   132   130   ar
   113   144   141    1
   114   137   136    1
   115   142   141    1
   116   142   143    2
   117   141   140    1
   118    47    45   ar
   119   121   120    1
   120   133   131   ar
   121    45    44    1
   122   130   131   ar
   123   130   129    1
   124   135   136    1
   125   135   127   am
   126   136   139    1
   127   120   117    1
   128    42    43    2
   129    42    41    1
   130    44    41    1
   131   129   126    1
   132   126   127    1
   133   126   125    1
   134   127   128    2
   135    41    40    1
   136   117   116    1
   137   117   118    1
   138   118   119    2
