@<TRIPOS>MOLECULE
tmp/4ip7B00.pdb
 95 90 0 0 0
SMALL
GASTEIGER

@<TRIPOS>ATOM
      1  N         33.2770   -0.6500  -16.3200 N.3     6  LEU6       -0.1245
      2  CA        33.9920   -1.6330  -15.5200 C.3     6  LEU6        0.1561
      3  C         35.1850   -1.0610  -14.7530 C.2     6  LEU6        0.2260
      4  O         35.3730   -1.4210  -13.5920 O.2     6  LEU6       -0.2867
      5  CB        34.3630   -2.8880  -16.3360 C.3     6  LEU6        0.0270
      6  CG        33.4970   -4.1520  -16.1530 C.3     6  LEU6        0.0019
      7  CD1       32.2680   -3.9700  -15.2800 C.3     6  LEU6        0.0001
      8  CD2       33.1670   -4.8480  -17.4730 C.3     6  LEU6        0.0001
      9  N         33.7770    0.4300  -11.8270 N.3     9  ALA9       -0.1231
     10  CA        33.1750   -0.6090  -10.9780 C.3     9  ALA9        0.1694
     11  C         34.1450   -1.1620   -9.9560 C.2     9  ALA9        0.2591
     12  O         33.6980   -1.5490   -8.8700 O.2     9  ALA9       -0.2718
     13  CB        32.5770   -1.7220  -11.8220 C.3     9  ALA9        0.0304
     14  N         35.4530   -1.1680  -10.3270 N.am   10  MET10      -0.1979
     15  CA        36.5920   -1.6400   -9.5540 C.3    10  MET10       0.1605
     16  C         37.0690   -0.6720   -8.4710 C.2    10  MET10       0.2287
     17  O         37.9030   -1.0500   -7.6410 O.2    10  MET10      -0.2864
     18  CB        37.8120   -1.8860  -10.4870 C.3    10  MET10       0.0413
     19  CG        38.2320   -3.3250  -10.6910 C.3    10  MET10       0.0598
     20  SD        36.9060   -4.3440  -11.3840 S.3    10  MET10      -0.1393
     21  CE        37.7610   -5.9360  -11.4570 C.3    10  MET10       0.0692
     22  N         27.9320   -1.2450   -8.1510 N.3   365  HIS365     -0.1226
     23  CA        27.4700   -2.5520   -7.5950 C.3   365  HIS365      0.1752
     24  C         28.2550   -2.9440   -6.4000 C.2   365  HIS365      0.2595
     25  O         27.7190   -3.5320   -5.4590 O.2   365  HIS365     -0.2718
     26  CB        27.5320   -3.6680   -8.6090 C.3   365  HIS365      0.0759
     27  CG        26.5390   -3.4890   -9.7090 C.ar  365  HIS365      0.0818
     28  ND1       25.2020   -3.7760   -9.5490 N.ar  365  HIS365     -0.2268
     29  CD2       26.6890   -2.9820  -10.9920 C.ar  365  HIS365      0.1154
     30  CE1       24.5510   -3.4770  -10.6950 C.ar  365  HIS365      0.1986
     31  NE2       25.4760   -3.0160  -11.5890 N.ar  365  HIS365     -0.2212
     32  N         29.5440   -2.6490   -6.3990 N.am  366  ARG366     -0.1980
     33  CA        30.3150   -3.1290   -5.2690 C.3   366  ARG366      0.1597
     34  C         29.7290   -2.6370   -3.9370 C.2   366  ARG366      0.2287
     35  O         29.6450   -3.3630   -2.9690 O.2   366  ARG366     -0.2864
     36  CB        31.7700   -2.7480   -5.3910 C.3   366  ARG366      0.0334
     37  CG        32.4500   -2.6610   -4.0660 C.3   366  ARG366      0.0492
     38  CD        33.8170   -2.1920   -4.3850 C.3   366  ARG366      0.2205
     39  NE        34.4070   -3.2850   -5.1150 N.pl3 366  ARG366     -0.0865
     40  CZ        35.7000   -3.5020   -5.1340 C.cat 366  ARG366      0.5346
     41  NH1       36.5110   -2.6750   -4.4740 N.pl3 366  ARG366      0.1354
     42  NH2       36.1660   -4.5360   -5.8020 N.pl3 366  ARG366      0.1354
     43  N         25.5260   -3.8750   -3.8480 N.3   369  PHE369     -0.1241
     44  CA        25.3260   -5.3000   -3.5040 C.3   369  PHE369      0.1605
     45  C         25.6730   -5.5710   -2.0370 C.2   369  PHE369      0.2264
     46  O         24.9070   -6.2080   -1.3110 O.2   369  PHE369     -0.2867
     47  CB        26.1440   -6.2080   -4.3980 C.3   369  PHE369      0.0534
     48  CG        26.0140   -7.6750   -4.0340 C.ar  369  PHE369     -0.0203
     49  CD1       24.7600   -8.3290   -4.0620 C.ar  369  PHE369     -0.0042
     50  CD2       27.1280   -8.3800   -3.6660 C.ar  369  PHE369     -0.0042
     51  CE1       24.6810   -9.7080   -3.7330 C.ar  369  PHE369     -0.0003
     52  CE2       27.0550   -9.7330   -3.3180 C.ar  369  PHE369     -0.0003
     53  CZ        25.7970  -10.3900   -3.3710 C.ar  369  PHE369     -0.0000
     54  N         23.0340   -6.8410    0.4250 N.3   373  ARG373     -0.1245
     55  CA        23.3480   -8.1290    1.0210 C.3   373  ARG373      0.1563
     56  C         23.2510   -7.9990    2.5470 C.2   373  ARG373      0.2260
     57  O         22.5280   -8.7860    3.1900 O.2   373  ARG373     -0.2867
     58  CB        24.7300   -8.7050    0.5620 C.3   373  ARG373      0.0307
     59  CG        25.2530  -10.0280    1.2210 C.3   373  ARG373      0.0489
     60  CD        26.7950  -10.1940    1.3370 C.3   373  ARG373      0.2205
     61  NE        27.5300   -9.1100    0.6590 N.pl3 373  ARG373     -0.0865
     62  CZ        28.8400   -8.8020    0.7320 C.cat 373  ARG373      0.5346
     63  NH1       29.7390   -9.5410    1.4220 N.pl3 373  ARG373      0.1354
     64  NH2       29.2610   -7.7180    0.0600 N.pl3 373  ARG373      0.1354
     65  N         25.6550  -13.7040   -6.3020 N.3   392  GLU392     -0.1245
     66  CA        27.1020  -13.6710   -5.9720 C.3   392  GLU392      0.1567
     67  C         27.9310  -14.4570   -6.9570 C.2   392  GLU392      0.2260
     68  O         28.9920  -13.9860   -7.3470 O.2   392  GLU392     -0.2867
     69  CB        27.4800  -14.0900   -4.5550 C.3   392  GLU392      0.0388
     70  CG        29.0360  -14.0320   -4.3910 C.3   392  GLU392      0.1160
     71  CD        29.6620  -12.6810   -4.7990 C.2   392  GLU392      0.3649
     72  OE1       29.1010  -11.6690   -4.3750 O.co2 392  GLU392     -0.2457
     73  OE2       30.7180  -12.5890   -5.5100 O.co2 392  GLU392     -0.2457
     74  N         28.3330  -12.3350  -10.2450 N.3   395  PHE395     -0.1241
     75  CA        29.4160  -11.3350  -10.0740 C.3   395  PHE395      0.1605
     76  C         30.7960  -12.0030  -10.1260 C.2   395  PHE395      0.2264
     77  O         31.7630  -11.4430  -10.6670 O.2   395  PHE395     -0.2867
     78  CB        29.2950  -10.5130   -8.7600 C.3   395  PHE395      0.0534
     79  CG        28.2610   -9.4120   -8.8250 C.ar  395  PHE395     -0.0203
     80  CD1       27.1250   -9.4440   -8.0340 C.ar  395  PHE395     -0.0042
     81  CD2       28.4390   -8.3360   -9.6850 C.ar  395  PHE395     -0.0042
     82  CE1       26.1810   -8.3940   -8.1160 C.ar  395  PHE395     -0.0003
     83  CE2       27.4740   -7.3240   -9.8030 C.ar  395  PHE395     -0.0003
     84  CZ        26.3520   -7.3610   -8.9910 C.ar  395  PHE395     -0.0000
     85  N         24.5120   -7.2470  -12.0870 N.3   421  ARG421     -0.1245
     86  CA        24.8330   -6.7330  -13.4110 C.3   421  ARG421      0.1563
     87  C         24.3460   -7.6890  -14.5430 C.2   421  ARG421      0.2260
     88  O         23.8600   -7.2480  -15.5710 O.2   421  ARG421     -0.2867
     89  CB        26.3320   -6.5420  -13.5220 C.3   421  ARG421      0.0307
     90  CG        26.6520   -6.0390  -14.8810 C.3   421  ARG421      0.0489
     91  CD        28.1540   -5.9530  -15.0580 C.3   421  ARG421      0.2205
     92  NE        28.7330   -4.7360  -14.4880 N.pl3 421  ARG421     -0.0865
     93  CZ        29.3600   -4.6570  -13.3210 C.cat 421  ARG421      0.5346
     94  NH1       29.4860   -5.7550  -12.5310 N.pl3 421  ARG421      0.1354
     95  NH2       29.8610   -3.4740  -12.9670 N.pl3 421  ARG421      0.1354
@<TRIPOS>BOND
     1     8     6    1
     2     5     6    1
     3     5     2    1
     4     1     2    1
     5     6     7    1
     6    88    87    2
     7     2     3    1
     8    91    90    1
     9    91    92    1
    10    90    89    1
    11     3     4    2
    12    87    86    1
    13    92    93    2
    14    89    86    1
    15    86    85    1
    16    93    95    1
    17    93    94    1
    18     9    10    1
    19    13    10    1
    20    31    29   ar
    21    31    30   ar
    22    21    20    1
    23    20    19    1
    24    29    27   ar
    25    10    11    1
    26    30    28   ar
    27    19    18    1
    28    77    76    2
    29    18    15    1
    30    14    11   am
    31    14    15    1
    32    74    75    1
    33    76    75    1
    34    75    78    1
    35    11    12    2
    36    83    81   ar
    37    83    84   ar
    38    27    28   ar
    39    27    26    1
    40    81    79   ar
    41    15    16    1
    42    84    82   ar
    43    79    78    1
    44    79    80   ar
    45    26    23    1
    46    16    17    2
    47    22    23    1
    48    82    80   ar
    49    23    24    1
    50    68    67    2
    51    67    66    1
    52    24    32   am
    53    24    25    2
    54    32    33    1
    55    65    66    1
    56    66    69    1
    57    42    40    1
    58    73    71   ar
    59    36    33    1
    60    36    37    1
    61    33    34    1
    62    40    39    2
    63    40    41    1
    64    39    38    1
    65    71    70    1
    66    71    72   ar
    67    69    70    1
    68    47    48    1
    69    47    44    1
    70    38    37    1
    71    49    48   ar
    72    49    51   ar
    73    48    50   ar
    74    34    35    2
    75    43    44    1
    76    51    53   ar
    77    50    52   ar
    78    44    45    1
    79    53    52   ar
    80    45    46    2
    81    64    62    1
    82    54    55    1
    83    58    55    1
    84    58    59    1
    85    61    62    2
    86    61    60    1
    87    62    63    1
    88    55    56    1
    89    59    60    1
    90    56    57    2
