@<TRIPOS>MOLECULE
tmp/4ip7C03.pdb
 110 109 0 0 0
SMALL
GASTEIGER

@<TRIPOS>ATOM
      1  N         58.5590    3.3820   21.8800 N.3    30  ARG30      -0.1231
      2  CA        57.6570    2.3510   22.4170 C.3    30  ARG30       0.1694
      3  C         56.6130    2.9910   23.3160 C.2    30  ARG30       0.2593
      4  O         56.9530    3.7380   24.1910 O.2    30  ARG30      -0.2718
      5  CB        58.4330    1.2590   23.2120 C.3    30  ARG30       0.0321
      6  CG        57.5770   -0.0010   23.5360 C.3    30  ARG30       0.0489
      7  CD        57.2100    0.0230   25.0070 C.3    30  ARG30       0.2205
      8  NE        58.3620    0.2120   25.9610 N.pl3  30  ARG30      -0.0865
      9  CZ        58.2610    0.5510   27.2670 C.cat  30  ARG30       0.5346
     10  NH1       57.0680    0.8030   27.8870 N.pl3  30  ARG30       0.1354
     11  NH2       59.4130    0.7430   27.9510 N.pl3  30  ARG30       0.1354
     12  N         55.3370    2.7210   23.0470 N.am   31  SER31      -0.1938
     13  CA        54.2190    3.4560   23.6300 C.3    31  SER31       0.2055
     14  C         53.3610    2.6570   24.6350 C.2    31  SER31       0.2644
     15  O         52.6400    3.2740   25.4410 O.2    31  SER31      -0.2714
     16  CB        53.4000    4.0640   22.4470 C.3    31  SER31       0.2130
     17  OG        52.7230    3.0430   21.8790 O.3    31  SER31      -0.2179
     18  N         53.3690    1.3270   24.5950 N.am   32  THR32      -0.1936
     19  CA        52.5840    0.5610   25.6050 C.3    32  THR32       0.2028
     20  C         53.4170    0.4990   26.8670 C.2    32  THR32       0.2642
     21  O         54.5480    0.0450   26.8370 O.2    32  THR32      -0.2714
     22  CB        52.3560   -0.8910   25.0880 C.3    32  THR32       0.1808
     23  OG1       51.7340   -0.7610   23.7920 O.3    32  THR32      -0.2208
     24  CG2       51.5150   -1.7050   26.0580 C.3    32  THR32       0.0379
     25  N         52.8380    0.8520   28.0000 N.am   33  SER33      -0.1949
     26  CA        53.6280    0.8560   29.2330 C.3    33  SER33       0.1924
     27  C         53.8650   -0.5360   29.7520 C.2    33  SER33       0.2314
     28  O         52.9670   -1.3900   29.6260 O.2    33  SER33      -0.2863
     29  CB        52.9200    1.6220   30.3440 C.3    33  SER33       0.2116
     30  OG        53.0470    3.0280   30.0200 O.3    33  SER33      -0.2180
     31  N         57.8330    1.2520   33.4220 N.3    57  ASN57      -0.1240
     32  CA        57.1830    2.5480   33.6070 C.3    57  ASN57       0.1653
     33  C         56.3560    2.5860   34.9120 C.2    57  ASN57       0.2266
     34  O         56.0460    3.6740   35.4480 O.2    57  ASN57      -0.2867
     35  CB        56.2040    2.8160   32.4580 C.3    57  ASN57       0.1155
     36  CG        56.9170    2.7320   31.1220 C.2    57  ASN57       0.2627
     37  OD1       56.6600    1.8210   30.3550 O.2    57  ASN57      -0.2716
     38  ND2       57.8700    3.6010   30.9210 N.am   57  ASN57      -0.0877
     39  N         46.5760   -0.8140   26.9100 N.3   326  ASP326     -0.1239
     40  CA        47.4480    0.3480   27.2470 C.3   326  ASP326      0.1674
     41  C         48.7370   -0.1090   27.9120 C.2   326  ASP326      0.2266
     42  O         49.7480    0.5660   27.7650 O.2   326  ASP326     -0.2867
     43  CB        46.7400    1.3690   28.1840 C.3   326  ASP326      0.1410
     44  CG        45.6030    2.0460   27.4720 C.2   326  ASP326      0.3668
     45  OD1       45.7520    3.1500   26.8650 O.co2 326  ASP326     -0.2456
     46  OD2       44.5570    1.3970   27.3770 O.co2 326  ASP326     -0.2456
     47  N         51.4160    7.2600   32.6030 N.3   433  HIS433     -0.1226
     48  CA        51.8480    5.9730   32.0600 C.3   433  HIS433      0.1752
     49  C         50.7380    4.9180   31.8900 C.2   433  HIS433      0.2596
     50  O         50.9250    3.9120   31.1880 O.2   433  HIS433     -0.2718
     51  CB        52.9420    5.3770   32.9550 C.3   433  HIS433      0.0759
     52  CG        54.2910    6.0420   32.7830 C.ar  433  HIS433      0.0818
     53  ND1       54.9180    6.1330   31.5580 N.ar  433  HIS433     -0.2268
     54  CD2       55.1570    6.6260   33.7290 C.ar  433  HIS433      0.1154
     55  CE1       56.1430    6.7190   31.7570 C.ar  433  HIS433      0.1986
     56  NE2       56.2660    7.0310   33.0660 N.ar  433  HIS433     -0.2212
     57  N         49.6090    5.0990   32.5720 N.am  434  LEU434     -0.1966
     58  CA        48.4670    4.1870   32.3200 C.3   434  LEU434      0.1728
     59  C         47.9880    4.2730   30.8710 C.2   434  LEU434      0.2616
     60  O         47.3470    3.3100   30.3870 O.2   434  LEU434     -0.2715
     61  CB        47.3060    4.5200   33.2420 C.3   434  LEU434      0.0311
     62  CG        47.6000    4.0290   34.6620 C.3   434  LEU434      0.0022
     63  CD1       46.6190    4.7080   35.6000 C.3   434  LEU434      0.0001
     64  CD2       47.4540    2.4940   34.8090 C.3   434  LEU434      0.0001
     65  N         48.2920    5.3760   30.1710 N.am  435  CYS435     -0.1954
     66  CA        47.6520    5.6500   28.8430 C.3   435  CYS435      0.1843
     67  C         48.5980    5.3920   27.6920 C.2   435  CYS435      0.2625
     68  O         49.6460    6.0010   27.6740 O.2   435  CYS435     -0.2714
     69  CB        47.2090    7.1300   28.7470 C.3   435  CYS435      0.0997
     70  SG        45.9870    7.5620   30.0090 S.3   435  CYS435     -0.0797
     71  N         48.2240    4.5260   26.7290 N.am  436  ARG436     -0.1963
     72  CA        49.2010    4.1450   25.6610 C.3   436  ARG436      0.1729
     73  C         49.6990    5.4350   25.0380 C.2   436  ARG436      0.2617
     74  O         48.8860    6.2800   24.6240 O.2   436  ARG436     -0.2715
     75  CB        48.5980    3.3120   24.5630 C.3   436  ARG436      0.0348
     76  CG        49.6700    2.8800   23.5000 C.3   436  ARG436      0.0492
     77  CD        49.1090    2.1510   22.2870 C.3   436  ARG436      0.2205
     78  NE        48.7920    0.8300   22.7160 N.pl3 436  ARG436     -0.0865
     79  CZ        48.2010   -0.0370   21.9170 C.cat 436  ARG436      0.5346
     80  NH1       47.8980   -1.2140   22.3640 N.pl3 436  ARG436      0.1354
     81  NH2       47.9120    0.3090   20.6840 N.pl3 436  ARG436      0.1354
     82  N         51.0280    5.5360   24.9380 N.am  437  GLY437     -0.1940
     83  CA        51.6590    6.4400   23.9410 C.3   437  GLY437      0.2014
     84  C         51.8130    7.8370   24.5540 C.2   437  GLY437      0.2639
     85  O         52.0180    8.8090   23.8440 O.2   437  GLY437     -0.2714
     86  N         51.6240    7.9740   25.8730 N.am  438  VAL438     -0.1963
     87  CA        51.8130    9.2790   26.5270 C.3   438  VAL438      0.1727
     88  C         53.2050    9.2280   27.1500 C.2   438  VAL438      0.2616
     89  O         53.5180    8.2790   27.9070 O.2   438  VAL438     -0.2715
     90  CB        50.7500    9.5830   27.6240 C.3   438  VAL438      0.0290
     91  CG1       50.9750   10.9570   28.1920 C.3   438  VAL438      0.0023
     92  CG2       49.3270    9.5380   27.0330 C.3   438  VAL438      0.0023
     93  N         54.0260   10.2530   26.8960 N.am  439  PHE439     -0.1960
     94  CA        55.4200   10.2730   27.3760 C.3   439  PHE439      0.1756
     95  C         55.4870   11.4610   28.2820 C.2   439  PHE439      0.2461
     96  O         55.5040   12.5860   27.7970 O.2   439  PHE439     -0.2730
     97  CB        56.3940   10.3860   26.1730 C.3   439  PHE439      0.0574
     98  CG        56.3750    9.2050   25.2850 C.ar  439  PHE439     -0.0200
     99  CD1       55.4690    9.1500   24.1810 C.ar  439  PHE439     -0.0042
    100  CD2       57.1200    8.1050   25.5820 C.ar  439  PHE439     -0.0042
    101  CE1       55.4340    8.0100   23.3590 C.ar  439  PHE439     -0.0003
    102  CE2       57.0770    6.9560   24.7610 C.ar  439  PHE439     -0.0003
    103  CZ        56.1950    6.9190   23.6860 C.ar  439  PHE439     -0.0000
    104  N         55.4700   11.2410   29.5910 N.am  440  PRO440     -0.2727
    105  CA        55.3700   12.3930   30.5450 C.3   440  PRO440      0.1402
    106  C         56.7060   13.0520   30.7970 C.2   440  PRO440      0.2269
    107  O         57.7420   12.3670   30.9770 O.2   440  PRO440     -0.2865
    108  CB        54.8750   11.7370   31.8130 C.3   440  PRO440      0.0296
    109  CG        55.5290   10.3760   31.7650 C.3   440  PRO440      0.0237
    110  CD        55.5230    9.9560   30.3200 C.3   440  PRO440      0.0939
@<TRIPOS>BOND
     1    81    79    1
     2    17    16    1
     3     1     2    1
     4    79    80    1
     5    79    78    2
     6    77    78    1
     7    77    76    1
     8     2     5    1
     9     2     3    1
    10    16    13    1
    11    12     3   am
    12    12    13    1
    13     5     6    1
    14     3     4    2
    15   101   103   ar
    16   101    99   ar
    17    76    75    1
    18     6     7    1
    19    13    14    1
    20   103   102   ar
    21    23    22    1
    22    85    84    2
    23    83    84    1
    24    83    82    1
    25    99    98   ar
    26    84    86   am
    27    75    72    1
    28    18    14   am
    29    18    19    1
    30    74    73    2
    31    14    15    2
    32   102   100   ar
    33    82    73   am
    34     7     8    1
    35    73    72    1
    36    22    19    1
    37    22    24    1
    38    98   100   ar
    39    98    97    1
    40    19    20    1
    41    72    71    1
    42    86    87    1
    43     8     9    2
    44    97    94    1
    45    87    88    1
    46    87    90    1
    47    71    67   am
    48    21    20    2
    49    45    44   ar
    50    20    25   am
    51    93    88   am
    52    93    94    1
    53    39    40    1
    54    92    90    1
    55    88    89    2
    56    40    41    1
    57    40    43    1
    58     9    10    1
    59     9    11    1
    60    94    95    1
    61    46    44   ar
    62    44    43    1
    63    90    91    1
    64    68    67    2
    65    67    66    1
    66    42    41    2
    67    96    95    2
    68    25    26    1
    69    95   104   am
    70    69    66    1
    71    69    70    1
    72    66    65    1
    73    26    27    1
    74    26    29    1
    75   104   110    1
    76   104   105    1
    77    28    27    2
    78    30    29    1
    79    65    59   am
    80   110   109    1
    81    37    36    2
    82    60    59    2
    83   105   106    1
    84   105   108    1
    85   106   107    2
    86    59    58    1
    87    38    36   am
    88    36    35    1
    89    50    49    2
    90    53    55   ar
    91    53    52   ar
    92    55    56   ar
    93   109   108    1
    94    49    48    1
    95    49    57   am
    96    48    47    1
    97    48    51    1
    98    58    57    1
    99    58    61    1
   100    35    32    1
   101    52    51    1
   102    52    54   ar
   103    56    54   ar
   104    61    62    1
   105    31    32    1
   106    32    33    1
   107    62    64    1
   108    62    63    1
   109    33    34    2
