@<TRIPOS>MOLECULE
tmp/4ip8C01.pdb
 91 89 0 0 0
SMALL
GASTEIGER

@<TRIPOS>ATOM
      1  N        -56.0250  -23.1800   37.0630 N.3    18  MET18      -0.1230
      2  CA       -55.6670  -21.7980   36.7700 C.3    18  MET18       0.1702
      3  C        -56.9020  -20.9090   36.8340 C.2    18  MET18       0.2592
      4  O        -56.8670  -19.8150   37.3980 O.2    18  MET18      -0.2718
      5  CB       -54.9990  -21.6870   35.4010 C.3    18  MET18       0.0401
      6  CG       -53.6160  -22.3220   35.3290 C.3    18  MET18       0.0596
      7  SD       -52.4140  -21.4740   36.3640 S.3    18  MET18      -0.1393
      8  CE       -52.2860  -19.9070   35.5000 C.3    18  MET18       0.0692
      9  N        -57.9980  -21.3810   36.2540 N.am   19  TRP19      -0.1976
     10  CA       -59.2300  -20.6040   36.2570 C.3    19  TRP19       0.1640
     11  C        -59.7680  -20.4080   37.6700 C.2    19  TRP19       0.2290
     12  O        -60.3340  -19.3610   37.9880 O.2    19  TRP19      -0.2864
     13  CB       -60.2990  -21.2500   35.3820 C.3    19  TRP19       0.0576
     14  CG       -61.5100  -20.3940   35.2680 C.ar   19  TRP19       0.0006
     15  CD1      -62.6690  -20.5130   35.9790 C.ar   19  TRP19       0.0946
     16  CD2      -61.6800  -19.2620   34.4120 C.ar   19  TRP19       0.0152
     17  NE1      -63.5570  -19.5370   35.6070 N.ar   19  TRP19      -0.2442
     18  CE2      -62.9730  -18.7520   34.6440 C.ar   19  TRP19       0.0810
     19  CE3      -60.8690  -18.6360   33.4600 C.ar   19  TRP19       0.0012
     20  CZ2      -63.4750  -17.6440   33.9680 C.ar   19  TRP19       0.0191
     21  CZ3      -61.3680  -17.5350   32.7880 C.ar   19  TRP19       0.0001
     22  CH2      -62.6580  -17.0490   33.0460 C.ar   19  TRP19       0.0015
     23  N        -57.9630  -20.2370   40.3810 N.3    21  ALA21      -0.1231
     24  CA       -57.1340  -19.2200   41.0070 C.3    21  ALA21       0.1694
     25  C        -57.7580  -17.8620   40.7210 C.2    21  ALA21       0.2592
     26  O        -57.9560  -17.0570   41.6260 O.2    21  ALA21      -0.2718
     27  CB       -55.7050  -19.2780   40.4750 C.3    21  ALA21       0.0304
     28  N        -58.0780  -17.6250   39.4530 N.am   22  TYR22      -0.1976
     29  CA       -58.7090  -16.3800   39.0310 C.3    22  TYR22       0.1639
     30  C        -60.0650  -16.1690   39.7030 C.2    22  TYR22       0.2290
     31  O        -60.3580  -15.0770   40.1900 O.2    22  TYR22      -0.2864
     32  CB       -58.8550  -16.3370   37.5070 C.3    22  TYR22       0.0560
     33  CG       -59.7820  -15.2480   37.0170 C.ar   22  TYR22      -0.0198
     34  CD1      -59.3820  -13.9170   37.0120 C.ar   22  TYR22      -0.0009
     35  CD2      -61.0620  -15.5490   36.5660 C.ar   22  TYR22      -0.0009
     36  CE1      -60.2300  -12.9170   36.5700 C.ar   22  TYR22       0.0417
     37  CE2      -61.9170  -14.5540   36.1220 C.ar   22  TYR22       0.0417
     38  CZ       -61.4940  -13.2400   36.1270 C.ar   22  TYR22       0.1957
     39  OH       -62.3340  -12.2440   35.6850 O.3    22  TYR22      -0.2866
     40  N        -59.5960  -15.2050   43.2160 N.3    25  MET25      -0.1245
     41  CA       -59.0910  -13.8410   43.3060 C.3    25  MET25       0.1570
     42  C        -60.2490  -12.8570   43.2070 C.2    25  MET25       0.2261
     43  O        -60.3350  -11.8910   43.9620 O.2    25  MET25      -0.2867
     44  CB       -58.0770  -13.5670   42.1960 C.3    25  MET25       0.0387
     45  CG       -57.5080  -12.1560   42.2340 C.3    25  MET25       0.0595
     46  SD       -56.0570  -11.9300   41.1870 S.3    25  MET25      -0.1393
     47  CE       -56.7670  -12.0240   39.5450 C.3    25  MET25       0.0692
     48  N        -52.2860  -15.6520   44.2400 N.3    37  PHE37      -0.1227
     49  CA       -53.1390  -16.4520   43.3600 C.3    37  PHE37       0.1736
     50  C        -52.4200  -16.8680   42.0780 C.2    37  PHE37       0.2595
     51  O        -52.6430  -17.9590   41.5700 O.2    37  PHE37      -0.2718
     52  CB       -54.4370  -15.7050   43.0450 C.3    37  PHE37       0.0547
     53  CG       -55.3690  -15.6090   44.2190 C.ar   37  PHE37      -0.0202
     54  CD1      -55.9850  -16.7420   44.7210 C.ar   37  PHE37      -0.0042
     55  CD2      -55.6250  -14.3910   44.8230 C.ar   37  PHE37      -0.0042
     56  CE1      -56.8400  -16.6640   45.8010 C.ar   37  PHE37      -0.0003
     57  CE2      -56.4840  -14.3040   45.9040 C.ar   37  PHE37      -0.0003
     58  CZ       -57.0900  -15.4450   46.3920 C.ar   37  PHE37      -0.0000
     59  N        -51.5650  -15.9940   41.5510 N.am   38  HIS38      -0.1975
     60  CA       -50.7440  -16.3570   40.4020 C.3    38  HIS38       0.1656
     61  C        -49.9020  -17.5670   40.7730 C.2    38  HIS38       0.2291
     62  O        -49.8450  -18.5510   40.0360 O.2    38  HIS38      -0.2864
     63  CB       -49.8440  -15.1990   39.9890 C.3    38  HIS38       0.0771
     64  CG       -50.5860  -14.0290   39.4250 C.ar   38  HIS38       0.0820
     65  ND1      -50.2310  -12.7240   39.6870 N.ar   38  HIS38      -0.2267
     66  CD2      -51.6640  -13.9680   38.6060 C.ar   38  HIS38       0.1154
     67  CE1      -51.0580  -11.9090   39.0570 C.ar   38  HIS38       0.1986
     68  NE2      -51.9380  -12.6380   38.3960 N.ar   38  HIS38      -0.2212
     69  N        -52.2020  -20.7910   41.5690 N.3    41  GLY41      -0.1225
     70  CA       -52.7610  -21.3500   40.3540 C.3    41  GLY41       0.1811
     71  C        -51.7360  -22.1740   39.6050 C.2    41  GLY41       0.2280
     72  O        -52.0120  -23.3060   39.2120 O.2    41  GLY41      -0.2866
     73  N        -51.4530  -20.3380   29.9890 N.3    59  ILE59      -0.1245
     74  CA       -52.4810  -19.4940   30.5810 C.3    59  ILE59       0.1561
     75  C        -51.9120  -18.2600   31.2870 C.2    59  ILE59       0.2260
     76  O        -52.5140  -17.1860   31.2530 O.2    59  ILE59      -0.2867
     77  CB       -53.3940  -20.3150   31.5110 C.3    59  ILE59       0.0252
     78  CG1      -54.2010  -21.3090   30.6680 C.3    59  ILE59       0.0019
     79  CG2      -54.3320  -19.4070   32.2930 C.3    59  ILE59       0.0019
     80  CD1      -54.8900  -22.3900   31.4610 C.3    59  ILE59       0.0001
     81  N        -52.8060  -14.5320   30.4390 N.3    63  ARG63      -0.1245
     82  CA       -53.2710  -13.6260   31.4770 C.3    63  ARG63       0.1563
     83  C        -52.4860  -12.3180   31.4460 C.2    63  ARG63       0.2260
     84  O        -53.0670  -11.2390   31.5510 O.2    63  ARG63      -0.2867
     85  CB       -53.1700  -14.2790   32.8560 C.3    63  ARG63       0.0307
     86  CG       -53.7580  -13.4420   33.9790 C.3    63  ARG63       0.0489
     87  CD       -52.6880  -13.0390   34.9760 C.3    63  ARG63       0.2205
     88  NE       -51.9530  -14.2010   35.4500 N.pl3  63  ARG63      -0.0865
     89  CZ       -50.6300  -14.2720   35.5320 C.cat  63  ARG63       0.5346
     90  NH1      -49.8790  -13.2370   35.1760 N.pl3  63  ARG63       0.1354
     91  NH2      -50.0610  -15.3840   35.9750 N.pl3  63  ARG63       0.1354
@<TRIPOS>BOND
     1    73    74    1
     2    81    82    1
     3    74    75    1
     4    74    77    1
     5    78    80    1
     6    78    77    1
     7    76    75    2
     8    83    82    1
     9    83    84    2
    10    82    85    1
    11    77    79    1
    12    21    22   ar
    13    21    19   ar
    14    85    86    1
    15    22    20   ar
    16    19    16   ar
    17    20    18   ar
    18    86    87    1
    19    16    18   ar
    20    16    14   ar
    21    18    17   ar
    22    87    88    1
    23    90    89    1
    24    14    13    1
    25    14    15   ar
    26     6     5    1
    27     6     7    1
    28    13    10    1
    29     5     2    1
    30    88    89    2
    31     8     7    1
    32    89    91    1
    33    17    15   ar
    34    39    38    1
    35    37    38   ar
    36    37    35   ar
    37    38    36   ar
    38     9    10    1
    39     9     3   am
    40    10    11    1
    41    35    33   ar
    42    36    34   ar
    43     2     3    1
    44     2     1    1
    45     3     4    2
    46    34    33   ar
    47    33    32    1
    48    32    29    1
    49    11    12    2
    50    68    66   ar
    51    68    67   ar
    52    66    64   ar
    53    29    28    1
    54    29    30    1
    55    67    65   ar
    56    72    71    2
    57    64    65   ar
    58    64    63    1
    59    28    25   am
    60    47    46    1
    61    71    70    1
    62    30    31    2
    63    63    60    1
    64    62    61    2
    65    70    69    1
    66    23    24    1
    67    60    61    1
    68    60    59    1
    69    27    24    1
    70    25    24    1
    71    25    26    2
    72    46    45    1
    73    59    50   am
    74    51    50    2
    75    50    49    1
    76    44    45    1
    77    44    41    1
    78    52    49    1
    79    52    53    1
    80    42    41    1
    81    42    43    2
    82    40    41    1
    83    49    48    1
    84    53    54   ar
    85    53    55   ar
    86    54    56   ar
    87    55    57   ar
    88    56    58   ar
    89    57    58   ar
