@<TRIPOS>MOLECULE
tmp/4ip8B00.pdb
 113 110 0 0 0
SMALL
GASTEIGER

@<TRIPOS>ATOM
      1  N        -61.6030  -17.9170   18.3820 N.3    18  MET18      -0.1230
      2  CA       -61.9530  -16.9030   19.3660 C.3    18  MET18       0.1702
      3  C        -60.7220  -16.1180   19.8050 C.2    18  MET18       0.2592
      4  O        -60.7630  -14.8900   19.8950 O.2    18  MET18      -0.2718
      5  CB       -62.6510  -17.5350   20.5710 C.3    18  MET18       0.0401
      6  CG       -64.0330  -18.1060   20.2590 C.3    18  MET18       0.0596
      7  SD       -65.2690  -16.8420   19.8850 S.3    18  MET18      -0.1393
      8  CE       -65.3580  -16.0050   21.4650 C.3    18  MET18       0.0692
      9  N        -59.6280  -16.8230   20.0800 N.am   19  TRP19      -0.1976
     10  CA       -58.4020  -16.1580   20.4980 C.3    19  TRP19       0.1640
     11  C        -57.8560  -15.2790   19.3850 C.2    19  TRP19       0.2290
     12  O        -57.2990  -14.2140   19.6440 O.2    19  TRP19      -0.2864
     13  CB       -57.3310  -17.1570   20.9440 C.3    19  TRP19       0.0576
     14  CG       -56.1420  -16.4680   21.5370 C.ar   19  TRP19       0.0006
     15  CD1      -54.9480  -16.2170   20.9250 C.ar   19  TRP19       0.0946
     16  CD2      -56.0450  -15.9060   22.8520 C.ar   19  TRP19       0.0152
     17  NE1      -54.1080  -15.5480   21.7820 N.ar   19  TRP19      -0.2442
     18  CE2      -54.7550  -15.3480   22.9690 C.ar   19  TRP19       0.0810
     19  CE3      -56.9180  -15.8310   23.9390 C.ar   19  TRP19       0.0012
     20  CZ2      -54.3220  -14.7160   24.1350 C.ar   19  TRP19       0.0191
     21  CZ3      -56.4840  -15.2100   25.0950 C.ar   19  TRP19       0.0001
     22  CH2      -55.1980  -14.6570   25.1840 C.ar   19  TRP19       0.0015
     23  N        -59.5770  -13.6530   17.2280 N.3    21  ALA21      -0.1231
     24  CA       -60.3850  -12.4380   17.1960 C.3    21  ALA21       0.1694
     25  C        -59.8960  -11.4500   18.2480 C.2    21  ALA21       0.2592
     26  O        -59.8510  -10.2470   18.0040 O.2    21  ALA21      -0.2718
     27  CB       -61.8500  -12.7620   17.4140 C.3    21  ALA21       0.0304
     28  N        -59.5330  -11.9620   19.4200 N.am   22  TYR22      -0.1976
     29  CA       -58.9710  -11.1230   20.4690 C.3    22  TYR22       0.1639
     30  C        -57.6320  -10.5200   20.0520 C.2    22  TYR22       0.2290
     31  O        -57.3970   -9.3300   20.2390 O.2    22  TYR22      -0.2864
     32  CB       -58.7880  -11.9080   21.7720 C.3    22  TYR22       0.0560
     33  CG       -57.8840  -11.1930   22.7520 C.ar   22  TYR22      -0.0198
     34  CD1      -58.2640   -9.9760   23.3110 C.ar   22  TYR22      -0.0009
     35  CD2      -56.6470  -11.7170   23.1030 C.ar   22  TYR22      -0.0009
     36  CE1      -57.4410   -9.3050   24.2000 C.ar   22  TYR22       0.0417
     37  CE2      -55.8150  -11.0530   23.9920 C.ar   22  TYR22       0.0417
     38  CZ       -56.2170   -9.8510   24.5370 C.ar   22  TYR22       0.1957
     39  OH       -55.3950   -9.1900   25.4210 O.3    22  TYR22      -0.2866
     40  N        -58.1420   -7.9640   17.5120 N.3    25  MET25      -0.1245
     41  CA       -58.6910   -6.7840   18.1660 C.3    25  MET25       0.1570
     42  C        -57.5800   -5.9540   18.7990 C.2    25  MET25       0.2261
     43  O        -57.5350   -4.7310   18.6500 O.2    25  MET25      -0.2867
     44  CB       -59.7200   -7.1770   19.2280 C.3    25  MET25       0.0387
     45  CG       -60.2170   -5.9960   20.0520 C.3    25  MET25       0.0595
     46  SD       -61.8240   -6.2640   20.8290 S.3    25  MET25      -0.1393
     47  CE       -61.3520   -6.9990   22.3920 C.3    25  MET25       0.0692
     48  N        -65.3560   -7.6960   16.1280 N.3    37  PHE37      -0.1227
     49  CA       -64.4610   -8.7860   16.5100 C.3    37  PHE37       0.1736
     50  C        -65.1650   -9.8480   17.3540 C.2    37  PHE37       0.2595
     51  O        -64.8220  -11.0280   17.2820 O.2    37  PHE37      -0.2718
     52  CB       -63.2070   -8.2520   17.2080 C.3    37  PHE37       0.0547
     53  CG       -62.2440   -7.5770   16.2730 C.ar   37  PHE37      -0.0202
     54  CD1      -61.5740   -8.3080   15.3050 C.ar   37  PHE37      -0.0042
     55  CD2      -62.0100   -6.2140   16.3560 C.ar   37  PHE37      -0.0042
     56  CE1      -60.6950   -7.6940   14.4370 C.ar   37  PHE37      -0.0003
     57  CE2      -61.1230   -5.5960   15.4930 C.ar   37  PHE37      -0.0003
     58  CZ       -60.4670   -6.3370   14.5300 C.ar   37  PHE37      -0.0000
     59  N        -66.1500   -9.4310   18.1430 N.am   38  HIS38      -0.1975
     60  CA       -66.9430  -10.3760   18.9190 C.3    38  HIS38       0.1656
     61  C        -67.7640  -11.2540   17.9850 C.2    38  HIS38       0.2291
     62  O        -67.7670  -12.4790   18.1090 O.2    38  HIS38      -0.2864
     63  CB       -67.8570   -9.6420   19.8960 C.3    38  HIS38       0.0771
     64  CG       -67.1320   -9.0240   21.0490 C.ar   38  HIS38       0.0820
     65  ND1      -67.5630   -7.8680   21.6650 N.ar   38  HIS38      -0.2267
     66  CD2      -66.0050   -9.3970   21.7000 C.ar   38  HIS38       0.1154
     67  CE1      -66.7340   -7.5570   22.6460 C.ar   38  HIS38       0.1986
     68  NE2      -65.7790   -8.4730   22.6870 N.ar   38  HIS38      -0.2212
     69  N        -65.3030  -13.5170   15.7860 N.3    41  GLY41      -0.1225
     70  CA       -64.7900  -14.6270   16.5640 C.3    41  GLY41       0.1811
     71  C        -65.8120  -15.7370   16.7090 C.2    41  GLY41       0.2280
     72  O        -65.5050  -16.9050   16.4830 O.2    41  GLY41      -0.2866
     73  N        -66.1500  -19.4010   25.7470 N.3    59  ILE59      -0.1245
     74  CA       -65.1460  -18.3500   25.6990 C.3    59  ILE59       0.1561
     75  C        -65.7670  -16.9550   25.7270 C.2    59  ILE59       0.2260
     76  O        -65.1970  -16.0350   26.3080 O.2    59  ILE59      -0.2867
     77  CB       -64.2190  -18.5280   24.4840 C.3    59  ILE59       0.0252
     78  CG1      -63.4250  -19.8290   24.6400 C.3    59  ILE59       0.0019
     79  CG2      -63.2850  -17.3410   24.3440 C.3    59  ILE59       0.0019
     80  CD1      -62.5740  -20.1820   23.4520 C.3    59  ILE59       0.0001
     81  N        -66.5500  -16.4990   29.2650 N.3    62  ALA62      -0.1231
     82  CA       -65.3070  -16.2150   29.9720 C.3    62  ALA62       0.1694
     83  C        -64.8360  -14.7810   29.7490 C.2    62  ALA62       0.2591
     84  O        -64.4150  -14.1020   30.6900 O.2    62  ALA62      -0.2718
     85  CB       -64.2270  -17.1940   29.5500 C.3    62  ALA62       0.0304
     86  N        -64.9030  -14.3270   28.5010 N.am   63  ARG63      -0.1980
     87  CA       -64.4880  -12.9720   28.1610 C.3    63  ARG63       0.1597
     88  C        -65.3480  -11.9390   28.8790 C.2    63  ARG63       0.2287
     89  O        -64.8370  -10.9340   29.3710 O.2    63  ARG63      -0.2864
     90  CB       -64.5560  -12.7470   26.6500 C.3    63  ARG63       0.0334
     91  CG       -64.0190  -11.3940   26.2120 C.3    63  ARG63       0.0492
     92  CD       -65.0890  -10.5700   25.5130 C.3    63  ARG63       0.2205
     93  NE       -65.7340  -11.3220   24.4480 N.pl3  63  ARG63      -0.0865
     94  CZ       -67.0480  -11.4830   24.3370 C.cat  63  ARG63       0.5346
     95  NH1      -67.8640  -10.9310   25.2240 N.pl3  63  ARG63       0.1354
     96  NH2      -67.5440  -12.1940   23.3320 N.pl3  63  ARG63       0.1354
     97  N        -64.1630  -11.7220   32.4330 N.3    66  ILE66      -0.1231
     98  CA       -62.9050  -10.9860   32.5200 C.3    66  ILE66       0.1692
     99  C        -63.1340   -9.4840   32.4250 C.2    66  ILE66       0.2591
    100  O        -62.6990   -8.7280   33.2900 O.2    66  ILE66      -0.2718
    101  CB       -61.9360  -11.3910   31.3900 C.3    66  ILE66       0.0266
    102  CG1      -61.6590  -12.8960   31.4350 C.3    66  ILE66       0.0019
    103  CG2      -60.6490  -10.5860   31.4740 C.3    66  ILE66       0.0020
    104  CD1      -61.2000  -13.3850   32.7800 C.3    66  ILE66       0.0001
    105  N        -63.8170   -9.0600   31.3660 N.am   67  GLN67      -0.1979
    106  CA       -64.0750   -7.6450   31.1250 C.3    67  GLN67       0.1601
    107  C        -64.7210   -6.9680   32.3180 C.2    67  GLN67       0.2287
    108  O        -64.3770   -5.8380   32.6660 O.2    67  GLN67      -0.2864
    109  CB       -64.9730   -7.4640   29.9030 C.3    67  GLN67       0.0394
    110  CG       -64.2290   -7.4260   28.5840 C.3    67  GLN67       0.0908
    111  CD       -65.1580   -7.5400   27.3940 C.2    67  GLN67       0.2608
    112  OE1      -66.0020   -8.4350   27.3340 O.2    67  GLN67      -0.2717
    113  NE2      -65.0200   -6.6220   26.4470 N.am   67  GLN67      -0.0878
@<TRIPOS>BOND
     1    56    58   ar
     2    56    54   ar
     3    58    57   ar
     4    54    53   ar
     5    57    55   ar
     6    69    70    1
     7    48    49    1
     8    53    55   ar
     9    53    52    1
    10    72    71    2
    11    49    52    1
    12    49    50    1
    13    70    71    1
    14    24    23    1
    15    24    27    1
    16    24    25    1
    17    51    50    2
    18    50    59   am
    19    40    41    1
    20    61    62    2
    21    61    60    1
    22    26    25    2
    23    59    60    1
    24    41    42    1
    25    41    44    1
    26    25    28   am
    27     1     2    1
    28    43    42    2
    29    60    63    1
    30    44    45    1
    31     2     3    1
    32     2     5    1
    33    11    12    2
    34    11    10    1
    35    28    29    1
    36     3     4    2
    37     3     9   am
    38     7     6    1
    39     7     8    1
    40    63    64    1
    41    45    46    1
    42    30    31    2
    43    30    29    1
    44     9    10    1
    45     6     5    1
    46    29    32    1
    47    10    13    1
    48    46    47    1
    49    15    14   ar
    50    15    17   ar
    51    13    14    1
    52    64    65   ar
    53    64    66   ar
    54    14    16   ar
    55    65    67   ar
    56    66    68   ar
    57    32    33    1
    58    17    18   ar
    59    67    68   ar
    60    33    35   ar
    61    33    34   ar
    62    16    18   ar
    63    16    19   ar
    64    18    20   ar
    65    35    37   ar
    66    34    36   ar
    67    96    94    1
    68    80    78    1
    69    19    21   ar
    70    37    38   ar
    71    20    22   ar
    72    36    38   ar
    73    94    93    2
    74    94    95    1
    75    79    77    1
    76    93    92    1
    77    77    78    1
    78    77    74    1
    79    38    39    1
    80    21    22   ar
    81    92    91    1
    82    74    75    1
    83    74    73    1
    84    75    76    2
    85    91    90    1
    86   113   111   am
    87    90    87    1
    88   112   111    2
    89   111   110    1
    90    87    86    1
    91    87    88    1
    92    86    83   am
    93   110   109    1
    94    88    89    2
    95    81    82    1
    96    85    82    1
    97    83    82    1
    98    83    84    2
    99   109   106    1
   100   106   105    1
   101   106   107    1
   102   105    99   am
   103   101   102    1
   104   101   103    1
   105   101    98    1
   106   102   104    1
   107   107   108    2
   108    99    98    1
   109    99   100    2
   110    97    98    1
