@<TRIPOS>MOLECULE
tmp/4ipfA00.pdb
 143 139 0 0 0
SMALL
GASTEIGER

@<TRIPOS>ATOM
      1  N          8.6440    9.7280   27.9460 N.3    30  LEU30      -0.1231
      2  CA         9.5330    9.9290   29.0790 C.3    30  LEU30       0.1693
      3  C          9.9270    8.6180   29.7460 C.2    30  LEU30       0.2592
      4  O         11.0880    8.4310   30.1090 O.2    30  LEU30      -0.2718
      5  CB         8.8700   10.8750   30.0810 C.3    30  LEU30       0.0284
      6  CG         8.7270   12.2950   29.5230 C.3    30  LEU30       0.0019
      7  CD1        7.6730   13.0630   30.2960 C.3    30  LEU30       0.0001
      8  CD2       10.0760   12.9990   29.5870 C.3    30  LEU30       0.0001
      9  N          8.9680    7.7080   29.9040 N.am   31  TYR31      -0.1976
     10  CA         9.2610    6.4160   30.5170 C.3    31  TYR31       0.1639
     11  C         10.3310    5.6900   29.7090 C.2    31  TYR31       0.2290
     12  O         11.3110    5.1860   30.2620 O.2    31  TYR31      -0.2864
     13  CB         8.0070    5.5380   30.5720 C.3    31  TYR31       0.0560
     14  CG         8.3190    4.1120   30.9670 C.ar   31  TYR31      -0.0198
     15  CD1        8.6370    3.7860   32.2790 C.ar   31  TYR31      -0.0009
     16  CD2        8.3730    3.1060   30.0080 C.ar   31  TYR31      -0.0009
     17  CE1        9.0080    2.4950   32.6270 C.ar   31  TYR31       0.0417
     18  CE2        8.7440    1.8140   30.3450 C.ar   31  TYR31       0.0417
     19  CZ         9.0620    1.5170   31.6520 C.ar   31  TYR31       0.1957
     20  OH         9.4590    0.2420   31.9830 O.3    31  TYR31      -0.2866
     21  N         12.4840    6.9710   27.5940 N.3    33  LEU33      -0.1231
     22  CA        13.7630    7.6730   27.6010 C.3    33  LEU33       0.1693
     23  C         14.4850    7.3310   28.9000 C.2    33  LEU33       0.2593
     24  O         15.7040    7.1580   28.9190 O.2    33  LEU33      -0.2718
     25  CB        13.5610    9.1900   27.4840 C.3    33  LEU33       0.0284
     26  CG        14.8460   10.0130   27.3420 C.3    33  LEU33       0.0019
     27  CD1       15.6230    9.5510   26.1140 C.3    33  LEU33       0.0001
     28  CD2       14.5000   11.4930   27.2340 C.3    33  LEU33       0.0001
     29  N         13.7210    7.2250   29.9850 N.am   34  GLY34      -0.1942
     30  CA        14.3050    6.8680   31.2670 C.3    34  GLY34       0.2014
     31  C         14.9130    5.4810   31.1740 C.2    34  GLY34       0.2638
     32  O         16.0110    5.2390   31.6700 O.2    34  GLY34      -0.2714
     33  N         14.1980    4.5600   30.5340 N.am   35  GLN35      -0.1977
     34  CA        14.7020    3.2000   30.3730 C.3    35  GLN35       0.1601
     35  C         15.9920    3.1960   29.5570 C.2    35  GLN35       0.2287
     36  O         16.9090    2.4220   29.8370 O.2    35  GLN35      -0.2864
     37  CB        13.6490    2.3230   29.6900 C.3    35  GLN35       0.0394
     38  CG        12.4210    2.0810   30.5440 C.3    35  GLN35       0.0908
     39  CD        12.7370    1.2300   31.7570 C.2    35  GLN35       0.2608
     40  OE1       13.1180    0.0650   31.6250 O.2    35  GLN35      -0.2717
     41  NE2       12.5900    1.8070   32.9450 N.am   35  GLN35      -0.0878
     42  N         18.2000    5.6100   29.3790 N.3    37  ILE37      -0.1231
     43  CA        19.2370    6.1340   30.2570 C.3    37  ILE37       0.1692
     44  C         19.7610    5.0630   31.2150 C.2    37  ILE37       0.2591
     45  O         20.9690    4.9630   31.4390 O.2    37  ILE37      -0.2718
     46  CB        18.6940    7.3570   31.0360 C.3    37  ILE37       0.0266
     47  CG1       18.4410    8.5050   30.0530 C.3    37  ILE37       0.0019
     48  CG2       19.6740    7.7800   32.1190 C.3    37  ILE37       0.0020
     49  CD1       17.7240    9.6910   30.6500 C.3    37  ILE37       0.0001
     50  N         18.8640    4.2510   31.7680 N.am   38  MET38      -0.1979
     51  CA        19.2810    3.1870   32.6770 C.3    38  MET38       0.1605
     52  C         20.0540    2.1210   31.9000 C.2    38  MET38       0.2287
     53  O         21.0910    1.6330   32.3560 O.2    38  MET38      -0.2864
     54  CB        18.0650    2.5340   33.3540 C.3    38  MET38       0.0413
     55  CG        17.2390    3.4510   34.2500 C.3    38  MET38       0.0598
     56  SD        18.1930    4.3010   35.5220 S.3    38  MET38      -0.1393
     57  CE        18.6240    2.9440   36.6040 C.3    38  MET38       0.0692
     58  N         23.4380    7.6800   33.7710 N.3    43  TYR43      -0.1241
     59  CA        23.3380    8.4150   35.0250 C.3    43  TYR43       0.1605
     60  C         24.6700    8.4140   35.7800 C.2    43  TYR43       0.2264
     61  O         25.4830    7.4970   35.6480 O.2    43  TYR43      -0.2867
     62  CB        22.2130    7.8360   35.8960 C.3    43  TYR43       0.0534
     63  CG        22.4110    6.3950   36.3040 C.ar   43  TYR43      -0.0201
     64  CD1       23.1980    6.0640   37.3960 C.ar   43  TYR43      -0.0009
     65  CD2       21.8180    5.3630   35.5860 C.ar   43  TYR43      -0.0009
     66  CE1       23.3900    4.7430   37.7650 C.ar   43  TYR43       0.0417
     67  CE2       22.0070    4.0420   35.9470 C.ar   43  TYR43       0.0417
     68  CZ        22.7930    3.7390   37.0360 C.ar   43  TYR43       0.1957
     69  OH        22.9920    2.4270   37.3950 O.3    43  TYR43      -0.2866
     70  N         23.0480   10.1290   41.2160 N.3    48  GLN48      -0.1231
     71  CA        22.2220    9.4110   40.2610 C.3    48  GLN48       0.1698
     72  C         21.1160   10.1540   39.5220 C.2    48  GLN48       0.2592
     73  O         20.5580    9.6160   38.5650 O.2    48  GLN48      -0.2718
     74  CB        21.6610    8.1620   40.9430 C.3    48  GLN48       0.0381
     75  CG        22.7590    7.2720   41.5150 C.3    48  GLN48       0.0905
     76  CD        22.2200    6.0460   42.2180 C.2    48  GLN48       0.2608
     77  OE1       21.5990    5.1860   41.5980 O.2    48  GLN48      -0.2717
     78  NE2       22.4540    5.9620   43.5240 N.am   48  GLN48      -0.0878
     79  N         20.7880   11.3720   39.9440 N.am   49  HIS49      -0.1976
     80  CA        19.7510   12.1320   39.2500 C.3    49  HIS49       0.1656
     81  C         20.3620   12.8550   38.0520 C.2    49  HIS49       0.2291
     82  O         19.6500   13.3410   37.1710 O.2    49  HIS49      -0.2864
     83  CB        19.0870   13.1360   40.2060 C.3    49  HIS49       0.0771
     84  CG        20.0250   14.1610   40.7640 C.ar   49  HIS49       0.0820
     85  ND1       20.2960   15.3500   40.1230 N.ar   49  HIS49      -0.2267
     86  CD2       20.7590   14.1700   41.9020 C.ar   49  HIS49       0.1154
     87  CE1       21.1550   16.0500   40.8420 C.ar   49  HIS49       0.1986
     88  NE2       21.4520   15.3570   41.9260 N.ar   49  HIS49      -0.2212
     89  N         22.2680   13.0630   34.5490 N.3    51  VAL51      -0.1245
     90  CA        22.4000   12.2490   33.3430 C.3    51  VAL51       0.1561
     91  C         23.5100   12.8120   32.4540 C.2    51  VAL51       0.2260
     92  O         23.4640   13.9820   32.0670 O.2    51  VAL51      -0.2867
     93  CB        21.0770   12.2350   32.5350 C.3    51  VAL51       0.0252
     94  CG1       21.2360   11.3850   31.2770 C.3    51  VAL51       0.0019
     95  CG2       19.9370   11.7030   33.4040 C.3    51  VAL51       0.0019
     96  N         22.1130   16.9390   32.2740 N.3    67  PHE67      -0.1241
     97  CA        20.8380   17.4420   32.7560 C.3    67  PHE67       0.1605
     98  C         20.4230   16.5600   33.9220 C.2    67  PHE67       0.2264
     99  O         20.8920   15.4250   34.0530 O.2    67  PHE67      -0.2867
    100  CB        19.7730   17.4340   31.6400 C.3    67  PHE67       0.0534
    101  CG        19.2880   16.0640   31.2450 C.ar   67  PHE67      -0.0203
    102  CD1       18.2460   15.4550   31.9310 C.ar   67  PHE67      -0.0042
    103  CD2       19.8600   15.3930   30.1750 C.ar   67  PHE67      -0.0042
    104  CE1       17.7810   14.2050   31.5560 C.ar   67  PHE67      -0.0003
    105  CE2       19.3990   14.1390   29.7940 C.ar   67  PHE67      -0.0003
    106  CZ        18.3580   13.5460   30.4860 C.ar   67  PHE67      -0.0000
    107  N         17.3640   14.6600   36.1630 N.3    69  VAL69      -0.1245
    108  CA        16.0270   14.1240   35.9480 C.3    69  VAL69       0.1561
    109  C         15.0020   14.9660   36.7140 C.2    69  VAL69       0.2260
    110  O         13.7990   14.7980   36.5350 O.2    69  VAL69      -0.2867
    111  CB        15.9130   12.6370   36.3880 C.3    69  VAL69       0.0252
    112  CG1       16.8750   11.7740   35.5690 C.3    69  VAL69       0.0019
    113  CG2       16.1870   12.4990   37.8750 C.3    69  VAL69       0.0019
    114  N         12.2530   18.7880   34.9990 N.3    72  HIS72      -0.1241
    115  CA        11.1570   18.3960   34.1210 C.3    72  HIS72       0.1621
    116  C         10.7970   19.3800   33.0140 C.2    72  HIS72       0.2264
    117  O         10.5030   18.9620   31.8960 O.2    72  HIS72      -0.2867
    118  CB         9.9160   18.0530   34.9500 C.3    72  HIS72       0.0745
    119  CG        10.0670   16.8020   35.7610 C.ar   72  HIS72       0.0817
    120  ND1        8.9910   16.0500   36.1810 N.ar   72  HIS72      -0.2268
    121  CD2       11.1710   16.1680   36.2230 C.ar   72  HIS72       0.1154
    122  CE1        9.4260   15.0050   36.8630 C.ar   72  HIS72       0.1986
    123  NE2       10.7450   15.0540   36.9030 N.ar   72  HIS72      -0.2212
    124  N         13.5120   19.0680   30.3660 N.3    75  ILE75      -0.1231
    125  CA        13.3930   17.8050   29.6460 C.3    75  ILE75       0.1692
    126  C         12.2180   17.8450   28.6710 C.2    75  ILE75       0.2592
    127  O         12.3150   17.3410   27.5530 O.2    75  ILE75      -0.2718
    128  CB        13.2330   16.6300   30.6290 C.3    75  ILE75       0.0266
    129  CG1       14.5260   16.4750   31.4430 C.3    75  ILE75       0.0019
    130  CG2       12.9140   15.3480   29.8670 C.3    75  ILE75       0.0020
    131  CD1       14.4410   15.4600   32.5790 C.3    75  ILE75       0.0001
    132  N         11.1080   18.4440   29.0890 N.am   76  TYR76      -0.1976
    133  CA         9.9550   18.5570   28.2060 C.3    76  TYR76       0.1639
    134  C         10.3170   19.4360   27.0120 C.2    76  TYR76       0.2290
    135  O          9.8730   19.1920   25.8920 O.2    76  TYR76      -0.2864
    136  CB         8.7590   19.1650   28.9470 C.3    76  TYR76       0.0560
    137  CG         7.7580   18.1460   29.4360 C.ar   76  TYR76      -0.0198
    138  CD1        8.0140   17.3730   30.5620 C.ar   76  TYR76      -0.0009
    139  CD2        6.5610   17.9440   28.7580 C.ar   76  TYR76      -0.0009
    140  CE1        7.1050   16.4260   31.0000 C.ar   76  TYR76       0.0417
    141  CE2        5.6460   16.9980   29.1880 C.ar   76  TYR76       0.0417
    142  CZ         5.9240   16.2440   30.3070 C.ar   76  TYR76       0.1957
    143  OH         5.0180   15.3020   30.7330 O.3    76  TYR76      -0.2866
@<TRIPOS>BOND
     1   135   134    2
     2    27    26    1
     3   134   133    1
     4    28    26    1
     5    26    25    1
     6    25    22    1
     7   127   126    2
     8    21    22    1
     9    22    23    1
    10     1     2    1
    11   133   136    1
    12   133   132    1
    13   126   132   am
    14   126   125    1
    15   139   141   ar
    16   139   137   ar
    17    23    24    2
    18    23    29   am
    19   136   137    1
    20     2     3    1
    21     2     5    1
    22   141   142   ar
    23    42    43    1
    24   137   138   ar
    25     6     8    1
    26     6     5    1
    27     6     7    1
    28    35    36    2
    29    35    34    1
    30   125   124    1
    31   125   128    1
    32    37    34    1
    33    37    38    1
    34    11    12    2
    35    11    10    1
    36     3     9   am
    37     3     4    2
    38   105   103   ar
    39   105   106   ar
    40   130   128    1
    41     9    10    1
    42    29    30    1
    43    16    18   ar
    44    16    14   ar
    45    47    49    1
    46    47    46    1
    47   103   101   ar
    48    43    46    1
    49    43    44    1
    50   142   143    1
    51   142   140   ar
    52    18    19   ar
    53    34    33    1
    54   106   104   ar
    55    10    13    1
    56    33    31   am
    57    38    39    1
    58   138   140   ar
    59    13    14    1
    60   128   129    1
    61    14    15   ar
    62    46    48    1
    63    31    30    1
    64    31    32    2
    65    44    45    2
    66    44    50   am
    67   101   100    1
    68   101   102   ar
    69    94    93    1
    70   129   131    1
    71   104   102   ar
    72    40    39    2
    73   100    97    1
    74    19    20    1
    75    19    17   ar
    76    39    41   am
    77    50    51    1
    78   117   116    2
    79    52    53    2
    80    52    51    1
    81    92    91    2
    82    96    97    1
    83    15    17   ar
    84    91    90    1
    85    93    90    1
    86    93    95    1
    87    51    54    1
    88    97    98    1
    89   116   115    1
    90    90    89    1
    91    54    55    1
    92    58    59    1
    93    98    99    2
    94   115   118    1
    95   115   114    1
    96    55    56    1
    97   118   119    1
    98    59    60    1
    99    59    62    1
   100    56    57    1
   101   112   111    1
   102    65    67   ar
   103    65    63   ar
   104    61    60    2
   105   119   120   ar
   106   119   121   ar
   107    62    63    1
   108    67    68   ar
   109   108   107    1
   110   108   111    1
   111   108   109    1
   112   120   122   ar
   113   121   123   ar
   114    63    64   ar
   115   111   113    1
   116   110   109    2
   117   122   123   ar
   118    68    69    1
   119    68    66   ar
   120    82    81    2
   121    64    66   ar
   122    81    80    1
   123    73    72    2
   124    80    79    1
   125    80    83    1
   126    72    79   am
   127    72    71    1
   128    85    84   ar
   129    85    87   ar
   130    83    84    1
   131    71    74    1
   132    71    70    1
   133    84    86   ar
   134    87    88   ar
   135    74    75    1
   136    75    76    1
   137    77    76    2
   138    86    88   ar
   139    76    78   am
