@<TRIPOS>MOLECULE
tmp/4iphA00.pdb
 86 76 0 0 0
SMALL
GASTEIGER

@<TRIPOS>ATOM
      1  N          4.9010   19.5320   19.6030 N.3    36  ILE36      -0.1245
      2  CA         4.5880   19.2520   20.9930 C.3    36  ILE36       0.1561
      3  C          5.2340   20.3090   21.8790 C.2    36  ILE36       0.2260
      4  O          6.3010   20.8470   21.5560 O.2    36  ILE36      -0.2867
      5  CB         5.0600   17.8680   21.4250 C.3    36  ILE36       0.0252
      6  CG1        6.5770   17.7890   21.3380 C.3    36  ILE36       0.0019
      7  CG2        4.4100   16.7780   20.5730 C.3    36  ILE36       0.0019
      8  CD1        7.0790   16.4130   21.4890 C.3    36  ILE36       0.0001
      9  N          9.6800   20.4400   18.9160 N.3    44  ARG44      -0.1245
     10  CA         9.7380   19.0140   18.5760 C.3    44  ARG44       0.1563
     11  C          8.4680   18.6080   17.8260 C.2    44  ARG44       0.2260
     12  O          7.3790   19.1070   18.1230 O.2    44  ARG44      -0.2867
     13  CB         9.8600   18.1450   19.8290 C.3    44  ARG44       0.0307
     14  CG        10.8780   18.6200   20.8420 C.3    44  ARG44       0.0489
     15  CD        12.2560   18.1400   20.5150 C.3    44  ARG44       0.2205
     16  NE        12.2210   16.8850   19.7690 N.pl3  44  ARG44      -0.0865
     17  CZ        13.1550   15.9420   19.8530 C.cat  44  ARG44       0.5346
     18  NH1       14.1900   16.1050   20.6700 N.pl3  44  ARG44       0.1354
     19  NH2       13.0490   14.8310   19.1310 N.pl3  44  ARG44       0.1354
     20  N          9.0070   10.3460   16.7440 N.3    60  MET60      -0.1245
     21  CA         9.5260   11.6650   17.0640 C.3    60  MET60       0.1570
     22  C         10.6110   12.0240   16.0590 C.2    60  MET60       0.2261
     23  O         11.5260   11.2470   15.8330 O.2    60  MET60      -0.2867
     24  CB        10.1450   11.6770   18.4740 C.3    60  MET60       0.0387
     25  CG         9.1910   11.3510   19.6230 C.3    60  MET60       0.0595
     26  SD         7.8270   12.5240   19.8020 S.3    60  MET60      -0.1393
     27  CE         8.6380   14.0870   19.4760 C.3    60  MET60       0.0692
     28  N         13.9530   13.8300   14.9480 N.3    62  ALA62      -0.1231
     29  CA        15.1600   14.4210   15.5050 C.3    62  ALA62       0.1694
     30  C         15.1490   15.8940   15.1310 C.2    62  ALA62       0.2592
     31  O         14.7700   16.2410   14.0190 O.2    62  ALA62      -0.2718
     32  CB        16.3960   13.7510   14.9390 C.3    62  ALA62       0.0304
     33  N         15.5610   16.7550   16.0510 N.am   63  THR63      -0.1953
     34  CA        15.4510   18.1860   15.8360 C.3    63  THR63       0.1897
     35  C         16.2670   18.6530   14.6330 C.2    63  THR63       0.2313
     36  O         15.9500   19.6620   14.0190 O.2    63  THR63      -0.2863
     37  CB        15.8630   18.9760   17.0910 C.3    63  THR63       0.1794
     38  OG1       17.2430   18.7340   17.3730 O.3    63  THR63      -0.2208
     39  CG2       15.0330   18.5300   18.2770 C.3    63  THR63       0.0378
     40  N         16.0590    5.0860   15.9960 N.3    86  ILE86      -0.1245
     41  CA        16.3220    4.3510   17.2290 C.3    86  ILE86       0.1561
     42  C         15.0320    4.2080   18.0080 C.2    86  ILE86       0.2260
     43  O         14.1440    5.0530   17.9110 O.2    86  ILE86      -0.2867
     44  CB        17.3640    5.0470   18.1090 C.3    86  ILE86       0.0252
     45  CG1       16.8440    6.3950   18.5730 C.3    86  ILE86       0.0019
     46  CG2       18.6890    5.2160   17.3700 C.3    86  ILE86       0.0019
     47  CD1       17.3830    6.7730   19.9030 C.3    86  ILE86       0.0001
     48  N         13.3480    4.0770   21.7020 N.3    88  ASN88      -0.1240
     49  CA        13.6220    4.3400   23.1170 C.3    88  ASN88       0.1653
     50  C         12.4330    3.9900   24.0070 C.2    88  ASN88       0.2266
     51  O         11.2850    4.2540   23.6540 O.2    88  ASN88      -0.2867
     52  CB        14.0490    5.7820   23.3660 C.3    88  ASN88       0.1155
     53  CG        14.7150    5.9500   24.7180 C.2    88  ASN88       0.2627
     54  OD1       15.5970    5.1760   25.0710 O.2    88  ASN88      -0.2716
     55  ND2       14.2800    6.9340   25.4890 N.am   88  ASN88      -0.0877
     56  N         10.4130    4.4360   27.5820 N.3    90  LEU90      -0.1245
     57  CA        10.2250    5.3500   28.7190 C.3    90  LEU90       0.1561
     58  C         10.0230    4.5840   30.0200 C.2    90  LEU90       0.2260
     59  O          9.8140    3.3780   29.9910 O.2    90  LEU90      -0.2867
     60  CB         9.0100    6.2510   28.4770 C.3    90  LEU90       0.0270
     61  CG         8.9730    6.9180   27.0920 C.3    90  LEU90       0.0019
     62  CD1        7.7900    7.8500   26.9760 C.3    90  LEU90       0.0001
     63  CD2       10.2790    7.6360   26.7910 C.3    90  LEU90       0.0001
     64  N          9.0930    4.9060   22.0450 N.3    96  VAL96      -0.1245
     65  CA         9.0830    5.9430   21.0320 C.3    96  VAL96       0.1561
     66  C         10.1420    5.6560   19.9750 C.2    96  VAL96       0.2260
     67  O         11.2290    5.1040   20.2530 O.2    96  VAL96      -0.2867
     68  CB         9.2990    7.3360   21.6450 C.3    96  VAL96       0.0252
     69  CG1        8.3320    7.5560   22.7910 C.3    96  VAL96       0.0019
     70  CG2       10.7120    7.4910   22.1360 C.3    96  VAL96       0.0019
     71  N         12.5580    7.3350   17.3160 N.3    98  ILE98      -0.1245
     72  CA        13.1320    8.6070   16.9260 C.3    98  ILE98       0.1561
     73  C         13.7020    8.4980   15.5200 C.2    98  ILE98       0.2260
     74  O         14.6140    7.7070   15.2710 O.2    98  ILE98      -0.2867
     75  CB        14.2310    9.0910   17.9090 C.3    98  ILE98       0.0252
     76  CG1       13.6460    9.3040   19.3090 C.3    98  ILE98       0.0019
     77  CG2       14.8660   10.3810   17.4040 C.3    98  ILE98       0.0019
     78  CD1       13.7730    8.1030   20.2080 C.3    98  ILE98       0.0001
     79  N         15.9780    9.6460   12.6790 N.3   100  MET100     -0.1245
     80  CA        17.2690   10.3530   12.6370 C.3   100  MET100      0.1570
     81  C         17.6480   10.8260   11.2400 C.2   100  MET100      0.2261
     82  O         18.1290   11.9540   11.0620 O.2   100  MET100     -0.2867
     83  CB        18.3800    9.4580   13.1800 C.3   100  MET100      0.0387
     84  CG        18.1700    9.0390   14.6120 C.3   100  MET100      0.0595
     85  SD        18.1640   10.4580   15.7220 S.3   100  MET100     -0.1393
     86  CE        19.8430   11.0600   15.5200 C.3   100  MET100      0.0692
@<TRIPOS>BOND
     1    82    81    2
     2    81    80    1
     3    80    79    1
     4    80    83    1
     5    83    84    1
     6    36    35    2
     7    31    30    2
     8    84    85    1
     9    35    34    1
    10    32    29    1
    11    28    29    1
    12    30    29    1
    13    30    33   am
    14    74    73    2
    15    86    85    1
    16    73    72    1
    17    23    22    2
    18    34    33    1
    19    34    37    1
    20    40    41    1
    21    22    21    1
    22    20    21    1
    23    72    71    1
    24    72    75    1
    25    21    24    1
    26    37    38    1
    27    37    39    1
    28    41    42    1
    29    41    44    1
    30    46    44    1
    31    77    75    1
    32    11    12    2
    33    11    10    1
    34    75    76    1
    35    43    42    2
    36    44    45    1
    37    24    25    1
    38    45    47    1
    39    10     9    1
    40    10    13    1
    41    19    17    1
    42    76    78    1
    43    27    26    1
    44     1     2    1
    45    25    26    1
    46    16    17    2
    47    16    15    1
    48    13    14    1
    49    17    18    1
    50    66    67    2
    51    66    65    1
    52    15    14    1
    53     7     5    1
    54     2     5    1
    55     2     3    1
    56    65    68    1
    57    65    64    1
    58     6     5    1
    59     6     8    1
    60     4     3    2
    61    68    70    1
    62    68    69    1
    63    48    49    1
    64    49    52    1
    65    49    50    1
    66    52    53    1
    67    51    50    2
    68    53    54    2
    69    53    55   am
    70    63    61    1
    71    62    61    1
    72    61    60    1
    73    56    57    1
    74    60    57    1
    75    57    58    1
    76    59    58    2
