@<TRIPOS>MOLECULE
tmp/4ipjA00.pdb
 133 122 0 0 0
SMALL
GASTEIGER

@<TRIPOS>ATOM
      1  N        100.2530  -14.4580   46.9500 N.3    27  GLU27      -0.1245
      2  CA       100.4520  -15.8770   47.1590 C.3    27  GLU27       0.1567
      3  C        100.2640  -16.6120   45.8690 C.2    27  GLU27       0.2260
      4  O         99.1310  -16.8240   45.4130 O.2    27  GLU27      -0.2867
      5  CB        99.5260  -16.4630   48.1920 C.3    27  GLU27       0.0388
      6  CG        99.8710  -17.9610   48.3680 C.3    27  GLU27       0.1160
      7  CD        99.0230  -18.6120   49.3790 C.2    27  GLU27       0.3649
      8  OE1       98.1000  -17.9260   49.8690 O.co2  27  GLU27      -0.2457
      9  OE2       99.2360  -19.8020   49.6620 O.co2  27  GLU27      -0.2457
     10  N        104.7390  -15.1380   47.7910 N.3    55  LYS55      -0.1245
     11  CA       104.6880  -16.2530   48.7090 C.3    55  LYS55       0.1561
     12  C        104.3670  -17.5720   48.0290 C.2    55  LYS55       0.2260
     13  O        103.4420  -17.6840   47.2450 O.2    55  LYS55      -0.2867
     14  CB       103.6580  -16.0230   49.8070 C.3    55  LYS55       0.0271
     15  CG       103.7620  -17.0300   50.9100 C.3    55  LYS55       0.0035
     16  CD       102.6730  -16.8790   51.9330 C.3    55  LYS55       0.0206
     17  CE       101.3970  -17.5550   51.5170 C.3    55  LYS55       0.1093
     18  NZ       101.5710  -19.0370   51.4390 N.3    55  LYS55      -0.1314
     19  N        103.9610  -22.0560   48.5720 N.3    57  GLN57      -0.1245
     20  CA       103.6670  -23.1310   49.5060 C.3    57  GLN57       0.1566
     21  C        104.6600  -24.2600   49.2620 C.2    57  GLN57       0.2260
     22  O        104.9650  -24.6060   48.1080 O.2    57  GLN57      -0.2867
     23  CB       102.2590  -23.6660   49.3160 C.3    57  GLN57       0.0367
     24  CG       101.1420  -22.6590   49.6170 C.3    57  GLN57       0.0905
     25  CD        99.7640  -23.2250   49.3610 C.2    57  GLN57       0.2608
     26  OE1       99.5820  -24.4290   49.2640 O.2    57  GLN57      -0.2717
     27  NE2       98.7900  -22.3480   49.2240 N.am   57  GLN57      -0.0878
     28  N        105.0680  -20.8640   52.9410 N.3   112  THR112     -0.1218
     29  CA       104.3270  -21.5430   53.9840 C.3   112  THR112      0.1862
     30  C        104.7240  -23.0220   53.9950 C.2   112  THR112      0.2287
     31  O        104.4530  -23.7210   53.0250 O.2   112  THR112     -0.2866
     32  CB       102.7960  -21.4930   53.7130 C.3   112  THR112      0.1770
     33  OG1      102.3740  -20.1370   53.6940 O.3   112  THR112     -0.2211
     34  CG2      102.0290  -22.1830   54.7820 C.3   112  THR112      0.0375
     35  N        104.0880  -26.7470   55.0960 N.3   114  PHE114     -0.1241
     36  CA       102.9390  -27.5410   55.4900 C.3   114  PHE114      0.1605
     37  C        103.3550  -28.7690   56.2640 C.2   114  PHE114      0.2264
     38  O        102.5260  -29.5950   56.6240 O.2   114  PHE114     -0.2867
     39  CB       102.1480  -27.9120   54.2540 C.3   114  PHE114      0.0534
     40  CG       101.2700  -26.8060   53.7850 C.ar  114  PHE114     -0.0203
     41  CD1      101.7570  -25.8180   52.9790 C.ar  114  PHE114     -0.0042
     42  CD2       99.9660  -26.7390   54.1920 C.ar  114  PHE114     -0.0042
     43  CE1      100.9570  -24.7830   52.5800 C.ar  114  PHE114     -0.0003
     44  CE2       99.1530  -25.6900   53.7810 C.ar  114  PHE114     -0.0003
     45  CZ        99.6620  -24.7180   52.9630 C.ar  114  PHE114     -0.0000
     46  N        105.4200  -18.0120   56.7980 N.3   131  LYS131     -0.1245
     47  CA       103.9720  -17.9720   56.9170 C.3   131  LYS131      0.1561
     48  C        103.4750  -19.3330   57.4210 C.2   131  LYS131      0.2260
     49  O        103.9200  -20.3780   56.9440 O.2   131  LYS131     -0.2867
     50  CB       103.3770  -17.6680   55.5400 C.3   131  LYS131      0.0271
     51  CG       101.8400  -17.6580   55.4880 C.3   131  LYS131      0.0035
     52  CD       101.2650  -16.4230   56.0830 C.3   131  LYS131      0.0206
     53  CE        99.8350  -16.6790   56.5280 C.3   131  LYS131      0.1093
     54  NZ        98.9410  -17.1820   55.4520 N.3   131  LYS131     -0.1314
     55  N         99.9820  -21.4000   57.6580 N.3   133  GLY133     -0.1210
     56  CA        98.6150  -21.3410   57.1580 C.3   133  GLY133      0.1956
     57  C         97.5990  -21.6990   58.2320 C.2   133  GLY133      0.2612
     58  O         97.9660  -22.1990   59.2980 O.2   133  GLY133     -0.2717
     59  N         96.3210  -21.4230   57.9660 N.am  134  SER134     -0.1952
     60  CA        95.2840  -21.6330   58.9850 C.3   134  SER134      0.1924
     61  C         95.1660  -23.0760   59.4490 C.2   134  SER134      0.2314
     62  O         94.9210  -23.3440   60.6280 O.2   134  SER134     -0.2863
     63  CB        93.9280  -21.1270   58.4930 C.3   134  SER134      0.2116
     64  OG        93.9030  -19.7290   58.5260 O.3   134  SER134     -0.2180
     65  N         98.3300  -17.2440   60.0530 N.3   156  SER156     -0.1217
     66  CA        96.9380  -17.1800   59.7100 C.3   156  SER156      0.1889
     67  C         96.1070  -17.8720   60.7760 C.2   156  SER156      0.2288
     68  O         96.5240  -18.8750   61.3080 O.2   156  SER156     -0.2866
     69  CB        96.6950  -17.7960   58.3520 C.3   156  SER156      0.2089
     70  OG        97.1060  -16.8800   57.3490 O.3   156  SER156     -0.2183
     71  N         88.6110  -19.7190   55.7460 N.3   186  ASN186     -0.1240
     72  CA        89.0560  -20.7040   54.7320 C.3   186  ASN186      0.1653
     73  C         87.9170  -21.4190   54.0190 C.2   186  ASN186      0.2266
     74  O         87.6720  -22.5900   54.2200 O.2   186  ASN186     -0.2867
     75  CB        90.0250  -21.6970   55.3500 C.3   186  ASN186      0.1155
     76  CG        91.2210  -21.0150   55.9380 C.2   186  ASN186      0.2627
     77  OD1       91.1790  -20.5800   57.1080 O.2   186  ASN186     -0.2716
     78  ND2       92.3090  -20.8990   55.1410 N.am  186  ASN186     -0.0877
     79  N         86.6010  -21.3940   49.9850 N.3   188  TYR188     -0.1241
     80  CA        87.1730  -21.0150   48.7160 C.3   188  TYR188      0.1605
     81  C         86.1210  -21.0440   47.5930 C.2   188  TYR188      0.2264
     82  O         85.8890  -22.0980   46.9920 O.2   188  TYR188     -0.2867
     83  CB        88.3300  -21.9610   48.4200 C.3   188  TYR188      0.0534
     84  CG        89.3420  -22.0690   49.5610 C.ar  188  TYR188     -0.0201
     85  CD1       89.2950  -23.1180   50.4890 C.ar  188  TYR188     -0.0009
     86  CD2       90.3490  -21.1240   49.7030 C.ar  188  TYR188     -0.0009
     87  CE1       90.2380  -23.2090   51.5350 C.ar  188  TYR188      0.0417
     88  CE2       91.2790  -21.2100   50.7270 C.ar  188  TYR188      0.0417
     89  CZ        91.2270  -22.2480   51.6370 C.ar  188  TYR188      0.1957
     90  OH        92.1780  -22.2740   52.6290 O.3   188  TYR188     -0.2866
     91  N         94.1530  -12.3010   55.6410 N.3   215  SER215     -0.1217
     92  CA        94.3290  -13.1880   54.5050 C.3   215  SER215      0.1889
     93  C         92.9370  -13.4550   53.9600 C.2   215  SER215      0.2288
     94  O         92.0090  -13.6640   54.7200 O.2   215  SER215     -0.2866
     95  CB        94.9680  -14.5100   54.9610 C.3   215  SER215      0.2089
     96  OG        95.1050  -15.3900   53.8680 O.3   215  SER215     -0.2183
     97  N         90.1030  -14.8530   50.8440 N.3   217  HIS217     -0.1241
     98  CA        89.7210  -15.7170   49.7570 C.3   217  HIS217      0.1621
     99  C         88.3830  -15.3640   49.1220 C.2   217  HIS217      0.2264
    100  O         87.7460  -16.2470   48.5500 O.2   217  HIS217     -0.2867
    101  CB        89.6880  -17.1510   50.2470 C.3   217  HIS217      0.0745
    102  CG        90.9710  -17.5940   50.8540 C.ar  217  HIS217      0.0817
    103  ND1       91.1670  -17.6340   52.2180 N.ar  217  HIS217     -0.2268
    104  CD2       92.1270  -18.0200   50.2850 C.ar  217  HIS217      0.1154
    105  CE1       92.3950  -18.0710   52.4580 C.ar  217  HIS217      0.1986
    106  NE2       93.0000  -18.2940   51.3030 N.ar  217  HIS217     -0.2212
    107  N         96.9200  -10.4730   52.2890 N.3   236  GLU236     -0.1245
    108  CA        97.3050  -11.6560   51.5210 C.3   236  GLU236      0.1567
    109  C         96.1390  -12.1270   50.6480 C.2   236  GLU236      0.2260
    110  O         95.0410  -12.3710   51.1490 O.2   236  GLU236     -0.2867
    111  CB        97.7170  -12.7500   52.4820 C.3   236  GLU236      0.0388
    112  CG        98.5190  -13.9200   51.8920 C.3   236  GLU236      0.1160
    113  CD        98.5770  -15.0850   52.8720 C.2   236  GLU236      0.3649
    114  OE1       99.6900  -15.5190   53.2620 O.co2 236  GLU236     -0.2457
    115  OE2       97.4880  -15.5490   53.2850 O.co2 236  GLU236     -0.2457
    116  N         95.7040  -14.7970   47.0200 N.3   238  HIS238     -0.1241
    117  CA        96.3270  -15.6390   46.0030 C.3   238  HIS238      0.1621
    118  C         96.5450  -14.7730   44.7700 C.2   238  HIS238      0.2264
    119  O         95.8570  -13.7610   44.6060 O.2   238  HIS238     -0.2867
    120  CB        95.4860  -16.8890   45.7200 C.3   238  HIS238      0.0745
    121  CG        95.5150  -17.8810   46.8370 C.ar  238  HIS238      0.0817
    122  ND1       96.0200  -19.1560   46.6890 N.ar  238  HIS238     -0.2268
    123  CD2       95.1700  -17.7640   48.1410 C.ar  238  HIS238      0.1154
    124  CE1       95.9570  -19.7890   47.8500 C.ar  238  HIS238      0.1986
    125  NE2       95.4430  -18.9670   48.7470 N.ar  238  HIS238     -0.2212
    126  N         92.5030  -22.5310   43.2620 N.3   249  ASP249     -0.1239
    127  CA        92.5920  -21.2350   43.9320 C.3   249  ASP249      0.1674
    128  C         92.5410  -20.0640   42.9410 C.2   249  ASP249      0.2266
    129  O         92.5140  -18.8940   43.3350 O.2   249  ASP249     -0.2867
    130  CB        93.8780  -21.1740   44.7660 C.3   249  ASP249      0.1410
    131  CG        93.9480  -22.2780   45.8670 C.2   249  ASP249      0.3668
    132  OD1       92.9000  -22.8090   46.3280 O.co2 249  ASP249     -0.2456
    133  OD2       95.0750  -22.6010   46.2920 O.co2 249  ASP249     -0.2456
@<TRIPOS>BOND
     1   128   129    2
     2   128   127    1
     3   126   127    1
     4   127   130    1
     5   119   118    2
     6   130   131    1
     7   118   117    1
     8     4     3    2
     9   120   117    1
    10   120   121    1
    11   131   133   ar
    12   131   132   ar
    13     3     2    1
    14   117   116    1
    15   122   121   ar
    16   122   124   ar
    17   121   123   ar
    18     1     2    1
    19    82    81    2
    20     2     5    1
    21    13    12    2
    22    81    80    1
    23    10    11    1
    24   124   125   ar
    25    12    11    1
    26    22    21    2
    27   123   125   ar
    28     5     6    1
    29     6     7    1
    30    83    80    1
    31    83    84    1
    32   100    99    2
    33    19    20    1
    34    11    14    1
    35    80    79    1
    36    99    98    1
    37    27    25   am
    38    21    20    1
    39    26    25    2
    40    23    20    1
    41    23    24    1
    42    25    24    1
    43     7     9   ar
    44     7     8   ar
    45    84    86   ar
    46    84    85   ar
    47    86    88   ar
    48    98   101    1
    49    98    97    1
    50    14    15    1
    51   101   102    1
    52   104   102   ar
    53   104   106   ar
    54    85    87   ar
    55   109   110    2
    56   109   108    1
    57    88    89   ar
    58   102   103   ar
    59    15    16    1
    60   106   105   ar
    61    18    17    1
    62    17    16    1
    63   108   107    1
    64   108   111    1
    65    87    89   ar
    66    89    90    1
    67   112   111    1
    68   112   113    1
    69   103   105   ar
    70    43    45   ar
    71    43    41   ar
    72   113   114   ar
    73   113   115   ar
    74    28    29    1
    75    45    44   ar
    76    41    40   ar
    77    31    30    2
    78    33    32    1
    79    32    29    1
    80    32    34    1
    81    44    42   ar
    82    40    42   ar
    83    40    39    1
    84    96    95    1
    85    93    92    1
    86    93    94    2
    87    29    30    1
    88    73    74    2
    89    73    72    1
    90    39    36    1
    91    92    95    1
    92    92    91    1
    93    72    75    1
    94    72    71    1
    95    35    36    1
    96    78    76   am
    97    75    76    1
    98    54    53    1
    99    51    50    1
   100    51    52    1
   101    36    37    1
   102    50    47    1
   103    76    77    2
   104    52    53    1
   105    37    38    2
   106    46    47    1
   107    47    48    1
   108    49    48    2
   109    56    55    1
   110    56    57    1
   111    70    69    1
   112    59    57   am
   113    59    60    1
   114    57    58    2
   115    69    66    1
   116    63    64    1
   117    63    60    1
   118    60    61    1
   119    61    62    2
   120    66    65    1
   121    66    67    1
   122    67    68    2
