@<TRIPOS>MOLECULE
tmp/4ipmA00.pdb
 202 194 0 0 0
SMALL
GASTEIGER

@<TRIPOS>ATOM
      1  N         -7.3710   10.3920  -12.6430 N.3   173  GLN173     -0.1245
      2  CA        -6.0020   10.8870  -12.4880 C.3   173  GLN173      0.1566
      3  C         -5.4370   10.7090  -11.0960 C.2   173  GLN173      0.2260
      4  O         -4.2730   11.0370  -10.8470 O.2   173  GLN173     -0.2867
      5  CB        -5.8800   12.3570  -12.9390 C.3   173  GLN173      0.0367
      6  CG        -6.3300   12.6230  -14.3480 C.3   173  GLN173      0.0905
      7  CD        -5.5240   11.8620  -15.3700 C.2   173  GLN173      0.2608
      8  OE1       -4.2660   11.8780  -15.2990 O.2   173  GLN173     -0.2717
      9  NE2       -6.1920   11.1890  -16.2630 N.am  173  GLN173     -0.0878
     10  N        -14.0360    7.3960  -14.2610 N.3   210  GLU210     -0.1245
     11  CA       -14.3370    8.6760  -14.9100 C.3   210  GLU210      0.1567
     12  C        -14.7490    8.4650  -16.3870 C.2   210  GLU210      0.2260
     13  O        -14.0790    7.7920  -17.1210 O.2   210  GLU210     -0.2867
     14  CB       -13.0940    9.5450  -14.8550 C.3   210  GLU210      0.0388
     15  CG       -13.2210   10.8680  -15.5650 C.3   210  GLU210      0.1160
     16  CD       -11.9350   11.6880  -15.4990 C.2   210  GLU210      0.3649
     17  OE1      -10.9820   11.3020  -14.7810 O.co2 210  GLU210     -0.2457
     18  OE2      -11.9090   12.7630  -16.1650 O.co2 210  GLU210     -0.2457
     19  N        -15.5330   10.8090  -19.4120 N.3   212  ASP212     -0.1239
     20  CA       -15.4460   12.1480  -20.0000 C.3   212  ASP212      0.1674
     21  C        -16.3210   12.2440  -21.2120 C.2   212  ASP212      0.2266
     22  O        -16.0940   11.6300  -22.2100 O.2   212  ASP212     -0.2867
     23  CB       -14.0070   12.4870  -20.3350 C.3   212  ASP212      0.1410
     24  CG       -13.0840   12.3730  -19.1350 C.2   212  ASP212      0.3668
     25  OD1      -13.4800   13.0010  -18.1150 O.co2 212  ASP212     -0.2456
     26  OD2      -12.0680   11.7230  -19.1960 O.co2 212  ASP212     -0.2456
     27  N        -14.2010   16.8860  -23.3870 N.3   215  GLU215     -0.1245
     28  CA       -13.0060   17.6990  -23.0880 C.3   215  GLU215      0.1567
     29  C        -12.6010   18.4930  -24.3450 C.2   215  GLU215      0.2260
     30  O        -12.3250   17.9450  -25.4360 O.2   215  GLU215     -0.2867
     31  CB       -11.8350   16.8230  -22.6860 C.3   215  GLU215      0.0388
     32  CG       -12.1520   15.7710  -21.6360 C.3   215  GLU215      0.1160
     33  CD       -11.8220   16.2240  -20.2440 C.2   215  GLU215      0.3649
     34  OE1      -12.3620   15.6000  -19.3110 O.co2 215  GLU215     -0.2457
     35  OE2      -11.0260   17.1770  -20.0730 O.co2 215  GLU215     -0.2457
     36  N        -13.8710   10.2040  -23.5270 N.3   224  THR224     -0.1218
     37  CA       -12.9080    9.1890  -23.0470 C.3   224  THR224      0.1862
     38  C        -13.5030    8.4140  -21.8960 C.2   224  THR224      0.2287
     39  O        -14.0480    9.0010  -20.9400 O.2   224  THR224     -0.2866
     40  CB       -11.6180    9.9190  -22.5430 C.3   224  THR224      0.1770
     41  OG1      -11.1420   10.7550  -23.5690 O.3   224  THR224     -0.2211
     42  CG2      -10.5550    8.9040  -22.1850 C.3   224  THR224      0.0375
     43  N        -12.5010    6.0870  -18.7150 N.3   226  HIS226     -0.1241
     44  CA       -11.4380    5.6630  -17.8120 C.3   226  HIS226      0.1621
     45  C        -12.0020    4.7290  -16.7290 C.2   226  HIS226      0.2264
     46  O        -12.9230    5.0940  -15.9800 O.2   226  HIS226     -0.2867
     47  CB       -10.8410    6.8190  -17.0350 C.3   226  HIS226      0.0745
     48  CG       -10.2910    7.9410  -17.8160 C.ar  226  HIS226      0.0817
     49  ND1       -8.9580    8.1430  -18.0190 N.ar  226  HIS226     -0.2268
     50  CD2      -10.9190    8.9890  -18.3900 C.ar  226  HIS226      0.1154
     51  CE1       -8.7630    9.2640  -18.7140 C.ar  226  HIS226      0.1986
     52  NE2       -9.9450    9.8110  -18.9200 N.ar  226  HIS226     -0.2212
     53  N          3.0960    5.7990  -14.1820 N.3   248  ARG248     -0.1231
     54  CA         1.8200    6.1140  -14.8100 C.3   248  ARG248      0.1694
     55  C          0.9070    4.8900  -14.9610 C.2   248  ARG248      0.2592
     56  O         -0.3110    5.0170  -14.8550 O.2   248  ARG248     -0.2718
     57  CB         2.1000    6.7330  -16.1870 C.3   248  ARG248      0.0321
     58  CG         0.8320    7.2620  -16.8190 C.3   248  ARG248      0.0489
     59  CD         1.0730    7.9030  -18.1790 C.3   248  ARG248      0.2205
     60  NE        -0.1040    8.4690  -18.7400 N.pl3 248  ARG248     -0.0865
     61  CZ        -0.6850    9.6020  -18.3400 C.cat 248  ARG248      0.5346
     62  NH1       -0.0680   10.4250  -17.4710 N.pl3 248  ARG248      0.1354
     63  NH2       -1.8500    9.9720  -18.8760 N.pl3 248  ARG248      0.1354
     64  N          1.4600    3.7290  -15.2810 N.am  249  TYR249     -0.1976
     65  CA         0.6950    2.4950  -15.5730 C.3   249  TYR249      0.1639
     66  C          0.6900    1.5180  -14.4060 C.2   249  TYR249      0.2290
     67  O          0.3110    0.3490  -14.5530 O.2   249  TYR249     -0.2864
     68  CB         1.0440    1.8220  -16.9380 C.3   249  TYR249      0.0560
     69  CG         0.8840    2.7830  -18.0620 C.ar  249  TYR249     -0.0198
     70  CD1       -0.3660    3.2620  -18.4920 C.ar  249  TYR249     -0.0009
     71  CD2        1.9990    3.2710  -18.7520 C.ar  249  TYR249     -0.0009
     72  CE1       -0.4490    4.1600  -19.4920 C.ar  249  TYR249      0.0417
     73  CE2        1.8720    4.1730  -19.7870 C.ar  249  TYR249      0.0417
     74  CZ         0.6590    4.6040  -20.1720 C.ar  249  TYR249      0.1957
     75  OH         0.5230    5.4980  -21.1700 O.3   249  TYR249     -0.2866
     76  N         -5.1260    6.2930  -16.3770 N.3   255  LYS255     -0.1231
     77  CA        -4.9550    7.6840  -16.6080 C.3   255  LYS255      0.1693
     78  C         -5.2360    8.1050  -18.0430 C.2   255  LYS255      0.2592
     79  O         -5.8180    9.1250  -18.2820 O.2   255  LYS255     -0.2718
     80  CB        -3.5750    8.1980  -16.1830 C.3   255  LYS255      0.0285
     81  CG        -3.4070    8.4660  -14.7300 C.3   255  LYS255      0.0035
     82  CD        -2.0440    9.1850  -14.4540 C.3   255  LYS255      0.0206
     83  CE        -2.0040    9.9810  -13.1730 C.3   255  LYS255      0.1093
     84  NZ        -2.2330    9.1730  -11.9730 N.3   255  LYS255     -0.1314
     85  N         -4.8130    7.3030  -19.0130 N.am  256  ASP256     -0.1974
     86  CA        -4.9800    7.6650  -20.4010 C.3   256  ASP256      0.1709
     87  C         -6.4240    7.5630  -20.8200 C.2   256  ASP256      0.2293
     88  O         -6.9280    8.3910  -21.5540 O.2   256  ASP256     -0.2864
     89  CB        -4.1790    6.7390  -21.3400 C.3   256  ASP256      0.1436
     90  CG        -2.6440    6.8740  -21.2220 C.2   256  ASP256      0.3671
     91  OD1       -2.1610    7.7670  -20.5130 O.co2 256  ASP256     -0.2456
     92  OD2       -1.9600    6.0320  -21.8650 O.co2 256  ASP256     -0.2456
     93  N         -9.8330    6.8860  -25.4410 N.3   259  ASP259     -0.1239
     94  CA       -10.2980    8.1390  -25.9280 C.3   259  ASP259      0.1674
     95  C        -10.7570    8.0840  -27.3850 C.2   259  ASP259      0.2266
     96  O        -10.1610    7.3470  -28.1720 O.2   259  ASP259     -0.2867
     97  CB        -9.1790    9.2150  -25.8460 C.3   259  ASP259      0.1410
     98  CG        -7.9370    8.9150  -26.6690 C.2   259  ASP259      0.3668
     99  OD1       -7.3840    7.8230  -26.4110 O.co2 259  ASP259     -0.2456
    100  OD2       -7.5660    9.7520  -27.5220 O.co2 259  ASP259     -0.2456
    101  N         -7.2750   13.5810  -33.5300 N.3   264  ARG264     -0.1245
    102  CA        -6.2070   12.5550  -33.2760 C.3   264  ARG264      0.1563
    103  C         -6.4520   11.3810  -34.1660 C.2   264  ARG264      0.2260
    104  O         -5.5060   10.6340  -34.5210 O.2   264  ARG264     -0.2867
    105  CB        -6.2330   12.1810  -31.8090 C.3   264  ARG264      0.0307
    106  CG        -5.0730   11.3500  -31.3780 C.3   264  ARG264      0.0489
    107  CD        -5.1890   10.9260  -29.9430 C.3   264  ARG264      0.2205
    108  NE        -3.9290   10.3000  -29.5000 N.pl3 264  ARG264     -0.0865
    109  CZ        -3.8180    9.3900  -28.5620 C.cat 264  ARG264      0.5346
    110  NH1       -4.8370    8.9140  -27.8890 N.pl3 264  ARG264      0.1354
    111  NH2       -2.6270    8.8420  -28.3480 N.pl3 264  ARG264      0.1354
    112  N          0.3100    2.7610  -27.7990 N.3   341  ASP341     -0.1239
    113  CA        -0.0590    3.1320  -26.4770 C.3   341  ASP341      0.1674
    114  C         -0.3450    1.9310  -25.6340 C.2   341  ASP341      0.2266
    115  O         -1.0730    0.9980  -26.0330 O.2   341  ASP341     -0.2867
    116  CB        -1.3140    4.0430  -26.4170 C.3   341  ASP341      0.1410
    117  CG        -1.1880    5.3970  -27.1030 C.2   341  ASP341      0.3668
    118  OD1       -0.0830    5.8650  -27.3440 O.co2 341  ASP341     -0.2456
    119  OD2       -2.2940    5.9560  -27.4410 O.co2 341  ASP341     -0.2456
    120  N        -10.5780   24.8920  -17.0080 N.3   369  TRP369     -0.1241
    121  CA        -9.2490   24.8500  -16.4820 C.3   369  TRP369      0.1605
    122  C         -8.2070   25.0390  -17.5770 C.2   369  TRP369      0.2264
    123  O         -8.4480   24.7770  -18.7260 O.2   369  TRP369     -0.2867
    124  CB        -8.9840   23.5810  -15.7400 C.3   369  TRP369      0.0550
    125  CG        -9.2520   22.2260  -16.4700 C.ar  369  TRP369      0.0003
    126  CD1      -10.4890   21.6540  -16.8300 C.ar  369  TRP369      0.0946
    127  CD2       -8.2890   21.2030  -16.7840 C.ar  369  TRP369      0.0152
    128  NE1      -10.2550   20.4420  -17.3900 N.ar  369  TRP369     -0.2442
    129  CE2       -8.9630   20.1130  -17.3430 C.ar  369  TRP369      0.0810
    130  CE3       -6.8740   21.0950  -16.6150 C.ar  369  TRP369      0.0012
    131  CZ2       -8.3060   18.9240  -17.7400 C.ar  369  TRP369      0.0191
    132  CZ3       -6.2410   19.9170  -17.0130 C.ar  369  TRP369      0.0001
    133  CH2       -6.9740   18.8490  -17.5450 C.ar  369  TRP369      0.0015
    134  N         -3.8380   23.8320  -17.8060 N.3   371  ASP371     -0.1239
    135  CA        -3.1410   22.6140  -17.4610 C.3   371  ASP371      0.1674
    136  C         -1.6790   22.9230  -17.1420 C.2   371  ASP371      0.2266
    137  O         -0.8590   23.1940  -18.0330 O.2   371  ASP371     -0.2867
    138  CB        -3.2220   21.6170  -18.6090 C.3   371  ASP371      0.1410
    139  CG        -2.3920   20.3630  -18.4580 C.2   371  ASP371      0.3668
    140  OD1       -1.8680   20.1280  -17.3570 O.co2 371  ASP371     -0.2456
    141  OD2       -2.2420   19.6580  -19.4760 O.co2 371  ASP371     -0.2456
    142  N          0.5860   21.0300  -15.8350 N.3   373  TYR373     -0.1227
    143  CA         1.4670   19.8780  -16.0540 C.3   373  TYR373      0.1736
    144  C          1.8910   19.7540  -17.5290 C.2   373  TYR373      0.2595
    145  O          3.0790   19.6710  -17.8430 O.2   373  TYR373     -0.2718
    146  CB         0.8180   18.5640  -15.6010 C.3   373  TYR373      0.0548
    147  CG         1.6910   17.3570  -15.8950 C.ar  373  TYR373     -0.0200
    148  CD1        2.9520   17.2160  -15.2820 C.ar  373  TYR373     -0.0009
    149  CD2        1.3430   16.4060  -16.8960 C.ar  373  TYR373     -0.0009
    150  CE1        3.8110   16.1360  -15.5810 C.ar  373  TYR373      0.0417
    151  CE2        2.2240   15.3420  -17.2080 C.ar  373  TYR373      0.0417
    152  CZ         3.4780   15.2380  -16.5580 C.ar  373  TYR373      0.1957
    153  OH         4.2790   14.1290  -16.8670 O.3   373  TYR373     -0.2866
    154  N          0.9110   19.7490  -18.4190 N.am  374  ALA374     -0.1980
    155  CA         1.1680   19.4430  -19.7900 C.3   374  ALA374      0.1597
    156  C          0.5860   20.3980  -20.7850 C.2   374  ALA374      0.2287
    157  O          0.5060   20.1200  -21.9880 O.2   374  ALA374     -0.2864
    158  CB         0.7410   17.9750  -20.1630 C.3   374  ALA374      0.0319
    159  N         -1.9450   17.3850  -24.8990 N.3   378  TRP378     -0.1241
    160  CA        -2.6000   16.1140  -25.0670 C.3   378  TRP378      0.1605
    161  C         -3.9500   16.2500  -25.7040 C.2   378  TRP378      0.2264
    162  O         -4.4330   15.2840  -26.3020 O.2   378  TRP378     -0.2867
    163  CB        -2.6460   15.4150  -23.7600 C.3   378  TRP378      0.0550
    164  CG        -3.3380   16.1660  -22.6930 C.ar  378  TRP378      0.0003
    165  CD1       -2.8020   17.0390  -21.8170 C.ar  378  TRP378      0.0946
    166  CD2       -4.7810   16.1760  -22.4580 C.ar  378  TRP378      0.0152
    167  NE1       -3.8020   17.5760  -21.0760 N.ar  378  TRP378     -0.2442
    168  CE2       -5.0100   17.0780  -21.4410 C.ar  378  TRP378      0.0810
    169  CE3       -5.8870   15.5110  -23.0280 C.ar  378  TRP378      0.0012
    170  CZ2       -6.2910   17.3950  -20.9810 C.ar  378  TRP378      0.0191
    171  CZ3       -7.1340   15.8140  -22.5630 C.ar  378  TRP378      0.0001
    172  CH2       -7.3190   16.7060  -21.5600 C.ar  378  TRP378      0.0015
    173  N          1.5920   15.4960  -28.7290 N.3   383  TYR383     -0.1228
    174  CA         2.0050   15.0500  -27.3820 C.3   383  TYR383      0.1721
    175  C          2.3220   13.5940  -27.4590 C.2   383  TYR383      0.2437
    176  O          1.5290   12.8170  -27.9750 O.2   383  TYR383     -0.2733
    177  CB         0.8820   15.2710  -26.3940 C.3   383  TYR383      0.0547
    178  CG         1.2880   15.0930  -24.9980 C.ar  383  TYR383     -0.0200
    179  CD1        2.0720   16.0390  -24.3830 C.ar  383  TYR383     -0.0009
    180  CD2        0.8850   14.0010  -24.2800 C.ar  383  TYR383     -0.0009
    181  CE1        2.4270   15.9160  -23.0320 C.ar  383  TYR383      0.0417
    182  CE2        1.2310   13.8550  -22.9090 C.ar  383  TYR383      0.0417
    183  CZ         2.0530   14.8300  -22.3520 C.ar  383  TYR383      0.1957
    184  OH         2.4070   14.7300  -21.0250 O.3   383  TYR383     -0.2866
    185  N          3.5020   13.1730  -26.9900 N.am  384  PRO384     -0.2729
    186  CA         4.5970   14.0270  -26.5220 C.3   384  PRO384      0.1401
    187  C          5.0780   14.9380  -27.6070 C.2   384  PRO384      0.2269
    188  O          4.9480   14.6490  -28.7900 O.2   384  PRO384     -0.2865
    189  CB         5.6820   13.0360  -26.0290 C.3   384  PRO384      0.0296
    190  CG         5.2860   11.7560  -26.5390 C.3   384  PRO384      0.0237
    191  CD         3.8630   11.7560  -27.0310 C.3   384  PRO384      0.0939
    192  N         -2.6480   15.6200  -31.9310 N.3   394  ARG394     -0.1245
    193  CA        -3.9850   15.7530  -31.3280 C.3   394  ARG394      0.1563
    194  C         -4.8310   16.8680  -31.8150 C.2   394  ARG394      0.2260
    195  O         -6.0640   16.8330  -31.7650 O.2   394  ARG394     -0.2867
    196  CB        -3.8010   15.9840  -29.7930 C.3   394  ARG394      0.0307
    197  CG        -2.6060   15.2550  -29.0740 C.3   394  ARG394      0.0489
    198  CD        -2.9120   13.8310  -29.1060 C.3   394  ARG394      0.2205
    199  NE        -1.8240   13.0860  -28.3300 N.pl3 394  ARG394     -0.0865
    200  CZ        -2.0030   12.4810  -27.1970 C.cat 394  ARG394      0.5346
    201  NH1       -3.0840   12.6640  -26.4850 N.pl3 394  ARG394      0.1354
    202  NH2       -1.1030   11.6340  -26.7930 N.pl3 394  ARG394      0.1354
@<TRIPOS>BOND
     1   104   103    2
     2   103   102    1
     3   101   102    1
     4   102   105    1
     5   192   193    1
     6   194   195    2
     7   194   193    1
     8   105   106    1
     9   106   107    1
    10   193   196    1
    11   107   108    1
    12   196   197    1
    13   108   109    2
    14   198   197    1
    15   198   199    1
    16   188   187    2
    17   173   174    1
    18   109   111    1
    19   109   110    1
    20   199   200    2
    21    96    95    2
    22   176   175    2
    23   112   113    1
    24   187   186    1
    25   100    98   ar
    26   175   174    1
    27   175   185   am
    28   119   117   ar
    29    95    94    1
    30   174   177    1
    31   118   117   ar
    32   200   202    1
    33   200   201    1
    34   117   116    1
    35   191   185    1
    36   191   190    1
    37   185   186    1
    38    98    99   ar
    39    98    97    1
    40   190   189    1
    41   186   189    1
    42   113   116    1
    43   113   114    1
    44   177   178    1
    45   162   161    2
    46   115   114    2
    47    94    97    1
    48    94    93    1
    49   161   160    1
    50    30    29    2
    51   160   159    1
    52   160   163    1
    53   178   179   ar
    54   178   180   ar
    55   179   181   ar
    56    29    28    1
    57   180   182   ar
    58   163   164    1
    59    41    40    1
    60    36    37    1
    61    27    28    1
    62    28    31    1
    63    37    40    1
    64    37    38    1
    65   181   183   ar
    66   169   171   ar
    67   169   166   ar
    68   182   183   ar
    69   164   166   ar
    70   164   165   ar
    71    31    32    1
    72   171   172   ar
    73    40    42    1
    74   166   168   ar
    75   183   184    1
    76    22    21    2
    77   157   156    2
    78    38    39    2
    79    92    90   ar
    80   165   167   ar
    81    32    33    1
    82   172   170   ar
    83    88    87    2
    84   168   167   ar
    85   168   170   ar
    86    89    90    1
    87    89    86    1
    88    90    91   ar
    89    21    20    1
    90    75    74    1
    91    87    86    1
    92   156   155    1
    93    86    85    1
    94    23    20    1
    95    23    24    1
    96    33    35   ar
    97    33    34   ar
    98    74    73   ar
    99    74    72   ar
   100   158   155    1
   101    20    19    1
   102   155   154    1
   103    73    71   ar
   104    72    70   ar
   105   141   139   ar
   106    26    24   ar
   107    24    25   ar
   108    85    78   am
   109    52    51   ar
   110    52    50   ar
   111    63    61    1
   112    71    69   ar
   113    60    61    2
   114    60    59    1
   115   123   122    2
   116    43    44    1
   117    51    49   ar
   118   138   139    1
   119   138   135    1
   120    70    69   ar
   121   139   140   ar
   122   154   144   am
   123    50    48   ar
   124    61    62    1
   125    79    78    2
   126    59    58    1
   127    69    68    1
   128    78    77    1
   129   137   136    2
   130    49    48   ar
   131   145   144    2
   132    48    47    1
   133    44    47    1
   134    44    45    1
   135   134   135    1
   136   131   133   ar
   137   131   129   ar
   138   122   121    1
   139   133   132   ar
   140   144   143    1
   141   135   136    1
   142   128   129   ar
   143   128   126   ar
   144   129   127   ar
   145   151   149   ar
   146   151   152   ar
   147    13    12    2
   148   132   130   ar
   149   120   121    1
   150    68    65    1
   151   149   147   ar
   152   153   152    1
   153   126   125   ar
   154    58    57    1
   155   127   130   ar
   156   127   125   ar
   157    45    46    2
   158    77    76    1
   159    77    80    1
   160   152   150   ar
   161   121   124    1
   162   125   124    1
   163    12    11    1
   164     9     7   am
   165    57    54    1
   166    80    81    1
   167    18    16   ar
   168   143   142    1
   169   143   146    1
   170   147   146    1
   171   147   148   ar
   172   150   148   ar
   173    65    64    1
   174    65    66    1
   175    15    16    1
   176    15    14    1
   177    16    17   ar
   178     7     8    2
   179     7     6    1
   180    64    55   am
   181    55    56    2
   182    55    54    1
   183    11    14    1
   184    11    10    1
   185    54    53    1
   186    81    82    1
   187    67    66    2
   188    82    83    1
   189     6     5    1
   190    83    84    1
   191     5     2    1
   192     1     2    1
   193     2     3    1
   194     3     4    2
