@<TRIPOS>MOLECULE
tmp/4ipnB00.pdb
 191 184 0 0 0
SMALL
GASTEIGER

@<TRIPOS>ATOM
      1  N        -33.4750   -1.3420   26.6240 N.3    17  GLN17      -0.1245
      2  CA       -33.5870   -1.6970   25.2110 C.3    17  GLN17       0.1566
      3  C        -34.5010   -2.9080   24.9920 C.2    17  GLN17       0.2260
      4  O        -34.8420   -3.2510   23.8540 O.2    17  GLN17      -0.2867
      5  CB       -32.1980   -1.9140   24.6090 C.3    17  GLN17       0.0367
      6  CG       -31.3500   -0.6470   24.6150 C.3    17  GLN17       0.0905
      7  CD       -29.9200   -0.8700   24.1470 C.2    17  GLN17       0.2608
      8  OE1      -28.9940   -0.8580   24.9500 O.2    17  GLN17      -0.2717
      9  NE2      -29.7340   -1.0560   22.8420 N.am   17  GLN17      -0.0878
     10  N        -28.7490    9.4800   19.2650 N.3    40  LEU40      -0.1245
     11  CA       -28.4690   10.4520   18.2100 C.3    40  LEU40       0.1561
     12  C        -29.6080   11.4650   18.0680 C.2    40  LEU40       0.2260
     13  O        -29.4360   12.5300   17.4730 O.2    40  LEU40      -0.2867
     14  CB       -28.2450    9.7420   16.8760 C.3    40  LEU40       0.0270
     15  CG       -26.8730    9.0980   16.6640 C.3    40  LEU40       0.0019
     16  CD1      -26.7270    8.5300   15.2510 C.3    40  LEU40       0.0001
     17  CD2      -25.7840   10.1160   16.9420 C.3    40  LEU40       0.0001
     18  N        -26.2980    1.4010   32.6050 N.3   124  HIS124     -0.1226
     19  CA       -26.2380    1.3960   31.1500 C.3   124  HIS124      0.1752
     20  C        -27.2520    2.3660   30.5740 C.2   124  HIS124      0.2596
     21  O        -28.3650    1.9650   30.2410 O.2   124  HIS124     -0.2718
     22  CB       -26.5800   -0.0200   30.6930 C.3   124  HIS124      0.0759
     23  CG       -26.2260   -0.3140   29.2750 C.ar  124  HIS124      0.0818
     24  ND1      -25.7820   -1.5530   28.8680 N.ar  124  HIS124     -0.2268
     25  CD2      -26.2820    0.4530   28.1620 C.ar  124  HIS124      0.1154
     26  CE1      -25.5630   -1.5330   27.5650 C.ar  124  HIS124      0.1986
     27  NE2      -25.8570   -0.3270   27.1130 N.ar  124  HIS124     -0.2212
     28  N        -26.8280    3.6050   30.3420 N.am  125  TYR125     -0.1976
     29  CA       -27.6630    4.6450   29.7220 C.3   125  TYR125      0.1639
     30  C        -29.1180    4.7380   30.2380 C.2   125  TYR125      0.2290
     31  O        -30.0210    5.1010   29.4890 O.2   125  TYR125     -0.2864
     32  CB       -27.6720    4.4540   28.2060 C.3   125  TYR125      0.0560
     33  CG       -26.3060    4.2670   27.6170 C.ar  125  TYR125     -0.0198
     34  CD1      -25.1690    4.7000   28.2930 C.ar  125  TYR125     -0.0009
     35  CD2      -26.1430    3.6550   26.3830 C.ar  125  TYR125     -0.0009
     36  CE1      -23.9180    4.5280   27.7560 C.ar  125  TYR125      0.0417
     37  CE2      -24.8910    3.4810   25.8360 C.ar  125  TYR125      0.0417
     38  CZ       -23.7820    3.9190   26.5300 C.ar  125  TYR125      0.1957
     39  OH       -22.5300    3.7450   25.9860 O.3   125  TYR125     -0.2866
     40  N        -21.2210    1.6320   31.4510 N.3   169  ASN169     -0.1225
     41  CA       -21.0680    1.2440   30.0550 C.3   169  ASN169      0.1785
     42  C        -20.3940    2.4290   29.3700 C.2   169  ASN169      0.2597
     43  O        -21.0480    3.4310   29.0810 O.2   169  ASN169     -0.2718
     44  CB       -22.4640    1.0110   29.4650 C.3   169  ASN169      0.1169
     45  CG       -22.4400    0.3520   28.0960 C.2   169  ASN169      0.2627
     46  OD1      -22.3630   -0.8710   27.9830 O.2   169  ASN169     -0.2716
     47  ND2      -22.5530    1.1610   27.0480 N.am  169  ASN169     -0.0877
     48  N        -19.0920    2.3050   29.1000 N.am  170  GLU170     -0.1979
     49  CA       -18.3140    3.3430   28.4150 C.3   170  GLU170      0.1602
     50  C        -18.3510    4.7330   29.0490 C.2   170  GLU170      0.2287
     51  O        -19.0370    5.6060   28.5300 O.2   170  GLU170     -0.2864
     52  CB       -18.7650    3.4750   26.9660 C.3   170  GLU170      0.0415
     53  CG       -18.9900    2.1620   26.2600 C.3   170  GLU170      0.1163
     54  CD       -19.1890    2.3570   24.7710 C.2   170  GLU170      0.3649
     55  OE1      -18.8770    3.4730   24.2860 O.co2 170  GLU170     -0.2457
     56  OE2      -19.6580    1.4080   24.0930 O.co2 170  GLU170     -0.2457
     57  N        -18.2150    7.6120   26.6940 N.3   173  SER173     -0.1217
     58  CA       -19.3640    7.8570   25.8340 C.3   173  SER173      0.1889
     59  C        -20.0380    9.1660   26.2470 C.2   173  SER173      0.2288
     60  O        -20.7900    9.7550   25.4760 O.2   173  SER173     -0.2866
     61  CB       -20.3580    6.6960   25.9100 C.3   173  SER173      0.2089
     62  OG       -21.1430    6.7630   27.0920 O.3   173  SER173     -0.2183
     63  N        -19.4410   12.0720   23.5040 N.3   176  GLU176     -0.1231
     64  CA       -20.3970   12.2230   22.4050 C.3   176  GLU176      0.1699
     65  C        -21.8570   12.3770   22.8490 C.2   176  GLU176      0.2592
     66  O        -22.6290   13.0820   22.2000 O.2   176  GLU176     -0.2718
     67  CB       -20.2810   11.0470   21.4360 C.3   176  GLU176      0.0402
     68  CG       -18.9310   10.9340   20.7670 C.3   176  GLU176      0.1161
     69  CD       -18.6020   12.1430   19.9150 C.2   176  GLU176      0.3649
     70  OE1      -18.2450   13.2000   20.4850 O.co2 176  GLU176     -0.2457
     71  OE2      -18.7000   12.0330   18.6740 O.co2 176  GLU176     -0.2457
     72  N        -22.2340   11.6810   23.9200 N.am  177  LEU177     -0.1980
     73  CA       -23.6300   11.6020   24.3540 C.3   177  LEU177      0.1596
     74  C        -23.8580   12.0170   25.8070 C.2   177  LEU177      0.2287
     75  O        -24.1150   11.1810   26.6660 O.2   177  LEU177     -0.2864
     76  CB       -24.1600   10.1840   24.1480 C.3   177  LEU177      0.0297
     77  CG       -23.6430    9.4450   22.9170 C.3   177  LEU177      0.0022
     78  CD1      -24.5480    8.2790   22.5680 C.3   177  LEU177      0.0001
     79  CD2      -23.5160   10.3910   21.7370 C.3   177  LEU177      0.0001
     80  N        -15.1580    0.8870   25.0810 N.3   228  LEU228     -0.1245
     81  CA       -15.2720    0.6660   23.6480 C.3   228  LEU228      0.1561
     82  C        -13.9090    0.3120   23.0810 C.2   228  LEU228      0.2260
     83  O        -12.9370    1.0220   23.3060 O.2   228  LEU228     -0.2867
     84  CB       -15.8310    1.9050   22.9470 C.3   228  LEU228      0.0270
     85  CG       -16.0320    1.8690   21.4270 C.3   228  LEU228      0.0019
     86  CD1      -16.4340    0.4950   20.9220 C.3   228  LEU228      0.0001
     87  CD2      -17.0420    2.9100   20.9810 C.3   228  LEU228      0.0001
     88  N        -16.7140   -3.4820   24.1400 N.3   300  SER300     -0.1217
     89  CA       -17.4850   -3.8680   22.9710 C.3   300  SER300      0.1889
     90  C        -16.5840   -3.7710   21.7560 C.2   300  SER300      0.2288
     91  O        -15.7540   -2.8660   21.6590 O.2   300  SER300     -0.2866
     92  CB       -18.7280   -2.9970   22.8030 C.3   300  SER300      0.2089
     93  OG       -18.3970   -1.7040   22.3540 O.3   300  SER300     -0.2183
     94  N        -16.7510   -3.9300   17.4220 N.3   302  TYR302     -0.1227
     95  CA       -17.4460   -4.0320   16.1510 C.3   302  TYR302      0.1736
     96  C        -16.4580   -3.9050   14.9850 C.2   302  TYR302      0.2595
     97  O        -16.4080   -4.7610   14.0960 O.2   302  TYR302     -0.2718
     98  CB       -18.5940   -3.0170   16.0620 C.3   302  TYR302      0.0548
     99  CG       -19.7530   -3.3450   16.9890 C.ar  302  TYR302     -0.0200
    100  CD1      -20.0890   -2.5100   18.0440 C.ar  302  TYR302     -0.0009
    101  CD2      -20.4990   -4.4990   16.8110 C.ar  302  TYR302     -0.0009
    102  CE1      -21.1500   -2.8120   18.8900 C.ar  302  TYR302      0.0417
    103  CE2      -21.5560   -4.8070   17.6460 C.ar  302  TYR302      0.0417
    104  CZ       -21.8710   -3.9630   18.6850 C.ar  302  TYR302      0.1957
    105  OH       -22.9130   -4.2750   19.5190 O.3   302  TYR302     -0.2866
    106  N        -15.7190   -2.8000   14.9640 N.am  303  MET303     -0.1979
    107  CA       -14.8530   -2.4830   13.8430 C.3   303  MET303      0.1605
    108  C        -13.4710   -1.9180   14.2410 C.2   303  MET303      0.2287
    109  O        -13.2660   -1.4450   15.3560 O.2   303  MET303     -0.2864
    110  CB       -15.5600   -1.4320   13.0110 C.3   303  MET303      0.0413
    111  CG       -15.7240   -0.1300   13.7950 C.3   303  MET303      0.0598
    112  SD       -16.8230    1.0580   13.0170 S.3   303  MET303     -0.1393
    113  CE       -18.4070    0.3830   13.5280 C.3   303  MET303      0.0692
    114  N        -21.3230   -0.9120    7.7450 N.3   331  TRP331     -0.1241
    115  CA       -20.1350   -0.9330    8.6020 C.3   331  TRP331      0.1605
    116  C        -19.0780   -1.8850    8.0160 C.2   331  TRP331      0.2264
    117  O        -19.4200   -2.9050    7.4090 O.2   331  TRP331     -0.2867
    118  CB       -20.4760   -1.3490   10.0410 C.3   331  TRP331      0.0550
    119  CG       -21.2800   -0.3410   10.8360 C.ar  331  TRP331      0.0003
    120  CD1      -21.8770    0.8000   10.3660 C.ar  331  TRP331      0.0946
    121  CD2      -21.5780   -0.3940   12.2430 C.ar  331  TRP331      0.0152
    122  NE1      -22.5260    1.4560   11.3910 N.ar  331  TRP331     -0.2442
    123  CE2      -22.3560    0.7450   12.5520 C.ar  331  TRP331      0.0810
    124  CE3      -21.2680   -1.2970   13.2700 C.ar  331  TRP331      0.0012
    125  CZ2      -22.8180    1.0090   13.8520 C.ar  331  TRP331      0.0191
    126  CZ3      -21.7320   -1.0340   14.5630 C.ar  331  TRP331      0.0001
    127  CH2      -22.4920    0.1110   14.8400 C.ar  331  TRP331      0.0015
    128  N        -19.7970   -7.0660   24.3490 N.3   357  GLU357     -0.1245
    129  CA       -20.6490   -6.6650   23.2460 C.3   357  GLU357      0.1567
    130  C        -19.9810   -6.9400   21.8990 C.2   357  GLU357      0.2260
    131  O        -18.9470   -6.3580   21.5930 O.2   357  GLU357     -0.2867
    132  CB       -21.0230   -5.2000   23.4220 C.3   357  GLU357      0.0388
    133  CG       -21.8490   -4.5940   22.3420 C.3   357  GLU357      0.1160
    134  CD       -22.2880   -3.1920   22.7100 C.2   357  GLU357      0.3649
    135  OE1      -22.7250   -2.4450   21.8090 O.co2 357  GLU357     -0.2457
    136  OE2      -22.2060   -2.8390   23.9080 O.co2 357  GLU357     -0.2457
    137  N        -23.9390   -9.4360   21.3610 N.3   408  TRP408     -0.1241
    138  CA       -24.8150   -8.3160   21.6540 C.3   408  TRP408      0.1605
    139  C        -26.2510   -8.5620   21.1870 C.2   408  TRP408      0.2264
    140  O        -26.4730   -9.2200   20.1730 O.2   408  TRP408     -0.2867
    141  CB       -24.3020   -7.0310   21.0340 C.3   408  TRP408      0.0550
    142  CG       -25.2300   -5.9310   21.3350 C.ar  408  TRP408      0.0003
    143  CD1      -26.0370   -5.2760   20.4570 C.ar  408  TRP408      0.0946
    144  CD2      -25.5100   -5.3860   22.6290 C.ar  408  TRP408      0.0152
    145  NE1      -26.7890   -4.3300   21.1240 N.ar  408  TRP408     -0.2442
    146  CE2      -26.4890   -4.3840   22.4580 C.ar  408  TRP408      0.0810
    147  CE3      -25.0160   -5.6370   23.9170 C.ar  408  TRP408      0.0012
    148  CZ2      -26.9780   -3.6280   23.5210 C.ar  408  TRP408      0.0191
    149  CZ3      -25.5030   -4.8870   24.9730 C.ar  408  TRP408      0.0001
    150  CH2      -26.4760   -3.8950   24.7690 C.ar  408  TRP408      0.0015
    151  N        -32.5130   -0.6350   19.2970 N.3   415  SER415     -0.1202
    152  CA       -31.1880   -0.0540   19.1500 C.3   415  SER415      0.2020
    153  C        -31.0520    1.1570   20.0700 C.2   415  SER415      0.2619
    154  O        -32.0180    1.8900   20.2960 O.2   415  SER415     -0.2717
    155  CB       -30.9040    0.3290   17.6950 C.3   415  SER415      0.2103
    156  OG       -31.5070    1.5610   17.3570 O.3   415  SER415     -0.2182
    157  N        -29.8610    1.3360   20.6360 N.am  416  MET416     -0.1965
    158  CA       -29.5910    2.4850   21.4930 C.3   416  MET416      0.1736
    159  C        -29.4710    3.7550   20.6530 C.2   416  MET416      0.2617
    160  O        -29.9100    4.8330   21.0710 O.2   416  MET416     -0.2715
    161  CB       -28.2950    2.2610   22.2980 C.3   416  MET416      0.0427
    162  CG       -27.8600    3.4410   23.1850 C.3   416  MET416      0.0599
    163  SD       -27.0340    4.7950   22.3040 S.3   416  MET416     -0.1393
    164  CE       -25.6730    3.9140   21.5430 C.3   416  MET416      0.0692
    165  N        -28.8570    3.6140   19.4790 N.am  417  SER417     -0.1950
    166  CA       -28.5320    4.7440   18.6170 C.3   417  SER417      0.1924
    167  C        -29.7500    5.4990   18.1100 C.2   417  SER417      0.2314
    168  O        -29.9010    6.6950   18.3590 O.2   417  SER417     -0.2863
    169  CB       -27.8090    4.2200   17.3850 C.3   417  SER417      0.2116
    170  OG       -28.7400    3.5190   16.5640 O.3   417  SER417     -0.2180
    171  N        -32.7280   -2.8940   12.5890 N.3   423  LYS423     -0.1245
    172  CA       -31.3480   -3.3370   12.5630 C.3   423  LYS423      0.1561
    173  C        -31.2250   -4.3390   13.6910 C.2   423  LYS423      0.2260
    174  O        -31.2020   -3.9710   14.8660 O.2   423  LYS423     -0.2867
    175  CB       -30.4200   -2.1500   12.8040 C.3   423  LYS423      0.0271
    176  CG       -28.9630   -2.4060   12.4710 C.3   423  LYS423      0.0035
    177  CD       -28.1260   -1.1410   12.6440 C.3   423  LYS423      0.0206
    178  CE       -26.6460   -1.3990   12.3710 C.3   423  LYS423      0.1093
    179  NZ       -25.7870   -0.2160   12.7080 N.3   423  LYS423     -0.1314
    180  N        -29.6630   -7.5970   15.8050 N.3   425  TYR425     -0.1241
    181  CA       -28.4620   -8.3210   16.2110 C.3   425  TYR425      0.1605
    182  C        -28.6950   -9.7620   16.6360 C.2   425  TYR425      0.2264
    183  O        -27.7550  -10.5480   16.7450 O.2   425  TYR425     -0.2867
    184  CB       -27.7670   -7.5490   17.3280 C.3   425  TYR425      0.0534
    185  CG       -27.0590   -6.3220   16.8250 C.ar  425  TYR425     -0.0201
    186  CD1      -25.7020   -6.3520   16.5730 C.ar  425  TYR425     -0.0009
    187  CD2      -27.7450   -5.1410   16.5850 C.ar  425  TYR425     -0.0009
    188  CE1      -25.0310   -5.2360   16.1030 C.ar  425  TYR425      0.0417
    189  CE2      -27.0820   -4.0110   16.1150 C.ar  425  TYR425      0.0417
    190  CZ       -25.7160   -4.0710   15.8800 C.ar  425  TYR425      0.1957
    191  OH       -25.0200   -2.9810   15.4030 O.3   425  TYR425     -0.2866
@<TRIPOS>BOND
     1   117   116    2
     2   114   115    1
     3   116   115    1
     4   115   118    1
     5   118   119    1
     6   120   119   ar
     7   120   122   ar
     8   119   121   ar
     9   122   123   ar
    10   121   123   ar
    11   121   124   ar
    12   178   177    1
    13   178   179    1
    14   176   177    1
    15   176   175    1
    16   123   125   ar
    17   172   171    1
    18   172   175    1
    19   172   173    1
    20   110   111    1
    21   110   107    1
    22   112   113    1
    23   112   111    1
    24   124   126   ar
    25   173   174    2
    26   107   108    1
    27   107   106    1
    28   125   127   ar
    29    97    96    2
    30   108   109    2
    31   126   127   ar
    32   106    96   am
    33    96    95    1
    34    16    15    1
    35   191   190    1
    36   180   181    1
    37   190   188   ar
    38   190   189   ar
    39    98    95    1
    40    98    99    1
    41   188   186   ar
    42   189   187   ar
    43    95    94    1
    44   181   182    1
    45   181   184    1
    46   170   169    1
    47   186   185   ar
    48   187   185   ar
    49   182   183    2
    50    15    14    1
    51    15    17    1
    52   101    99   ar
    53   101   103   ar
    54   185   184    1
    55    14    11    1
    56    99   100   ar
    57   156   155    1
    58   169   166    1
    59    13    12    2
    60   103   104   ar
    61   155   152    1
    62   100   102   ar
    63    12    11    1
    64   167   168    2
    65   167   166    1
    66    11    10    1
    67   166   165    1
    68    71    69   ar
    69   104   102   ar
    70   104   105    1
    71   152   151    1
    72   152   153    1
    73   165   159   am
    74    69    70   ar
    75    69    68    1
    76   153   154    2
    77   153   157   am
    78   140   139    2
    79   143   145   ar
    80   143   142   ar
    81   157   158    1
    82   159   160    2
    83   159   158    1
    84    68    67    1
    85    86    85    1
    86    87    85    1
    87   141   142    1
    88   141   138    1
    89   145   146   ar
    90   139   138    1
    91   142   144   ar
    92   137   138    1
    93    85    84    1
    94    67    64    1
    95   158   161    1
    96   164   163    1
    97   131   130    2
    98    91    90    2
    99    79    77    1
   100    90    89    1
   101   135   134   ar
   102   130   129    1
   103    66    65    2
   104   161   162    1
   105   163   162    1
   106   133   134    1
   107   133   132    1
   108    93    92    1
   109    64    65    1
   110    64    63    1
   111   146   144   ar
   112   146   148   ar
   113    78    77    1
   114   144   147   ar
   115   134   136   ar
   116    92    89    1
   117     9     7   am
   118    65    72   am
   119    77    76    1
   120    84    81    1
   121    89    88    1
   122    82    83    2
   123    82    81    1
   124   129   132    1
   125   129   128    1
   126   148   150   ar
   127    81    80    1
   128     4     3    2
   129   147   149   ar
   130    72    73    1
   131    56    54   ar
   132     7     6    1
   133     7     8    2
   134    76    73    1
   135    55    54   ar
   136    73    74    1
   137     5     6    1
   138     5     2    1
   139   150   149   ar
   140    54    53    1
   141     3     2    1
   142     2     1    1
   143    60    59    2
   144    74    75    2
   145    58    61    1
   146    58    59    1
   147    58    57    1
   148    37    35   ar
   149    37    38   ar
   150    61    62    1
   151    39    38    1
   152    53    52    1
   153    35    33   ar
   154    38    36   ar
   155    52    49    1
   156    47    45   am
   157    27    26   ar
   158    27    25   ar
   159    26    24   ar
   160    33    32    1
   161    33    34   ar
   162    36    34   ar
   163    46    45    2
   164    45    44    1
   165    25    23   ar
   166    32    29    1
   167    49    50    1
   168    49    48    1
   169    51    50    2
   170    24    23   ar
   171    43    42    2
   172    48    42   am
   173    23    22    1
   174    42    41    1
   175    44    41    1
   176    31    30    2
   177    29    30    1
   178    29    28    1
   179    41    40    1
   180    21    20    2
   181    28    20   am
   182    20    19    1
   183    22    19    1
   184    19    18    1
