@<TRIPOS>MOLECULE
tmp/4ipwA01.pdb
 179 172 0 0 0
SMALL
GASTEIGER

@<TRIPOS>ATOM
      1  N         -0.9960   17.6540    3.6240 N.3    60  MET60      -0.1245
      2  CA         0.1840   17.1650    2.9230 C.3    60  MET60       0.1570
      3  C          1.1130   16.4790    3.9480 C.2    60  MET60       0.2261
      4  O          1.5900   15.3710    3.7270 O.2    60  MET60      -0.2867
      5  CB         0.9380   18.3080    2.2070 C.3    60  MET60       0.0387
      6  CG         2.3780   17.9370    1.6960 C.3    60  MET60       0.0595
      7  SD         2.5010   16.4310    0.5870 S.3    60  MET60      -0.1393
      8  CE         2.0270   17.1960   -0.9940 C.3    60  MET60       0.0692
      9  N          8.5600    7.7940   -0.4360 N.3    74  LEU74      -0.1231
     10  CA         9.2730    9.0610   -0.2350 C.3    74  LEU74       0.1693
     11  C         10.6450    9.0130   -0.8410 C.2    74  LEU74       0.2593
     12  O         11.3360    8.0010   -0.7300 O.2    74  LEU74      -0.2718
     13  CB         9.4490    9.3210    1.2720 C.3    74  LEU74       0.0284
     14  CG         8.1810    9.6380    2.0250 C.3    74  LEU74       0.0019
     15  CD1        8.4930    9.8520    3.5220 C.3    74  LEU74       0.0001
     16  CD2        7.5080   10.8750    1.4460 C.3    74  LEU74       0.0001
     17  N         11.0790   10.1430   -1.4380 N.am   75  THR75      -0.1939
     18  CA        12.4620   10.3090   -1.9160 C.3    75  THR75       0.2028
     19  C         13.2040   11.3640   -1.1070 C.2    75  THR75       0.2642
     20  O         14.3810   11.6530   -1.3680 O.2    75  THR75      -0.2714
     21  CB        12.5250   10.6820   -3.3910 C.3    75  THR75       0.1808
     22  OG1       11.9290   11.9620   -3.5430 O.3    75  THR75      -0.2208
     23  CG2       11.8010    9.6700   -4.2620 C.3    75  THR75       0.0379
     24  N         12.5240   11.9140   -0.0720 N.am   76  VAL76      -0.1977
     25  CA        13.1130   12.9010    0.8340 C.3    76  VAL76       0.1596
     26  C         12.8740   12.4030    2.2600 C.2    76  VAL76       0.2287
     27  O         11.9770   11.5730    2.4860 O.2    76  VAL76      -0.2864
     28  CB        12.4630   14.3100    0.6250 C.3    76  VAL76       0.0276
     29  CG1       12.7530   14.8510   -0.7860 C.3    76  VAL76       0.0022
     30  CG2       10.9520   14.3180    0.9040 C.3    76  VAL76       0.0022
     31  N         10.7220   16.6330    5.5360 N.3    80  VAL80      -0.1231
     32  CA        10.7370   17.5170    4.3680 C.3    80  VAL80       0.1692
     33  C          9.3700   17.5200    3.6700 C.2    80  VAL80       0.2591
     34  O          9.0480   18.4430    2.9260 O.2    80  VAL80      -0.2718
     35  CB        11.9250   17.1220    3.4470 C.3    80  VAL80       0.0266
     36  CG1       12.0180   17.9980    2.1900 C.3    80  VAL80       0.0020
     37  CG2       13.2350   17.2380    4.2390 C.3    80  VAL80       0.0020
     38  N          8.5150   16.5320    3.9940 N.am   81  VAL81      -0.1980
     39  CA         7.1740   16.5680    3.4380 C.3    81  VAL81       0.1595
     40  C          6.4230   17.7730    4.0460 C.2    81  VAL81       0.2287
     41  O          5.4760   18.2470    3.4490 O.2    81  VAL81      -0.2864
     42  CB         6.4510   15.2320    3.6920 C.3    81  VAL81       0.0276
     43  CG1        5.0130   15.2830    3.1880 C.3    81  VAL81       0.0022
     44  CG2        7.2080   14.1030    3.0070 C.3    81  VAL81       0.0022
     45  N          7.9800   20.7240    4.3530 N.3    83  ASN83      -0.1225
     46  CA         8.9550   21.7740    4.0760 C.3    83  ASN83       0.1785
     47  C          8.4750   23.1870    4.2590 C.2    83  ASN83       0.2597
     48  O          9.0780   23.9620    5.0140 O.2    83  ASN83      -0.2718
     49  CB         9.5410   21.5990    2.6550 C.3    83  ASN83       0.1169
     50  CG        10.8370   22.3480    2.4220 C.2    83  ASN83       0.2627
     51  OD1       11.7080   22.4120    3.2950 O.2    83  ASN83      -0.2716
     52  ND2       11.0400   22.8360    1.2110 N.am   83  ASN83      -0.0877
     53  N          7.3860   23.5750    3.5780 N.am   84  MET84      -0.1979
     54  CA         6.9570   24.9580    3.7060 C.3    84  MET84       0.1605
     55  C          6.4950   25.3020    5.1050 C.2    84  MET84       0.2287
     56  O          6.7500   26.4260    5.5760 O.2    84  MET84      -0.2864
     57  CB         5.9720   25.3360    2.6180 C.3    84  MET84       0.0413
     58  CG         6.6510   25.6730    1.3190 C.3    84  MET84       0.0598
     59  SD         7.4720   27.2790    1.1370 S.3    84  MET84      -0.1393
     60  CE         6.8260   28.2200    2.5860 C.3    84  MET84       0.0692
     61  N         18.1350   14.9970  -10.2710 N.3   162  LEU162     -0.1245
     62  CA        16.7010   15.1120  -10.4530 C.3   162  LEU162      0.1561
     63  C         15.9650   13.9720  -11.1430 C.2   162  LEU162      0.2260
     64  O         14.7870   13.7430  -10.8250 O.2   162  LEU162     -0.2867
     65  CB        16.3170   16.4820  -11.0500 C.3   162  LEU162      0.0270
     66  CG        16.9000   17.7230  -10.2970 C.3   162  LEU162      0.0019
     67  CD1       16.3780   19.0010  -10.9530 C.3   162  LEU162      0.0001
     68  CD2       16.5450   17.7120   -8.8160 C.3   162  LEU162      0.0001
     69  N         15.4990   11.9970   -7.9860 N.3   165  ALA165     -0.1231
     70  CA        14.8830   12.6800   -6.8390 C.3   165  ALA165      0.1694
     71  C         13.3800   12.8630   -7.0620 C.2   165  ALA165      0.2592
     72  O         12.6030   12.8490   -6.1000 O.2   165  ALA165     -0.2718
     73  CB        15.5510   14.0380   -6.6340 C.3   165  ALA165      0.0304
     74  N         12.9670   13.0540   -8.3480 N.am  166  PHE166     -0.1976
     75  CA        11.5660   13.2300   -8.6760 C.3   166  PHE166      0.1639
     76  C         10.9170   11.9710   -9.2590 C.2   166  PHE166      0.2290
     77  O          9.8490   12.0420   -9.8710 O.2   166  PHE166     -0.2864
     78  CB        11.3460   14.4960   -9.5330 C.3   166  PHE166      0.0560
     79  CG        11.4170   15.7280   -8.6550 C.ar  166  PHE166     -0.0200
     80  CD1       12.6340   16.3540   -8.4060 C.ar  166  PHE166     -0.0042
     81  CD2       10.2850   16.1890   -7.9860 C.ar  166  PHE166     -0.0042
     82  CE1       12.7070   17.4540   -7.5170 C.ar  166  PHE166     -0.0003
     83  CE2       10.3610   17.2850   -7.1020 C.ar  166  PHE166     -0.0003
     84  CZ        11.5660   17.8990   -6.8870 C.ar  166  PHE166     -0.0000
     85  N         20.6040   12.8810   -2.1230 N.3   180  TRP180     -0.1241
     86  CA        20.0660   13.8600   -1.1430 C.3   180  TRP180      0.1605
     87  C         21.1490   14.2500   -0.1520 C.2   180  TRP180      0.2264
     88  O         21.4210   15.4440    0.0790 O.2   180  TRP180     -0.2867
     89  CB        18.8630   13.2500   -0.4000 C.3   180  TRP180      0.0550
     90  CG        18.3180   14.1510    0.6670 C.ar  180  TRP180      0.0003
     91  CD1       18.6110   14.1120    2.0000 C.ar  180  TRP180      0.0946
     92  CD2       17.4120   15.2430    0.4840 C.ar  180  TRP180      0.0152
     93  NE1       17.9700   15.1400    2.6580 N.ar  180  TRP180     -0.2442
     94  CE2       17.2230   15.8500    1.7520 C.ar  180  TRP180      0.0810
     95  CE3       16.7320   15.7730   -0.6270 C.ar  180  TRP180      0.0012
     96  CZ2       16.4040   16.9760    1.9360 C.ar  180  TRP180      0.0191
     97  CZ3       15.9100   16.8750   -0.4370 C.ar  180  TRP180      0.0001
     98  CH2       15.7550   17.4660    0.8330 C.ar  180  TRP180      0.0015
     99  N         18.4020   22.8260   -1.2200 N.3   226  VAL226     -0.1231
    100  CA        18.1970   21.6090   -2.0500 C.3   226  VAL226      0.1692
    101  C         16.7920   21.5560   -2.6290 C.2   226  VAL226      0.2593
    102  O         16.6010   21.2310   -3.8120 O.2   226  VAL226     -0.2718
    103  CB        18.5460   20.2940   -1.2730 C.3   226  VAL226      0.0266
    104  CG1       18.2600   19.0300   -2.1260 C.3   226  VAL226      0.0020
    105  CG2       19.9920   20.2980   -0.8260 C.3   226  VAL226      0.0020
    106  N         15.7960   21.8390   -1.7740 N.am  227  THR227     -0.1939
    107  CA        14.3920   21.7090   -2.2000 C.3   227  THR227      0.2028
    108  C         13.9640   22.7870   -3.1700 C.2   227  THR227      0.2642
    109  O         13.2110   22.4780   -4.1080 O.2   227  THR227     -0.2714
    110  CB        13.4580   21.6580   -0.9970 C.3   227  THR227      0.1808
    111  OG1       13.5970   22.8700   -0.2140 O.3   227  THR227     -0.2208
    112  CG2       13.6870   20.4270   -0.1310 C.3   227  THR227      0.0379
    113  N         14.4000   24.0370   -2.9720 N.am  228  PHE228     -0.1973
    114  CA        13.9660   25.0660   -3.9320 C.3   228  PHE228      0.1639
    115  C         14.6980   24.8980   -5.2600 C.2   228  PHE228      0.2290
    116  O         14.0920   25.1040   -6.3210 O.2   228  PHE228     -0.2864
    117  CB        14.1070   26.4930   -3.3230 C.3   228  PHE228      0.0560
    118  CG        12.8920   26.8300   -2.4870 C.ar  228  PHE228     -0.0200
    119  CD1       12.6110   26.1260   -1.3130 C.ar  228  PHE228     -0.0042
    120  CD2       11.9750   27.7880   -2.9190 C.ar  228  PHE228     -0.0042
    121  CE1       11.4370   26.3850   -0.5780 C.ar  228  PHE228     -0.0003
    122  CE2       10.7940   28.0270   -2.1920 C.ar  228  PHE228     -0.0003
    123  CZ        10.5620   27.3590   -1.0080 C.ar  228  PHE228     -0.0000
    124  N         15.5730   21.9440   -6.4850 N.3   230  GLY230     -0.1210
    125  CA        14.9980   20.7410   -7.1060 C.3   230  GLY230      0.1956
    126  C         13.5860   20.9770   -7.6050 C.2   230  GLY230      0.2611
    127  O         13.2780   20.7160   -8.7870 O.2   230  GLY230     -0.2717
    128  N         12.6780   21.4280   -6.7250 N.am  231  ALA231     -0.1979
    129  CA        11.3000   21.6450   -7.1680 C.3   231  ALA231      0.1597
    130  C         11.2520   22.7220   -8.2610 C.2   231  ALA231      0.2287
    131  O         10.5400   22.5610   -9.2530 O.2   231  ALA231     -0.2864
    132  CB        10.4130   22.0600   -5.9840 C.3   231  ALA231      0.0319
    133  N         10.2400   21.7120  -12.1000 N.3   235  SER235     -0.1217
    134  CA         8.9470   22.2100  -12.4980 C.3   235  SER235      0.1889
    135  C          9.0200   23.1480  -13.6850 C.2   235  SER235      0.2288
    136  O          8.2200   22.9830  -14.6200 O.2   235  SER235     -0.2866
    137  CB         8.2340   22.8770  -11.3330 C.3   235  SER235      0.2089
    138  OG         8.0830   21.9790  -10.2390 O.3   235  SER235     -0.2183
    139  N          2.3040   17.5040  -14.4900 N.3   278  PHE278     -0.1241
    140  CA         2.1960   16.7100  -13.2410 C.3   278  PHE278      0.1605
    141  C          1.6690   15.3220  -13.5630 C.2   278  PHE278      0.2264
    142  O          0.5430   15.1580  -14.0600 O.2   278  PHE278     -0.2867
    143  CB         1.3400   17.4170  -12.1770 C.3   278  PHE278      0.0534
    144  CG         2.1380   18.4190  -11.3730 C.ar  278  PHE278     -0.0203
    145  CD1        2.6660   19.5570  -11.9770 C.ar  278  PHE278     -0.0042
    146  CD2        2.3520   18.2320  -10.0080 C.ar  278  PHE278     -0.0042
    147  CE1        3.3930   20.4910  -11.2240 C.ar  278  PHE278     -0.0003
    148  CE2        3.1280   19.1530   -9.2720 C.ar  278  PHE278     -0.0003
    149  CZ         3.6300   20.2680   -9.8910 C.ar  278  PHE278     -0.0000
    150  N         -0.9040   25.2880    0.0830 N.3   341  HIS341     -0.1241
    151  CA         0.3090   24.8490   -0.6050 C.3   341  HIS341      0.1621
    152  C          0.4880   25.4590   -1.9900 C.2   341  HIS341      0.2264
    153  O          1.3210   24.9940   -2.7680 O.2   341  HIS341     -0.2867
    154  CB         0.3430   23.3130   -0.6780 C.3   341  HIS341      0.0745
    155  CG         0.4130   22.6640    0.6720 C.ar  341  HIS341      0.0817
    156  ND1        1.6230   22.4470    1.3040 N.ar  341  HIS341     -0.2268
    157  CD2       -0.5910   22.2350    1.4830 C.ar  341  HIS341      0.1154
    158  CE1        1.3210   21.9030    2.4820 C.ar  341  HIS341      0.1986
    159  NE2        0.0100   21.7230    2.6190 N.ar  341  HIS341     -0.2212
    160  N          7.5150   11.9710  -11.3380 N.3   383  GLN383     -0.1231
    161  CA         6.5420   12.9340  -10.8160 C.3   383  GLN383      0.1698
    162  C          6.1420   13.9510  -11.8590 C.2   383  GLN383      0.2592
    163  O          5.1850   14.7010  -11.6430 O.2   383  GLN383     -0.2718
    164  CB         7.0460   13.6250   -9.5560 C.3   383  GLN383      0.0381
    165  CG         7.1370   12.6500   -8.3730 C.3   383  GLN383      0.0905
    166  CD         7.8070   13.2330   -7.1500 C.2   383  GLN383      0.2608
    167  OE1        8.6560   12.5610   -6.4800 O.2   383  GLN383     -0.2717
    168  NE2        7.4700   14.4520   -6.8300 N.am  383  GLN383     -0.0878
    169  N          6.8570   13.9720  -12.9960 N.am  384  ARG384     -0.1980
    170  CA         6.4960   14.8180  -14.1230 C.3   384  ARG384      0.1597
    171  C          6.3670   13.9680  -15.3670 C.2   384  ARG384      0.2287
    172  O          6.9730   12.8950  -15.4630 O.2   384  ARG384     -0.2864
    173  CB         7.5680   15.8990  -14.3870 C.3   384  ARG384      0.0334
    174  CG         7.7280   16.9420  -13.2480 C.3   384  ARG384      0.0492
    175  CD         6.4400   17.7880  -13.0630 C.3   384  ARG384      0.2205
    176  NE         6.6340   18.7780  -11.9970 N.pl3 384  ARG384     -0.0865
    177  CZ         6.5280   18.4880  -10.6970 C.cat 384  ARG384      0.5346
    178  NH1        6.7910   19.4210   -9.7700 N.pl3 384  ARG384      0.1354
    179  NH2        6.1350   17.2720  -10.3090 N.pl3 384  ARG384      0.1354
@<TRIPOS>BOND
     1   172   171    2
     2   171   170    1
     3   136   135    2
     4   139   140    1
     5   173   170    1
     6   173   174    1
     7   170   169    1
     8   142   141    2
     9   135   134    1
    10   141   140    1
    11   174   175    1
    12   140   143    1
    13   175   176    1
    14   169   162   am
    15   134   133    1
    16   134   137    1
    17   143   144    1
    18   176   177    2
    19   145   144   ar
    20   145   147   ar
    21   162   163    2
    22   162   161    1
    23   144   146   ar
    24   160   161    1
    25   137   138    1
    26   147   149   ar
    27    63    64    2
    28    63    62    1
    29    65    62    1
    30    65    66    1
    31    67    66    1
    32   161   164    1
    33   177   179    1
    34   177   178    1
    35    62    61    1
    36    66    68    1
    37   146   148   ar
    38   149   148   ar
    39    77    76    2
    40   164   165    1
    41    78    75    1
    42    78    79    1
    43    76    75    1
    44   131   130    2
    45   127   126    2
    46    75    74    1
    47    79    80   ar
    48    79    81   ar
    49    80    82   ar
    50   165   166    1
    51    74    71   am
    52   130   129    1
    53    81    83   ar
    54    69    70    1
    55   126   125    1
    56   126   128   am
    57    82    84   ar
    58   129   128    1
    59   129   132    1
    60   166   168   am
    61   166   167    2
    62   125   124    1
    63    83    84   ar
    64    71    70    1
    65    71    72    2
    66    70    73    1
    67   116   115    2
    68   115   114    1
    69    23    21    1
    70   109   108    2
    71   114   117    1
    72   114   113    1
    73   102   101    2
    74    22    21    1
    75    21    18    1
    76   117   118    1
    77   108   113   am
    78   108   107    1
    79   120   118   ar
    80   120   122   ar
    81   153   152    2
    82   101   100    1
    83   101   106   am
    84   118   119   ar
    85   107   106    1
    86   107   110    1
    87   122   123   ar
    88   104   103    1
    89    85    86    1
    90   100   103    1
    91   100    99    1
    92   152   151    1
    93    18    17    1
    94    18    19    1
    95    17    11   am
    96    20    19    2
    97   119   121   ar
    98   103   105    1
    99    86    89    1
   100    86    87    1
   101    19    24   am
   102   123   121   ar
   103   110   111    1
   104   110   112    1
   105     8     7    1
   106    11    12    2
   107    11    10    1
   108    29    28    1
   109   154   151    1
   110   154   155    1
   111    95    97   ar
   112    95    92   ar
   113   151   150    1
   114    97    98   ar
   115     9    10    1
   116    89    90    1
   117    10    13    1
   118    87    88    2
   119    24    25    1
   120    92    90   ar
   121    92    94   ar
   122     7     6    1
   123    28    25    1
   124    28    30    1
   125    90    91   ar
   126   155   156   ar
   127   155   157   ar
   128    98    96   ar
   129    25    26    1
   130    59    58    1
   131    59    60    1
   132    52    50   am
   133    13    14    1
   134   156   158   ar
   135    58    57    1
   136    16    14    1
   137   157   159   ar
   138     6     5    1
   139    94    96   ar
   140    94    93   ar
   141    91    93   ar
   142    14    15    1
   143    36    35    1
   144     5     2    1
   145    26    27    2
   146    50    49    1
   147    50    51    2
   148   158   159   ar
   149    57    54    1
   150    49    46    1
   151     2     1    1
   152     2     3    1
   153    34    33    2
   154    44    42    1
   155    43    42    1
   156    39    42    1
   157    39    38    1
   158    39    40    1
   159    35    37    1
   160    35    32    1
   161    41    40    2
   162    53    54    1
   163    53    47   am
   164    33    38   am
   165    33    32    1
   166    54    55    1
   167     4     3    2
   168    46    47    1
   169    46    45    1
   170    47    48    2
   171    32    31    1
   172    55    56    2
