@<TRIPOS>MOLECULE
tmp/4ipzA00.pdb
 170 164 0 0 0
SMALL
GASTEIGER

@<TRIPOS>ATOM
      1  N          8.0350    8.8460   96.4580 N.3    53  HIS53      -0.1226
      2  CA         6.9970    7.8150   96.5450 C.3    53  HIS53       0.1752
      3  C          7.4050    6.5050   95.8780 C.2    53  HIS53       0.2595
      4  O          6.8240    5.4560   96.1570 O.2    53  HIS53      -0.2718
      5  CB         5.6720    8.3200   95.9470 C.3    53  HIS53       0.0759
      6  CG         5.7370    8.6160   94.4810 C.ar   53  HIS53       0.0818
      7  ND1        6.2000    9.8160   93.9840 N.ar   53  HIS53      -0.2268
      8  CD2        5.3930    7.8710   93.4040 C.ar   53  HIS53       0.1154
      9  CE1        6.1450    9.7950   92.6640 C.ar   53  HIS53       0.1986
     10  NE2        5.6570    8.6260   92.2870 N.ar   53  HIS53      -0.2212
     11  N          8.4050    6.5690   95.0030 N.am   54  ARG54      -0.1980
     12  CA         8.8360    5.4080   94.2450 C.3    54  ARG54       0.1597
     13  C         10.3600    5.3760   94.1650 C.2    54  ARG54       0.2287
     14  O         10.9750    6.2430   93.5410 O.2    54  ARG54      -0.2864
     15  CB         8.2060    5.4680   92.8510 C.3    54  ARG54       0.0334
     16  CG         8.2090    4.1600   92.0920 C.3    54  ARG54       0.0492
     17  CD         7.1970    4.1930   90.9570 C.3    54  ARG54       0.2205
     18  NE         7.5000    3.1950   89.9360 N.pl3  54  ARG54      -0.0865
     19  CZ         8.3220    3.3810   88.9040 C.cat  54  ARG54       0.5346
     20  NH1        8.9480    4.5410   88.7200 N.pl3  54  ARG54       0.1354
     21  NH2        8.5230    2.3930   88.0420 N.pl3  54  ARG54       0.1354
     22  N         13.4640    2.5720   93.3370 N.3    56  ILE56      -0.1245
     23  CA        13.8410    1.2450   92.8600 C.3    56  ILE56       0.1561
     24  C         15.3630    1.1450   92.8620 C.2    56  ILE56       0.2260
     25  O         16.0270    1.8250   92.0750 O.2    56  ILE56      -0.2867
     26  CB        13.2840    0.9630   91.4490 C.3    56  ILE56       0.0252
     27  CG1       11.7510    1.0210   91.4770 C.3    56  ILE56       0.0019
     28  CG2       13.7620   -0.4010   90.9530 C.3    56  ILE56       0.0019
     29  CD1       11.0800    0.9170   90.1220 C.3    56  ILE56       0.0001
     30  N         19.1180    0.3880   92.1740 N.3    58  GLY58      -0.1210
     31  CA        19.8050    0.1470   90.9140 C.3    58  GLY58       0.1956
     32  C         19.2210    0.9080   89.7370 C.2    58  GLY58       0.2612
     33  O         19.7100    0.7700   88.6200 O.2    58  GLY58      -0.2717
     34  N         18.1940    1.7230   89.9820 N.am   59  PHE59      -0.1962
     35  CA        17.4800    2.4250   88.9120 C.3    59  PHE59       0.1771
     36  C         17.3810    3.9240   89.2100 C.2    59  PHE59       0.2619
     37  O         18.1180    4.7150   88.6260 O.2    59  PHE59      -0.2715
     38  CB        16.1030    1.7740   88.6880 C.3    59  PHE59       0.0574
     39  CG        15.2180    2.4850   87.6890 C.ar   59  PHE59      -0.0200
     40  CD1       15.7440    3.1590   86.5930 C.ar   59  PHE59      -0.0042
     41  CD2       13.8360    2.4370   87.8330 C.ar   59  PHE59      -0.0042
     42  CE1       14.9110    3.7970   85.6870 C.ar   59  PHE59      -0.0003
     43  CE2       13.0000    3.0720   86.9290 C.ar   59  PHE59      -0.0003
     44  CZ        13.5410    3.7510   85.8540 C.ar   59  PHE59      -0.0000
     45  N         16.4840    4.3170   90.1130 N.am   60  MET60      -0.1977
     46  CA        16.2800    5.7400   90.3970 C.3    60  MET60       0.1605
     47  C         15.4100    5.9820   91.6260 C.2    60  MET60       0.2287
     48  O         14.7630    5.0660   92.1370 O.2    60  MET60      -0.2864
     49  CB        15.6520    6.4490   89.1790 C.3    60  MET60       0.0413
     50  CG        14.3090    5.8820   88.7410 C.3    60  MET60       0.0598
     51  SD        12.9020    6.5230   89.6690 S.3    60  MET60      -0.1393
     52  CE        12.0320    5.0110   90.0680 C.3    60  MET60       0.0692
     53  N         12.2440    8.5120   92.5930 N.3    62  GLN62      -0.1245
     54  CA        11.2260    9.3580   91.9600 C.3    62  GLN62       0.1566
     55  C         10.4440   10.1380   93.0080 C.2    62  GLN62       0.2260
     56  O          9.9690    9.5620   93.9900 O.2    62  GLN62      -0.2867
     57  CB        10.2510    8.4960   91.1530 C.3    62  GLN62       0.0367
     58  CG         9.1150    9.2660   90.4940 C.3    62  GLN62       0.0905
     59  CD         8.2010    8.3790   89.6710 C.2    62  GLN62       0.2608
     60  OE1        8.4380    7.1770   89.5360 O.2    62  GLN62      -0.2717
     61  NE2        7.1570    8.9730   89.1010 N.am   62  GLN62      -0.0878
     62  N          9.9770   13.0330   85.1640 N.3    99  ALA99      -0.1231
     63  CA         8.9660   11.9960   84.9860 C.3    99  ALA99       0.1694
     64  C          7.8570   12.5790   84.1180 C.2    99  ALA99       0.2592
     65  O          7.6870   13.7970   84.0530 O.2    99  ALA99      -0.2718
     66  CB         8.4090   11.5460   86.3280 C.3    99  ALA99       0.0304
     67  N          7.1030   11.7210   83.4410 N.am  100  ASN100     -0.1960
     68  CA         5.9920   12.2020   82.6190 C.3   100  ASN100      0.1819
     69  C          4.9650   11.1120   82.3430 C.2   100  ASN100      0.2621
     70  O          5.1150    9.9800   82.8010 O.2   100  ASN100     -0.2715
     71  CB         6.5210   12.8200   81.3110 C.3   100  ASN100      0.1195
     72  CG         7.2480   11.8180   80.4310 C.2   100  ASN100      0.2630
     73  OD1        6.7830   10.6940   80.2290 O.2   100  ASN100     -0.2716
     74  ND2        8.3970   12.2250   79.8910 N.am  100  ASN100     -0.0877
     75  N          3.9150   11.4740   81.6110 N.am  101  ALA101     -0.1963
     76  CA         2.8960   10.5220   81.1770 C.3   101  ALA101      0.1728
     77  C          2.8720   10.4620   79.6510 C.2   101  ALA101      0.2616
     78  O          1.8080   10.3390   79.0390 O.2   101  ALA101     -0.2715
     79  CB         1.5370   10.9290   81.7250 C.3   101  ALA101      0.0334
     80  N          4.0580   10.5300   79.0460 N.am  102  GLY102     -0.1955
     81  CA         4.2000   10.5900   77.5920 C.3   102  GLY102      0.1869
     82  C          4.5760   11.9860   77.1230 C.2   102  GLY102      0.2309
     83  O          4.9290   12.8400   77.9370 O.2   102  GLY102     -0.2863
     84  N          4.0550   16.2810   78.7940 N.3   105  THR105     -0.1218
     85  CA         3.2530   16.1840   80.0130 C.3   105  THR105      0.1862
     86  C          4.1100   16.4110   81.2590 C.2   105  THR105      0.2287
     87  O          3.8850   15.7900   82.2930 O.2   105  THR105     -0.2866
     88  CB         2.5500   14.8150   80.1190 C.3   105  THR105      0.1770
     89  OG1        3.5250   13.7700   80.0680 O.3   105  THR105     -0.2211
     90  CG2        1.5530   14.6260   78.9830 C.3   105  THR105      0.0375
     91  N          6.9080   16.1700   88.7690 N.3   109  GLN109     -0.1245
     92  CA         7.5920   14.9270   89.1240 C.3   109  GLN109      0.1566
     93  C          8.9080   14.7690   88.3680 C.2   109  GLN109      0.2260
     94  O          9.0160   15.1190   87.1880 O.2   109  GLN109     -0.2867
     95  CB         6.6920   13.7110   88.9070 C.3   109  GLN109      0.0367
     96  CG         5.5460   13.6270   89.9020 C.3   109  GLN109      0.0905
     97  CD         4.8110   12.3060   89.8260 C.2   109  GLN109      0.2608
     98  OE1        5.4160   11.2410   89.9360 O.2   109  GLN109     -0.2717
     99  NE2        3.5020   12.3680   89.6220 N.am  109  GLN109     -0.0878
    100  N         13.0000   12.4130   88.5610 N.3   111  PHE111     -0.1241
    101  CA        13.7570   11.3220   89.1550 C.3   111  PHE111      0.1605
    102  C         15.2590   11.5770   89.1930 C.2   111  PHE111      0.2264
    103  O         15.8040   12.3040   88.3640 O.2   111  PHE111     -0.2867
    104  CB        13.4420    9.9750   88.4870 C.3   111  PHE111      0.0534
    105  CG        13.7280    9.9150   87.0060 C.ar  111  PHE111     -0.0203
    106  CD1       12.8660   10.5050   86.0870 C.ar  111  PHE111     -0.0042
    107  CD2       14.8230    9.2020   86.5240 C.ar  111  PHE111     -0.0042
    108  CE1       13.1080   10.4180   84.7240 C.ar  111  PHE111     -0.0003
    109  CE2       15.0700    9.1160   85.1610 C.ar  111  PHE111     -0.0003
    110  CZ        14.2090    9.7200   84.2600 C.ar  111  PHE111     -0.0000
    111  N         17.8020    3.6640   78.2960 N.3   119  TRP119     -0.1227
    112  CA        16.5160    3.3010   77.6840 C.3   119  TRP119      0.1737
    113  C         15.4530    4.4080   77.7690 C.2   119  TRP119      0.2595
    114  O         14.4310    4.3330   77.0890 O.2   119  TRP119     -0.2718
    115  CB        15.9790    1.9880   78.2810 C.3   119  TRP119      0.0564
    116  CG        15.7400    2.0190   79.7670 C.ar  119  TRP119      0.0003
    117  CD1       14.5730    2.3310   80.4050 C.ar  119  TRP119      0.0946
    118  CD2       16.6890    1.7120   80.7970 C.ar  119  TRP119      0.0152
    119  NE1       14.7410    2.2450   81.7680 N.ar  119  TRP119     -0.2442
    120  CE2       16.0300    1.8670   82.0340 C.ar  119  TRP119      0.0810
    121  CE3       18.0370    1.3300   80.7940 C.ar  119  TRP119      0.0012
    122  CZ2       16.6720    1.6510   83.2560 C.ar  119  TRP119      0.0191
    123  CZ3       18.6700    1.1100   82.0050 C.ar  119  TRP119      0.0001
    124  CH2       17.9870    1.2750   83.2210 C.ar  119  TRP119      0.0015
    125  N         15.6960    5.4260   78.5960 N.am  120  LEU120     -0.1980
    126  CA        14.7800    6.5620   78.7240 C.3   120  LEU120      0.1596
    127  C         15.1750    7.7560   77.8460 C.2   120  LEU120      0.2287
    128  O         14.4560    8.7540   77.8040 O.2   120  LEU120     -0.2864
    129  CB        14.6850    6.9950   80.1920 C.3   120  LEU120      0.0297
    130  CG        14.2550    5.8990   81.1740 C.3   120  LEU120      0.0022
    131  CD1       14.2580    6.4140   82.6070 C.3   120  LEU120      0.0001
    132  CD2       12.8880    5.3510   80.7930 C.3   120  LEU120      0.0001
    133  N         12.3960   11.2920   78.1920 N.3   124  HIS124     -0.1241
    134  CA        12.3720   12.0990   79.4090 C.3   124  HIS124      0.1621
    135  C         13.4370   13.1810   79.3250 C.2   124  HIS124      0.2264
    136  O         14.5680   12.9170   78.9090 O.2   124  HIS124     -0.2867
    137  CB        12.5910   11.2030   80.6220 C.3   124  HIS124      0.0745
    138  CG        11.5100   10.1870   80.7980 C.ar  124  HIS124      0.0817
    139  ND1       10.4530   10.3670   81.6640 N.ar  124  HIS124     -0.2268
    140  CD2       11.2930    9.0030   80.1770 C.ar  124  HIS124      0.1154
    141  CE1        9.6410    9.3290   81.5810 C.ar  124  HIS124      0.1986
    142  NE2       10.1300    8.4850   80.6900 N.ar  124  HIS124     -0.2212
    143  N         11.8650   -3.4890   94.6560 N.3   146  ARG146     -0.1231
    144  CA        11.6570   -3.8110   93.2440 C.3   146  ARG146      0.1694
    145  C         10.4240   -3.1220   92.6560 C.2   146  ARG146      0.2592
    146  O         10.4770   -2.6260   91.5310 O.2   146  ARG146     -0.2718
    147  CB        11.5510   -5.3260   93.0470 C.3   146  ARG146      0.0321
    148  CG        12.6450   -6.0960   93.8040 C.3   146  ARG146      0.0489
    149  CD        14.0450   -5.6340   93.4850 C.3   146  ARG146      0.2205
    150  NE        14.3460   -5.7730   92.0680 N.pl3 146  ARG146     -0.0865
    151  CZ        14.9060   -4.7850   91.3450 C.cat 146  ARG146      0.5346
    152  NH1       15.2740   -3.6310   91.9040 N.pl3 146  ARG146      0.1354
    153  NH2       15.0210   -4.9810   90.0290 N.pl3 146  ARG146      0.1354
    154  N          9.3270   -3.0810   93.4140 N.am  147  ASN147     -0.1974
    155  CA         8.0820   -2.4600   92.9360 C.3   147  ASN147      0.1688
    156  C          7.9710   -0.9640   93.2570 C.2   147  ASN147      0.2292
    157  O          6.9800   -0.3260   92.9010 O.2   147  ASN147     -0.2864
    158  CB         6.8490   -3.2140   93.4630 C.3   147  ASN147      0.1181
    159  CG         6.5330   -2.9090   94.9200 C.2   147  ASN147      0.2629
    160  OD1        7.3470   -2.3430   95.6510 O.2   147  ASN147     -0.2716
    161  ND2        5.3350   -3.2970   95.3520 N.am  147  ASN147     -0.0877
    162  N          7.8560    0.6530   96.2850 N.3   149  LYS149     -0.1245
    163  CA         7.4020    1.0020   97.6290 C.3   149  LYS149      0.1561
    164  C          8.5960    1.0930   98.5710 C.2   149  LYS149      0.2260
    165  O          9.4880    0.2440   98.5380 O.2   149  LYS149     -0.2867
    166  CB         6.3940   -0.0230   98.1580 C.3   149  LYS149      0.0271
    167  CG         5.0650    0.0210   97.4310 C.3   149  LYS149      0.0035
    168  CD         4.5870    1.4690   97.2530 C.3   149  LYS149      0.0206
    169  CE         3.2440    1.5300   96.5230 C.3   149  LYS149      0.1093
    170  NZ         3.3380    1.1800   95.0690 N.3   149  LYS149     -0.1314
@<TRIPOS>BOND
     1   114   113    2
     2    82    81    1
     3    82    83    2
     4    81    80    1
     5   112   113    1
     6   112   115    1
     7   112   111    1
     8   113   125   am
     9   128   127    2
    10   127   126    1
    11   133   134    1
    12   115   116    1
    13   125   126    1
    14   126   129    1
    15    84    85    1
    16   136   135    2
    17    90    88    1
    18    78    77    2
    19    80    77   am
    20   135   134    1
    21   134   137    1
    22    77    76    1
    23   116   117   ar
    24   116   118   ar
    25    74    72   am
    26    85    88    1
    27    85    86    1
    28    89    88    1
    29   140   142   ar
    30   140   138   ar
    31   129   130    1
    32    73    72    2
    33   117   119   ar
    34    72    71    1
    35   137   138    1
    36   142   141   ar
    37   132   130    1
    38   121   118   ar
    39   121   123   ar
    40   118   120   ar
    41   138   139   ar
    42   130   131    1
    43    76    75    1
    44    76    79    1
    45    86    87    2
    46    71    68    1
    47   141   139   ar
    48    75    69   am
    49   119   120   ar
    50   123   124   ar
    51   120   122   ar
    52    69    68    1
    53    69    70    2
    54    68    67    1
    55   124   122   ar
    56    67    64   am
    57    65    64    2
    58    64    63    1
    59   110   108   ar
    60   110   109   ar
    61   108   106   ar
    62    63    62    1
    63    63    66    1
    64   109   107   ar
    65    42    44   ar
    66    42    40   ar
    67    44    43   ar
    68   106   105   ar
    69   107   105   ar
    70    40    39   ar
    71    43    41   ar
    72   105   104    1
    73    94    93    2
    74    39    41   ar
    75    39    38    1
    76    21    19    1
    77   103   102    2
    78    93    92    1
    79   104   101    1
    80   100   101    1
    81    33    32    2
    82    37    36    2
    83    38    35    1
    84    20    19    1
    85    50    49    1
    86    50    51    1
    87    91    92    1
    88    19    18    2
    89    95    92    1
    90    95    96    1
    91    35    36    1
    92    35    34    1
    93    61    59   am
    94   101   102    1
    95    49    46    1
    96    36    45   am
    97    60    59    2
    98    99    97   am
    99    51    52    1
   100    59    58    1
   101    32    34   am
   102    32    31    1
   103    97    96    1
   104    97    98    2
   105    18    17    1
   106   153   151    1
   107    45    46    1
   108    29    27    1
   109    46    47    1
   110    58    57    1
   111    31    30    1
   112    28    26    1
   113    17    16    1
   114    57    54    1
   115   151   152    1
   116   151   150    2
   117    26    27    1
   118    26    23    1
   119   146   145    2
   120    47    48    2
   121    54    53    1
   122    54    55    1
   123   150   149    1
   124    25    24    2
   125    16    15    1
   126    10     9   ar
   127    10     8   ar
   128   145   144    1
   129   145   154   am
   130     9     7   ar
   131    15    12    1
   132    23    24    1
   133    23    22    1
   134   157   156    2
   135   155   156    1
   136   155   154    1
   137   155   158    1
   138    55    56    2
   139   147   144    1
   140   147   148    1
   141   144   143    1
   142     8     6   ar
   143   158   159    1
   144   149   148    1
   145    14    13    2
   146     7     6   ar
   147    13    12    1
   148    12    11    1
   149     6     5    1
   150   159   161   am
   151   159   160    2
   152    11     3   am
   153   170   169    1
   154     3     4    2
   155     3     2    1
   156     5     2    1
   157   162   163    1
   158     1     2    1
   159   169   168    1
   160   168   167    1
   161   167   166    1
   162   163   166    1
   163   163   164    1
   164   165   164    2
