@<TRIPOS>MOLECULE
tmp/4iq6A00.pdb
 188 176 0 0 0
SMALL
GASTEIGER

@<TRIPOS>ATOM
      1  N         45.8820   -6.1050  -29.9380 N.3    26  ILE26      -0.1231
      2  CA        45.1390   -5.0290  -30.6050 C.3    26  ILE26       0.1692
      3  C         43.7910   -4.7040  -29.9570 C.2    26  ILE26       0.2593
      4  O         43.2040   -3.6530  -30.2290 O.2    26  ILE26      -0.2718
      5  CB        45.0450   -5.1640  -32.1520 C.3    26  ILE26       0.0266
      6  CG1       44.4650   -6.5180  -32.6050 C.3    26  ILE26       0.0019
      7  CG2       46.3850   -4.8430  -32.8140 C.3    26  ILE26       0.0020
      8  CD1       44.0280   -6.5800  -34.1020 C.3    26  ILE26       0.0001
      9  N         43.2920   -5.6320  -29.1640 N.am   27  GLY27      -0.1942
     10  CA        42.0210   -5.5090  -28.4810 C.3    27  GLY27       0.2014
     11  C         42.0250   -6.4240  -27.2880 C.2    27  GLY27       0.2639
     12  O         42.8160   -7.3720  -27.2330 O.2    27  GLY27      -0.2714
     13  N         41.1600   -6.1280  -26.3060 N.am   28  ASN28      -0.1958
     14  CA        41.0560   -6.9210  -25.0840 C.3    28  ASN28       0.1819
     15  C         39.6680   -6.8310  -24.4610 C.2    28  ASN28       0.2621
     16  O         39.5000   -6.1620  -23.4430 O.2    28  ASN28      -0.2715
     17  CB        42.1340   -6.5070  -24.0840 C.3    28  ASN28       0.1195
     18  CG        42.4830   -7.6150  -23.1480 C.2    28  ASN28       0.2630
     19  OD1       41.6380   -8.1200  -22.3830 O.2    28  ASN28      -0.2716
     20  ND2       43.7380   -8.0340  -23.2220 N.am   28  ASN28      -0.0877
     21  N         38.6940   -7.5090  -25.0660 N.am   29  GLY29      -0.1954
     22  CA        37.3200   -7.5050  -24.5760 C.3    29  GLY29       0.1869
     23  C         37.0320   -8.5220  -23.4840 C.2    29  GLY29       0.2309
     24  O         37.9570   -9.1500  -22.9500 O.2    29  GLY29      -0.2863
     25  N         35.2570  -11.3580  -23.9580 N.3    31  PHE31      -0.1241
     26  CA        35.4330  -12.5850  -24.7540 C.3    31  PHE31       0.1605
     27  C         36.8520  -13.1770  -24.6690 C.2    31  PHE31       0.2264
     28  O         37.0090  -14.3980  -24.7290 O.2    31  PHE31      -0.2867
     29  CB        35.1030  -12.3090  -26.2380 C.3    31  PHE31       0.0534
     30  CG        35.8460  -11.1440  -26.8710 C.ar   31  PHE31      -0.0203
     31  CD1       37.1860  -11.2590  -27.2300 C.ar   31  PHE31      -0.0042
     32  CD2       35.1900   -9.9580  -27.1660 C.ar   31  PHE31      -0.0042
     33  CE1       37.8770  -10.1750  -27.7840 C.ar   31  PHE31      -0.0003
     34  CE2       35.8750   -8.8830  -27.7540 C.ar   31  PHE31      -0.0003
     35  CZ        37.2130   -9.0010  -28.0630 C.ar   31  PHE31      -0.0000
     36  N         42.5270  -10.1880  -28.7490 N.3    34  VAL34      -0.1245
     37  CA        42.6580  -10.1030  -30.2000 C.3    34  VAL34       0.1561
     38  C         44.0700   -9.6120  -30.4980 C.2    34  VAL34       0.2260
     39  O         44.4810   -8.5620  -30.0050 O.2    34  VAL34      -0.2867
     40  CB        41.5630   -9.2710  -30.9080 C.3    34  VAL34       0.0252
     41  CG1       41.7830   -9.2480  -32.4160 C.3    34  VAL34       0.0019
     42  CG2       40.1790   -9.8100  -30.5880 C.3    34  VAL34       0.0019
     43  N         44.4110  -11.1160  -37.8510 N.3    47  ALA47      -0.1245
     44  CA        43.9380  -10.9130  -36.4920 C.3    47  ALA47       0.1562
     45  C         43.6500  -12.2800  -35.8800 C.2    47  ALA47       0.2260
     46  O         43.0330  -13.1260  -36.5310 O.2    47  ALA47      -0.2867
     47  CB        42.6910  -10.0570  -36.4880 C.3    47  ALA47       0.0290
     48  N         41.8390  -14.0900  -32.6830 N.3    49  LYS49      -0.1245
     49  CA        40.9360  -13.9620  -31.5410 C.3    49  LYS49       0.1561
     50  C         41.1190  -15.2010  -30.6360 C.2    49  LYS49       0.2260
     51  O         40.6240  -16.2810  -30.9620 O.2    49  LYS49      -0.2867
     52  CB        39.4720  -13.8100  -32.0170 C.3    49  LYS49       0.0271
     53  CG        38.4580  -13.5690  -30.8990 C.3    49  LYS49       0.0035
     54  CD        37.0420  -13.6960  -31.4120 C.3    49  LYS49       0.0206
     55  CE        36.1030  -12.7640  -30.7030 C.3    49  LYS49       0.1093
     56  NZ        34.7750  -12.7190  -31.3640 N.3    49  LYS49      -0.1314
     57  N         30.4970  -19.8290  -32.0840 N.3    61  GLU61      -0.1245
     58  CA        31.0060  -18.7860  -32.9680 C.3    61  GLU61       0.1567
     59  C         31.7890  -19.4920  -34.0620 C.2    61  GLU61       0.2260
     60  O         31.5440  -19.2250  -35.2410 O.2    61  GLU61      -0.2867
     61  CB        31.8580  -17.7470  -32.2050 C.3    61  GLU61       0.0388
     62  CG        32.3810  -16.6430  -33.1060 C.3    61  GLU61       0.1160
     63  CD        33.2980  -15.6100  -32.4950 C.2    61  GLU61       0.3649
     64  OE1       33.8660  -15.8900  -31.4150 O.co2  61  GLU61      -0.2457
     65  OE2       33.4870  -14.5400  -33.1240 O.co2  61  GLU61      -0.2457
     66  N         31.0240  -19.3360  -37.9310 N.3    65  MET65      -0.1245
     67  CA        32.0720  -18.8220  -38.8110 C.3    65  MET65       0.1570
     68  C         32.2990  -19.7360  -39.9840 C.2    65  MET65       0.2261
     69  O         32.1990  -19.2970  -41.1330 O.2    65  MET65      -0.2867
     70  CB        33.4030  -18.6320  -38.0590 C.3    65  MET65       0.0387
     71  CG        33.3950  -17.5280  -37.0450 C.3    65  MET65       0.0595
     72  SD        33.3150  -15.9250  -37.8210 S.3    65  MET65      -0.1393
     73  CE        34.0670  -14.9060  -36.4840 C.3    65  MET65       0.0692
     74  N         34.1140  -10.8800  -42.2590 N.3    74  VAL74      -0.1245
     75  CA        35.5140  -11.3350  -42.0560 C.3    74  VAL74       0.1561
     76  C         35.6990  -12.8130  -42.3810 C.2    74  VAL74       0.2260
     77  O         34.8240  -13.6260  -42.0390 O.2    74  VAL74      -0.2867
     78  CB        36.0960  -11.0710  -40.6380 C.3    74  VAL74       0.0252
     79  CG1       36.7010   -9.6870  -40.5100 C.3    74  VAL74       0.0019
     80  CG2       35.0770  -11.3610  -39.5440 C.3    74  VAL74       0.0019
     81  N         41.6950  -14.7040  -38.3810 N.3    88  LEU88      -0.1231
     82  CA        40.7950  -13.9450  -39.2470 C.3    88  LEU88       0.1693
     83  C         41.5850  -12.9160  -40.0220 C.2    88  LEU88       0.2592
     84  O         42.6960  -12.5320  -39.6130 O.2    88  LEU88      -0.2718
     85  CB        39.7690  -13.2040  -38.3920 C.3    88  LEU88       0.0284
     86  CG        38.9120  -14.0430  -37.4920 C.3    88  LEU88       0.0019
     87  CD1       38.9770  -13.5420  -36.0760 C.3    88  LEU88       0.0001
     88  CD2       37.4960  -14.0230  -37.9690 C.3    88  LEU88       0.0001
     89  N         40.9800  -12.4140  -41.1120 N.am   89  ASP89      -0.1960
     90  CA        41.5610  -11.3590  -41.9450 C.3    89  ASP89       0.1840
     91  C         41.7910  -10.0920  -41.1160 C.2    89  ASP89       0.2622
     92  O         40.9340   -9.7550  -40.2890 O.2    89  ASP89      -0.2715
     93  CB        40.5680  -10.9740  -43.0540 C.3    89  ASP89       0.1450
     94  CG        40.3780  -11.9370  -44.2010 C.2    89  ASP89       0.3671
     95  OD1       41.3860  -12.5930  -44.6090 O.co2  89  ASP89      -0.2456
     96  OD2       39.2670  -11.9310  -44.7930 O.co2  89  ASP89      -0.2456
     97  N         42.8980   -9.3650  -41.3550 N.am   90  TYR90      -0.1960
     98  CA        43.1110   -8.0980  -40.6470 C.3    90  TYR90       0.1771
     99  C         42.4480   -6.9950  -41.4600 C.2    90  TYR90       0.2619
    100  O         42.6040   -6.9600  -42.6900 O.2    90  TYR90      -0.2715
    101  CB        44.6020   -7.7840  -40.4040 C.3    90  TYR90       0.0574
    102  CG        44.8110   -6.4770  -39.6800 C.ar   90  TYR90      -0.0198
    103  CD1       44.7030   -6.4010  -38.2940 C.ar   90  TYR90      -0.0009
    104  CD2       45.0510   -5.2970  -40.3850 C.ar   90  TYR90      -0.0009
    105  CE1       44.8480   -5.1860  -37.6250 C.ar   90  TYR90       0.0417
    106  CE2       45.1880   -4.0750  -39.7280 C.ar   90  TYR90       0.0417
    107  CZ        45.0890   -4.0270  -38.3470 C.ar   90  TYR90       0.1957
    108  OH        45.2190   -2.8320  -37.6870 O.3    90  TYR90      -0.2866
    109  N         41.6650   -6.1330  -40.7880 N.am   91  VAL91      -0.1964
    110  CA        40.9830   -5.0080  -41.4270 C.3    91  VAL91       0.1712
    111  C         41.3440   -3.7740  -40.6010 C.2    91  VAL91       0.2458
    112  O         41.1150   -3.7690  -39.3830 O.2    91  VAL91      -0.2730
    113  CB        39.4670   -5.2010  -41.6190 C.3    91  VAL91       0.0289
    114  CG1       38.8590   -4.0130  -42.3370 C.3    91  VAL91       0.0023
    115  CG2       39.1640   -6.4790  -42.3770 C.3    91  VAL91       0.0023
    116  N         41.9740   -2.7540  -41.2480 N.am   92  PRO92      -0.2727
    117  CA        42.5110   -1.6050  -40.4950 C.3    92  PRO92       0.1402
    118  C         41.5890   -0.7640  -39.6190 C.2    92  PRO92       0.2269
    119  O         41.8950   -0.5700  -38.4410 O.2    92  PRO92      -0.2865
    120  CB        43.2240   -0.7800  -41.5750 C.3    92  PRO92       0.0296
    121  CG        42.5980   -1.2200  -42.8590 C.3    92  PRO92       0.0237
    122  CD        42.3500   -2.6620  -42.6760 C.3    92  PRO92       0.0939
    123  N         37.4790    0.7860  -38.2990 N.3    94  THR94      -0.1218
    124  CA        36.1270    0.4580  -37.8650 C.3    94  THR94       0.1862
    125  C         35.2520    1.6910  -38.0460 C.2    94  THR94       0.2287
    126  O         35.7480    2.8160  -37.9320 O.2    94  THR94      -0.2866
    127  CB        36.0540   -0.0600  -36.4200 C.3    94  THR94       0.1770
    128  OG1       36.3140    0.9750  -35.4770 O.3    94  THR94      -0.2211
    129  CG2       36.9360   -1.2290  -36.1710 C.3    94  THR94       0.0375
    130  N         35.6260    4.1710  -35.1660 N.3    97  ARG97      -0.1245
    131  CA        36.8010    5.0390  -35.2660 C.3    97  ARG97       0.1563
    132  C         36.5540    6.1230  -36.3070 C.2    97  ARG97       0.2260
    133  O         36.7460    7.2990  -36.0030 O.2    97  ARG97      -0.2867
    134  CB        38.0660    4.2390  -35.6090 C.3    97  ARG97       0.0307
    135  CG        38.4300    3.1860  -34.5650 C.3    97  ARG97       0.0489
    136  CD        39.8370    3.3340  -34.0170 C.3    97  ARG97       0.2205
    137  NE        40.8790    3.1980  -35.0420 N.pl3  97  ARG97      -0.0865
    138  CZ        41.3990    2.0410  -35.4400 C.cat  97  ARG97       0.5346
    139  NH1       40.9620    0.8970  -34.9270 N.pl3  97  ARG97       0.1354
    140  NH2       42.3530    2.0180  -36.3620 N.pl3  97  ARG97       0.1354
    141  N         26.8750   -3.0010  -33.8350 N.3   139  LYS139     -0.1245
    142  CA        27.4070   -1.7540  -33.2870 C.3   139  LYS139      0.1561
    143  C         28.5670   -1.3240  -34.2080 C.2   139  LYS139      0.2260
    144  O         29.1910   -2.1900  -34.8460 O.2   139  LYS139     -0.2867
    145  CB        27.8490   -1.8920  -31.8050 C.3   139  LYS139      0.0271
    146  CG        28.9110   -2.8870  -31.5320 C.3   139  LYS139      0.0035
    147  CD        29.1140   -3.0650  -30.0110 C.3   139  LYS139      0.0206
    148  CE        29.9040   -4.2790  -29.7070 C.3   139  LYS139      0.1093
    149  NZ        30.5230   -4.3920  -28.3630 N.3   139  LYS139     -0.1314
    150  N         31.5900   -0.6110  -33.6950 N.3   141  GLN141     -0.1231
    151  CA        32.8400   -1.2930  -33.3150 C.3   141  GLN141      0.1698
    152  C         33.0260   -2.6450  -34.0430 C.2   141  GLN141      0.2592
    153  O         34.1590   -3.1040  -34.2140 O.2   141  GLN141     -0.2718
    154  CB        32.8860   -1.5280  -31.7900 C.3   141  GLN141      0.0381
    155  CG        32.8750   -0.2510  -30.9460 C.3   141  GLN141      0.0905
    156  CD        31.4940    0.1650  -30.4550 C.2   141  GLN141      0.2608
    157  OE1       30.5150    0.3380  -31.2190 O.2   141  GLN141     -0.2717
    158  NE2       31.4080    0.3900  -29.1560 N.am  141  GLN141     -0.0878
    159  N         31.8940   -3.2940  -34.4200 N.am  142  ASN142     -0.1974
    160  CA        31.8210   -4.5890  -35.0930 C.3   142  ASN142      0.1688
    161  C         31.7520   -4.4660  -36.6270 C.2   142  ASN142      0.2292
    162  O         31.5950   -5.4880  -37.3190 O.2   142  ASN142     -0.2864
    163  CB        30.6100   -5.3670  -34.5760 C.3   142  ASN142      0.1181
    164  CG        30.8210   -5.9610  -33.2320 C.2   142  ASN142      0.2629
    165  OD1       31.9490   -6.3050  -32.8470 O.2   142  ASN142     -0.2716
    166  ND2       29.7380   -6.1070  -32.4890 N.am  142  ASN142     -0.0877
    167  N         33.9750   -3.5040  -39.4550 N.3   144  LEU144     -0.1245
    168  CA        35.3330   -3.2670  -39.9220 C.3   144  LEU144      0.1561
    169  C         35.3090   -2.6960  -41.3010 C.2   144  LEU144      0.2260
    170  O         34.4620   -3.0920  -42.0980 O.2   144  LEU144     -0.2867
    171  CB        36.1330   -4.5810  -39.9710 C.3   144  LEU144      0.0270
    172  CG        36.1990   -5.4540  -38.7180 C.3   144  LEU144      0.0019
    173  CD1       37.1290   -6.5600  -38.9230 C.3   144  LEU144      0.0001
    174  CD2       36.6450   -4.6780  -37.4910 C.3   144  LEU144      0.0001
    175  N         31.9230   -8.3630  -38.2370 N.3   155  CYS155     -0.1221
    176  CA        32.7190   -9.2560  -37.4050 C.3   155  CYS155      0.1808
    177  C         32.0390   -9.4530  -36.0560 C.2   155  CYS155      0.2601
    178  O         31.0210   -8.8220  -35.7930 O.2   155  CYS155     -0.2717
    179  CB        34.1430   -8.7290  -37.2510 C.3   155  CYS155      0.0970
    180  SG        34.2830   -7.3590  -36.0940 S.3   155  CYS155     -0.0800
    181  N         32.6130  -10.3120  -35.2010 N.am  156  ASP156     -0.1973
    182  CA        32.1360  -10.6600  -33.8620 C.3   156  ASP156      0.1709
    183  C         30.8450  -11.4480  -33.7890 C.2   156  ASP156      0.2293
    184  O         29.7820  -10.9610  -33.3620 O.2   156  ASP156     -0.2864
    185  CB        32.2270   -9.5190  -32.8550 C.3   156  ASP156      0.1436
    186  CG        32.7610   -9.9590  -31.5140 C.2   156  ASP156      0.3671
    187  OD1       32.4450  -11.1070  -31.0940 O.co2 156  ASP156     -0.2456
    188  OD2       33.5050   -9.1600  -30.8810 O.co2 156  ASP156     -0.2456
@<TRIPOS>BOND
     1    96    94   ar
     2    95    94   ar
     3    94    93    1
     4    93    90    1
     5   121   122    1
     6   121   120    1
     7   100    99    2
     8   122   116    1
     9    76    75    1
    10    76    77    2
    11   115   113    1
    12   114   113    1
    13    74    75    1
    14   170   169    2
    15    75    78    1
    16    90    91    1
    17    90    89    1
    18   113   110    1
    19   120   117    1
    20    99   109   am
    21    99    98    1
    22   110   109    1
    23   110   111    1
    24    97    91   am
    25    97    98    1
    26   169   168    1
    27   116   111   am
    28   116   117    1
    29    69    68    2
    30    91    92    2
    31    89    83   am
    32    98   101    1
    33    78    79    1
    34    78    80    1
    35   111   112    2
    36   117   118    1
    37   101   102    1
    38   104   106   ar
    39   104   102   ar
    40    83    84    2
    41    83    82    1
    42    68    67    1
    43   171   168    1
    44   171   172    1
    45   168   167    1
    46   106   107   ar
    47   102   103   ar
    48   118   119    2
    49    82    85    1
    50    82    81    1
    51   173   172    1
    52    67    70    1
    53    67    66    1
    54   172   174    1
    55    85    86    1
    56   107   108    1
    57   107   105   ar
    58   123   124    1
    59   103   105   ar
    60   175   176    1
    61    70    71    1
    62   125   126    2
    63   125   124    1
    64    88    86    1
    65   124   127    1
    66    43    44    1
    67    72    71    1
    68    72    73    1
    69    86    87    1
    70   176   179    1
    71   176   177    1
    72   162   161    2
    73   179   180    1
    74   161   160    1
    75    46    45    2
    76    44    47    1
    77    44    45    1
    78   127   129    1
    79   127   128    1
    80   140   138    1
    81   132   133    2
    82   132   131    1
    83   177   178    2
    84   177   181   am
    85   134   131    1
    86   134   135    1
    87   138   137    2
    88   138   139    1
    89   131   130    1
    90    60    59    2
    91   181   182    1
    92   160   163    1
    93   160   159    1
    94   137   136    1
    95   144   143    2
    96   163   164    1
    97   135   136    1
    98   159   152   am
    99   153   152    2
   100   143   142    1
   101     8     6    1
   102    59    58    1
   103   152   151    1
   104   182   183    1
   105   182   185    1
   106   141   142    1
   107   183   184    2
   108   150   151    1
   109   151   154    1
   110   142   145    1
   111   164   165    2
   112   164   166   am
   113    65    63   ar
   114    62    63    1
   115    62    61    1
   116    58    61    1
   117    58    57    1
   118   185   186    1
   119     7     5    1
   120    48    49    1
   121     6     5    1
   122    63    64   ar
   123    41    40    1
   124     5     2    1
   125    52    49    1
   126    52    53    1
   127   145   146    1
   128   154   155    1
   129    49    50    1
   130   146   147    1
   131   186   187   ar
   132   186   188   ar
   133    54    53    1
   134    54    55    1
   135    56    55    1
   136   157   156    2
   137    51    50    2
   138   155   156    1
   139    40    42    1
   140    40    37    1
   141     2     3    1
   142     2     1    1
   143    38    37    1
   144    38    39    2
   145   156   158   am
   146     4     3    2
   147    37    36    1
   148   147   148    1
   149     3     9   am
   150   148   149    1
   151     9    10    1
   152    10    11    1
   153    35    33   ar
   154    35    34   ar
   155    33    31   ar
   156    34    32   ar
   157    11    12    2
   158    11    13   am
   159    31    30   ar
   160    32    30   ar
   161    30    29    1
   162    13    14    1
   163    29    26    1
   164    14    15    1
   165    14    17    1
   166    21    22    1
   167    21    15   am
   168    26    27    1
   169    26    25    1
   170    28    27    2
   171    22    23    1
   172    15    16    2
   173    17    18    1
   174    23    24    2
   175    20    18   am
   176    18    19    2
