@<TRIPOS>MOLECULE
tmp/4iq6B00.pdb
 156 146 0 0 0
SMALL
GASTEIGER

@<TRIPOS>ATOM
      1  N         22.2370   23.9930  -14.7940 N.3    26  ILE26      -0.1231
      2  CA        23.2880   23.1770  -14.1870 C.3    26  ILE26       0.1692
      3  C         23.3500   21.7700  -14.7680 C.2    26  ILE26       0.2592
      4  O         24.2980   21.0240  -14.5220 O.2    26  ILE26      -0.2718
      5  CB        23.3630   23.2460  -12.6270 C.3    26  ILE26       0.0266
      6  CG1       22.0320   22.9130  -11.9440 C.3    26  ILE26       0.0019
      7  CG2       23.9290   24.5960  -12.1690 C.3    26  ILE26       0.0020
      8  CD1       22.1300   22.6410  -10.4190 C.3    26  ILE26       0.0001
      9  N         22.3910   21.4700  -15.6210 N.am   27  GLY27      -0.1957
     10  CA        22.2900   20.1810  -16.2790 C.3    27  GLY27       0.1869
     11  C         21.0040   20.0810  -17.0580 C.2    27  GLY27       0.2309
     12  O         20.0760   20.8670  -16.8400 O.2    27  GLY27      -0.2863
     13  N         15.0710   13.4400  -18.6020 N.3    31  PHE31      -0.1241
     14  CA        13.9760   13.8700  -17.7140 C.3    31  PHE31       0.1605
     15  C         13.5360   15.3290  -17.9360 C.2    31  PHE31       0.2264
     16  O         12.3560   15.6540  -17.7590 O.2    31  PHE31      -0.2867
     17  CB        14.3910   13.6930  -16.2280 C.3    31  PHE31       0.0534
     18  CG        15.7000   14.3490  -15.8150 C.ar   31  PHE31      -0.0203
     19  CD1       16.8610   13.6030  -15.6940 C.ar   31  PHE31      -0.0042
     20  CD2       15.7550   15.7060  -15.4980 C.ar   31  PHE31      -0.0042
     21  CE1       18.0670   14.2090  -15.3060 C.ar   31  PHE31      -0.0003
     22  CE2       16.9620   16.3100  -15.1330 C.ar   31  PHE31      -0.0003
     23  CZ        18.1120   15.5580  -15.0490 C.ar   31  PHE31      -0.0000
     24  N         17.6820   21.0720  -15.0560 N.3    34  VAL34      -0.1245
     25  CA        17.9560   21.3640  -13.6470 C.3    34  VAL34       0.1561
     26  C         18.6500   22.7290  -13.5860 C.2    34  VAL34       0.2260
     27  O         19.6570   22.9450  -14.2580 O.2    34  VAL34      -0.2867
     28  CB        18.7440   20.2430  -12.8990 C.3    34  VAL34       0.0252
     29  CG1       19.0100   20.6260  -11.4490 C.3    34  VAL34       0.0019
     30  CG2       18.0110   18.9090  -12.9520 C.3    34  VAL34       0.0019
     31  N         18.2350   24.0230   -6.1840 N.3    47  ALA47      -0.1245
     32  CA        18.1930   23.3860   -7.4880 C.3    47  ALA47       0.1562
     33  C         16.7320   23.2110   -7.8850 C.2    47  ALA47       0.2260
     34  O         15.9320   22.7620   -7.0620 O.2    47  ALA47      -0.2867
     35  CB        18.8760   22.0410   -7.4400 C.3    47  ALA47       0.0290
     36  N         14.3110   21.3070  -10.5740 N.3    49  LYS49      -0.1245
     37  CA        14.1770   20.2650  -11.6020 C.3    49  LYS49       0.1561
     38  C         12.8680   20.5000  -12.3790 C.2    49  LYS49       0.2260
     39  O         11.7890   20.2070  -11.8600 O.2    49  LYS49      -0.2867
     40  CB        14.2100   18.8680  -10.9590 C.3    49  LYS49       0.0271
     41  CG        14.1460   17.6950  -11.9460 C.3    49  LYS49       0.0035
     42  CD        13.9100   16.3610  -11.2270 C.3    49  LYS49       0.0206
     43  CE        14.6670   15.2180  -11.8500 C.3    49  LYS49       0.1093
     44  NZ        14.5820   13.9690  -11.0370 N.3    49  LYS49      -0.1314
     45  N          7.1720   10.9300   -8.7590 N.3    61  GLU61      -0.1245
     46  CA         8.3860   11.3920   -8.0950 C.3    61  GLU61       0.1567
     47  C          7.9520   12.4100   -7.0600 C.2    61  GLU61       0.2260
     48  O          8.3520   12.2790   -5.8910 O.2    61  GLU61      -0.2867
     49  CB         9.3980   11.9780   -9.0920 C.3    61  GLU61       0.0388
     50  CG        10.6870   12.4450   -8.4370 C.3    61  GLU61       0.1160
     51  CD        11.7380   13.1020   -9.3190 C.2    61  GLU61       0.3649
     52  OE1       11.3970   13.5740  -10.4280 O.co2  61  GLU61      -0.2457
     53  OE2       12.9020   13.2000   -8.8670 O.co2  61  GLU61      -0.2457
     54  N          8.5560   12.1520   -3.1610 N.3    65  MET65      -0.1245
     55  CA         9.3220   13.2180   -2.5130 C.3    65  MET65       0.1570
     56  C          8.6300   13.7300   -1.2880 C.2    65  MET65       0.2261
     57  O          9.2110   13.7080   -0.2110 O.2    65  MET65      -0.2867
     58  CB         9.5610   14.3950   -3.4710 C.3    65  MET65       0.0387
     59  CG        10.5120   14.0800   -4.6090 C.3    65  MET65       0.0595
     60  SD        12.1930   13.8230   -4.0480 S.3    65  MET65      -0.1393
     61  CE        13.0910   14.2410   -5.6030 C.3    65  MET65       0.0692
     62  N         17.8700   14.4620   -0.4930 N.3    74  VAL74      -0.1245
     63  CA        17.5670   15.8610   -0.8560 C.3    74  VAL74       0.1561
     64  C         16.1750   16.2640   -0.3830 C.2    74  VAL74       0.2260
     65  O         15.2250   15.4740   -0.5170 O.2    74  VAL74      -0.2867
     66  CB        17.6880   16.2090   -2.3720 C.3    74  VAL74       0.0252
     67  CG1       19.0990   16.5780   -2.7640 C.3    74  VAL74       0.0019
     68  CG2       17.1190   15.1220   -3.2700 C.3    74  VAL74       0.0019
     69  N         14.4590   21.9190   -4.8500 N.3    90  LEU90      -0.1231
     70  CA        15.2150   21.0420   -3.9710 C.3    90  LEU90       0.1693
     71  C         16.4260   21.7480   -3.4400 C.2    90  LEU90       0.2592
     72  O         16.8780   22.7220   -4.0430 O.2    90  LEU90      -0.2718
     73  CB        15.6860   19.8360   -4.7840 C.3    90  LEU90       0.0284
     74  CG        14.6360   19.0020   -5.4510 C.3    90  LEU90       0.0019
     75  CD1       14.9410   18.8140   -6.8970 C.3    90  LEU90       0.0001
     76  CD2       14.5590   17.6850   -4.7960 C.3    90  LEU90       0.0001
     77  N         17.0050   21.2100   -2.3540 N.am   91  ASP91      -0.1960
     78  CA        18.2420   21.7270   -1.7450 C.3    91  ASP91       0.1840
     79  C         19.3980   21.6640   -2.7590 C.2    91  ASP91       0.2622
     80  O         19.5000   20.6870   -3.5090 O.2    91  ASP91      -0.2715
     81  CB        18.6650   20.8490   -0.5580 C.3    91  ASP91       0.1450
     82  CG        17.8470   20.9170    0.7110 C.2    91  ASP91       0.3671
     83  OD1       17.3780   22.0310    1.0620 O.co2  91  ASP91      -0.2456
     84  OD2       17.8000   19.8890    1.4330 O.co2  91  ASP91      -0.2456
     85  N         20.2810   22.6790   -2.7620 N.am   92  TYR92      -0.1960
     86  CA        21.4570   22.6460   -3.6360 C.3    92  TYR92       0.1771
     87  C         22.5980   21.9280   -2.8970 C.2    92  TYR92       0.2619
     88  O         22.8380   22.1840   -1.7190 O.2    92  TYR92      -0.2715
     89  CB        21.8960   24.0450   -4.1010 C.3    92  TYR92       0.0574
     90  CG        23.0990   23.9970   -5.0140 C.ar   92  TYR92      -0.0198
     91  CD1       22.9570   23.7330   -6.3740 C.ar   92  TYR92      -0.0009
     92  CD2       24.3910   24.1460   -4.5090 C.ar   92  TYR92      -0.0009
     93  CE1       24.0680   23.6450   -7.2150 C.ar   92  TYR92       0.0417
     94  CE2       25.5130   24.0460   -5.3390 C.ar   92  TYR92       0.0417
     95  CZ        25.3460   23.8030   -6.6940 C.ar   92  TYR92       0.1957
     96  OH        26.4470   23.7040   -7.5140 O.3    92  TYR92      -0.2866
     97  N         23.2410   20.9790   -3.5860 N.am   93  VAL93      -0.1964
     98  CA        24.3560   20.1880   -3.0750 C.3    93  VAL93       0.1712
     99  C         25.4660   20.2710   -4.1240 C.2    93  VAL93       0.2458
    100  O         25.2370   19.9090   -5.2850 O.2    93  VAL93      -0.2730
    101  CB        24.0030   18.7450   -2.6760 C.3    93  VAL93       0.0289
    102  CG1       25.2100   18.0640   -2.0490 C.3    93  VAL93       0.0023
    103  CG2       22.8270   18.7210   -1.7150 C.3    93  VAL93       0.0023
    104  N         26.6520   20.8120   -3.7350 N.am   94  PRO94      -0.2727
    105  CA        27.7150   21.0680   -4.7220 C.3    94  PRO94       0.1402
    106  C         28.2790   19.9130   -5.5580 C.2    94  PRO94       0.2269
    107  O         28.3210   20.0140   -6.7880 O.2    94  PRO94      -0.2865
    108  CB        28.7910   21.7760   -3.8990 C.3    94  PRO94       0.0296
    109  CG        28.4890   21.4100   -2.4950 C.3    94  PRO94       0.0237
    110  CD        27.0310   21.3340   -2.4080 C.3    94  PRO94       0.0939
    111  N         29.1280   15.4240   -6.3400 N.3    96  THR96      -0.1218
    112  CA        28.5970   14.0760   -6.5080 C.3    96  THR96       0.1862
    113  C         29.7240   13.0570   -6.3230 C.2    96  THR96       0.2287
    114  O         30.8830   13.3600   -6.6360 O.2    96  THR96      -0.2866
    115  CB        27.8950   13.8620   -7.8480 C.3    96  THR96       0.1770
    116  OG1       28.8300   13.8230   -8.9180 O.3    96  THR96      -0.2211
    117  CG2       26.8220   14.8580   -8.1130 C.3    96  THR96       0.0375
    118  N         26.3860    9.2180   -9.7520 N.3   143  GLN143     -0.1231
    119  CA        25.8210   10.4880  -10.2420 C.3   143  GLN143      0.1698
    120  C         24.6210   10.9760   -9.4040 C.2   143  GLN143      0.2592
    121  O         24.3500   12.1830   -9.3570 O.2   143  GLN143     -0.2718
    122  CB        25.3910   10.3760  -11.7210 C.3   143  GLN143      0.0381
    123  CG        26.5450   10.0560  -12.6840 C.3   143  GLN143      0.0905
    124  CD        26.6900    8.5810  -13.0030 C.2   143  GLN143      0.2608
    125  OE1       26.8270    7.6950  -12.1210 O.2   143  GLN143     -0.2717
    126  NE2       26.7160    8.3080  -14.2890 N.am  143  GLN143     -0.0878
    127  N         23.8990   10.0330   -8.7760 N.am  144  ASN144     -0.1974
    128  CA        22.7110   10.2680   -7.9410 C.3   144  ASN144      0.1688
    129  C         23.0350   10.3920   -6.4510 C.2   144  ASN144      0.2292
    130  O         22.1190   10.4860   -5.6340 O.2   144  ASN144     -0.2864
    131  CB        21.6900    9.1440   -8.1560 C.3   144  ASN144      0.1181
    132  CG        20.9460    9.2540   -9.4420 C.2   144  ASN144      0.2629
    133  OD1       20.6980   10.3430   -9.9780 O.2   144  ASN144     -0.2716
    134  ND2       20.5580    8.1160   -9.9620 N.am  144  ASN144     -0.0877
    135  N         24.6530   12.8140   -4.1480 N.3   146  LEU146     -0.1245
    136  CA        25.1270   14.1760   -3.9400 C.3   146  LEU146      0.1561
    137  C         25.9000   14.2730   -2.6760 C.2   146  LEU146      0.2260
    138  O         25.5390   13.6310   -1.7050 O.2   146  LEU146     -0.2867
    139  CB        23.9600   15.1690   -3.8680 C.3   146  LEU146      0.0270
    140  CG        22.9330   15.1890   -5.0060 C.3   146  LEU146      0.0019
    141  CD1       21.9750   16.3120   -4.8050 C.3   146  LEU146      0.0001
    142  CD2       23.5850   15.3170   -6.3580 C.3   146  LEU146      0.0001
    143  N         19.4500   11.4020   -4.4140 N.3   157  CYS157     -0.1221
    144  CA        18.5620   12.2060   -5.2580 C.3   157  CYS157      0.1808
    145  C         18.0920   11.3930   -6.4480 C.2   157  CYS157      0.2601
    146  O         18.5410   10.2700   -6.6310 O.2   157  CYS157     -0.2717
    147  CB        19.2510   13.4920   -5.6990 C.3   157  CYS157      0.0970
    148  SG        20.4390   13.2660   -7.0430 S.3   157  CYS157     -0.0800
    149  N         17.2060   11.9620   -7.2540 N.am  158  ASP158     -0.1973
    150  CA        16.6100   11.3480   -8.4450 C.3   158  ASP158      0.1709
    151  C         15.6500   10.1990   -8.1990 C.2   158  ASP158      0.2293
    152  O         15.9220    9.0150   -8.5000 O.2   158  ASP158     -0.2864
    153  CB        17.5840   11.1090   -9.6080 C.3   158  ASP158      0.1436
    154  CG        17.0150   11.5110  -10.9520 C.2   158  ASP158      0.3671
    155  OD1       15.7840   11.3620  -11.1510 O.co2 158  ASP158     -0.2456
    156  OD2       17.7960   11.9880  -11.8070 O.co2 158  ASP158     -0.2456
@<TRIPOS>BOND
     1    13    14    1
     2    15    16    2
     3    15    14    1
     4    14    17    1
     5    11    12    2
     6    11    10    1
     7    10     9    1
     8    17    18    1
     9    18    19   ar
    10    18    20   ar
    11    19    21   ar
    12     9     3   am
    13    20    22   ar
    14    21    23   ar
    15    22    23   ar
    16    24    25    1
    17     1     2    1
    18     3     4    2
    19     3     2    1
    20   126   124   am
    21    27    26    2
    22     2     5    1
    23    25    26    1
    24    25    28    1
    25   124   123    1
    26   124   125    2
    27    30    28    1
    28    28    29    1
    29   123   122    1
    30     5     7    1
    31     5     6    1
    32    38    39    2
    33    38    37    1
    34    41    42    1
    35    41    40    1
    36     6     8    1
    37    43    42    1
    38    43    44    1
    39   156   154   ar
    40   122   119    1
    41    37    40    1
    42    37    36    1
    43   155   154   ar
    44   154   153    1
    45    52    51   ar
    46   119   118    1
    47   119   120    1
    48   133   132    2
    49   134   132   am
    50   153   150    1
    51   132   131    1
    52   120   121    2
    53   120   127   am
    54    51    53   ar
    55    51    50    1
    56    49    50    1
    57    49    46    1
    58   116   115    1
    59   127   128    1
    60    45    46    1
    61   152   151    2
    62   150   151    1
    63   150   149    1
    64   131   128    1
    65   117   115    1
    66    46    47    1
    67   128   129    1
    68    33    32    1
    69    33    34    2
    70   115   112    1
    71    96    95    1
    72    32    35    1
    73    32    31    1
    74   149   145   am
    75    93    95   ar
    76    93    91   ar
    77    47    48    2
    78   148   147    1
    79    75    74    1
    80   107   106    2
    81    95    94   ar
    82   114   113    2
    83   146   145    2
    84   112   111    1
    85   112   113    1
    86   129   130    2
    87   145   144    1
    88    91    90   ar
    89   142   140    1
    90   147   144    1
    91    61    60    1
    92   106   105    1
    93    74    76    1
    94    74    73    1
    95    94    92   ar
    96   100    99    2
    97   144   143    1
    98    90    92   ar
    99    90    89    1
   100   140   141    1
   101   140   139    1
   102    69    70    1
   103    73    70    1
   104   105   108    1
   105   105   104    1
   106    59    60    1
   107    59    58    1
   108   135   136    1
   109    99   104   am
   110    99    98    1
   111    89    86    1
   112    72    71    2
   113    70    71    1
   114   136   139    1
   115   136   137    1
   116   108   109    1
   117   104   110    1
   118    86    87    1
   119    86    85    1
   120    97    98    1
   121    97    87   am
   122    80    79    2
   123    58    55    1
   124    71    77   am
   125    68    66    1
   126    54    55    1
   127    98   101    1
   128    87    88    2
   129    67    66    1
   130    85    79   am
   131    79    78    1
   132   137   138    2
   133   101   102    1
   134   101   103    1
   135    55    56    1
   136   109   110    1
   137    66    63    1
   138    77    78    1
   139    78    81    1
   140    56    57    2
   141    63    62    1
   142    63    64    1
   143    81    82    1
   144    65    64    2
   145    82    83   ar
   146    82    84   ar
