@<TRIPOS>MOLECULE
tmp/4iq9A01.pdb
 171 164 0 0 0
SMALL
GASTEIGER

@<TRIPOS>ATOM
      1  N         -1.2140   17.6950    3.5700 N.3    60  MET60      -0.1245
      2  CA        -0.0320   17.2710    2.8190 C.3    60  MET60       0.1570
      3  C          0.9490   16.6300    3.8300 C.2    60  MET60       0.2261
      4  O          1.5040   15.5590    3.5800 O.2    60  MET60      -0.2867
      5  CB         0.6540   18.4610    2.0990 C.3    60  MET60       0.0387
      6  CG         2.1420   18.1610    1.6450 C.3    60  MET60       0.0595
      7  SD         2.4500   16.6560    0.6730 S.3    60  MET60      -0.1393
      8  CE         1.6380   17.0300   -0.8450 C.3    60  MET60       0.0692
      9  N         11.1590   10.1690   -1.3920 N.3    75  THR75      -0.1203
     10  CA        12.5420   10.2810   -1.8880 C.3    75  THR75       0.1994
     11  C         13.3020   11.3150   -1.0490 C.2    75  THR75       0.2617
     12  O         14.4510   11.6460   -1.3510 O.2    75  THR75      -0.2717
     13  CB        12.5940   10.6550   -3.3760 C.3    75  THR75       0.1784
     14  OG1       12.0600   11.9670   -3.5410 O.3    75  THR75      -0.2211
     15  CG2       11.8390    9.6600   -4.2520 C.3    75  THR75       0.0376
     16  N         12.6580   11.8220    0.0260 N.am   76  VAL76      -0.1979
     17  CA        13.2340   12.7840    0.9560 C.3    76  VAL76       0.1595
     18  C         12.9320   12.2930    2.3630 C.2    76  VAL76       0.2287
     19  O         11.9750   11.5220    2.5490 O.2    76  VAL76      -0.2864
     20  CB        12.6360   14.2120    0.7470 C.3    76  VAL76       0.0276
     21  CG1       13.0270   14.7760   -0.6190 C.3    76  VAL76       0.0022
     22  CG2       11.1140   14.2650    0.9370 C.3    76  VAL76       0.0022
     23  N         10.6850   16.5710    5.5220 N.3    80  VAL80      -0.1231
     24  CA        10.8750   17.4370    4.3640 C.3    80  VAL80       0.1692
     25  C          9.5860   17.5370    3.5210 C.2    80  VAL80       0.2591
     26  O          9.4080   18.5070    2.7860 O.2    80  VAL80      -0.2718
     27  CB        12.1380   17.0220    3.5610 C.3    80  VAL80       0.0266
     28  CG1       12.3260   17.8490    2.2880 C.3    80  VAL80       0.0020
     29  CG2       13.3840   17.1210    4.4350 C.3    80  VAL80       0.0020
     30  N          8.6310   16.5950    3.7140 N.am   81  VAL81      -0.1980
     31  CA         7.3560   16.6930    3.0010 C.3    81  VAL81       0.1595
     32  C          6.6830   18.0200    3.4450 C.2    81  VAL81       0.2287
     33  O          6.1320   18.7470    2.6020 O.2    81  VAL81      -0.2864
     34  CB         6.4980   15.4410    3.2950 C.3    81  VAL81       0.0276
     35  CG1        5.0610   15.6160    2.8110 C.3    81  VAL81       0.0022
     36  CG2        7.1200   14.2070    2.6430 C.3    81  VAL81       0.0022
     37  N          8.1490   20.8030    4.1470 N.3    83  ASN83      -0.1225
     38  CA         9.1740   21.8160    3.9680 C.3    83  ASN83       0.1785
     39  C          8.6810   23.2590    4.1130 C.2    83  ASN83       0.2597
     40  O          9.2680   24.0530    4.8600 O.2    83  ASN83      -0.2718
     41  CB         9.8330   21.5860    2.6140 C.3    83  ASN83       0.1169
     42  CG        11.0810   22.3800    2.3690 C.2    83  ASN83       0.2627
     43  OD1       11.9680   22.4700    3.2230 O.2    83  ASN83      -0.2716
     44  ND2       11.2010   22.8950    1.1440 N.am   83  ASN83      -0.0877
     45  N          7.6020   23.6200    3.4040 N.am   84  MET84      -0.1979
     46  CA         7.0960   24.9890    3.4930 C.3    84  MET84       0.1605
     47  C          6.6030   25.3560    4.8600 C.2    84  MET84       0.2287
     48  O          6.8510   26.4820    5.3150 O.2    84  MET84      -0.2864
     49  CB         6.0510   25.2660    2.4390 C.3    84  MET84       0.0413
     50  CG         6.6570   25.6950    1.1430 C.3    84  MET84       0.0598
     51  SD         7.6060   27.2550    1.0410 S.3    84  MET84      -0.1393
     52  CE         6.9520   28.2450    2.4170 C.3    84  MET84       0.0692
     53  N         18.3000   14.9700  -10.3150 N.3   162  LEU162     -0.1245
     54  CA        16.8750   15.1020  -10.5470 C.3   162  LEU162      0.1561
     55  C         16.1320   13.9640  -11.2070 C.2   162  LEU162      0.2260
     56  O         14.9680   13.7350  -10.8610 O.2   162  LEU162     -0.2867
     57  CB        16.5250   16.4730  -11.1640 C.3   162  LEU162      0.0270
     58  CG        17.0530   17.7400  -10.4270 C.3   162  LEU162      0.0019
     59  CD1       16.5300   19.0100  -11.1150 C.3   162  LEU162      0.0001
     60  CD2       16.7650   17.7400   -8.9230 C.3   162  LEU162      0.0001
     61  N         15.6370   11.9460   -8.0080 N.3   165  ALA165     -0.1231
     62  CA        14.9730   12.5980   -6.8840 C.3   165  ALA165      0.1694
     63  C         13.4750   12.7530   -7.1080 C.2   165  ALA165      0.2592
     64  O         12.6980   12.6970   -6.1530 O.2   165  ALA165     -0.2718
     65  CB        15.5970   13.9610   -6.6370 C.3   165  ALA165      0.0304
     66  N         13.0770   12.9870   -8.3760 N.am  166  PHE166     -0.1976
     67  CA        11.6840   13.1940   -8.7040 C.3   166  PHE166      0.1639
     68  C         11.0180   11.9610   -9.3020 C.2   166  PHE166      0.2290
     69  O          9.9450   12.0700   -9.9050 O.2   166  PHE166     -0.2864
     70  CB        11.4710   14.4760   -9.5330 C.3   166  PHE166      0.0560
     71  CG        11.7210   15.6890   -8.6740 C.ar  166  PHE166     -0.0200
     72  CD1       12.9880   16.2440   -8.5820 C.ar  166  PHE166     -0.0042
     73  CD2       10.7200   16.2030   -7.8670 C.ar  166  PHE166     -0.0042
     74  CE1       13.2420   17.3280   -7.7230 C.ar  166  PHE166     -0.0003
     75  CE2       10.9730   17.3130   -7.0400 C.ar  166  PHE166     -0.0003
     76  CZ        12.2400   17.8220   -6.9480 C.ar  166  PHE166     -0.0000
     77  N         20.7530   12.8320   -2.0960 N.3   180  TRP180     -0.1241
     78  CA        20.2030   13.7940   -1.1200 C.3   180  TRP180      0.1605
     79  C         21.2790   14.1770   -0.1160 C.2   180  TRP180      0.2264
     80  O         21.5260   15.3740    0.1160 O.2   180  TRP180     -0.2867
     81  CB        18.9880   13.1900   -0.4020 C.3   180  TRP180      0.0550
     82  CG        18.4490   14.0680    0.6970 C.ar  180  TRP180      0.0003
     83  CD1       18.7350   13.9850    2.0340 C.ar  180  TRP180      0.0946
     84  CD2       17.5630   15.1810    0.5410 C.ar  180  TRP180      0.0152
     85  NE1       18.0600   14.9710    2.7210 N.ar  180  TRP180     -0.2442
     86  CE2       17.3610   15.7410    1.8250 C.ar  180  TRP180      0.0810
     87  CE3       16.9150   15.7640   -0.5630 C.ar  180  TRP180      0.0012
     88  CZ2       16.5330   16.8640    2.0340 C.ar  180  TRP180      0.0191
     89  CZ3       16.1080   16.8820   -0.3550 C.ar  180  TRP180      0.0001
     90  CH2       15.9330   17.4240    0.9280 C.ar  180  TRP180      0.0015
     91  N         18.5020   22.7260   -1.2180 N.3   226  VAL226     -0.1231
     92  CA        18.3230   21.5190   -2.0570 C.3   226  VAL226      0.1692
     93  C         16.9060   21.4470   -2.6260 C.2   226  VAL226      0.2593
     94  O         16.7180   21.1190   -3.8030 O.2   226  VAL226     -0.2718
     95  CB        18.6800   20.2050   -1.2970 C.3   226  VAL226      0.0266
     96  CG1       18.4650   18.9650   -2.1780 C.3   226  VAL226      0.0020
     97  CG2       20.1150   20.2280   -0.7860 C.3   226  VAL226      0.0020
     98  N         15.9010   21.7050   -1.7830 N.am  227  THR227     -0.1939
     99  CA        14.5040   21.5900   -2.2250 C.3   227  THR227      0.2028
    100  C         14.0920   22.6700   -3.2060 C.2   227  THR227      0.2642
    101  O         13.3360   22.3670   -4.1430 O.2   227  THR227     -0.2714
    102  CB        13.5500   21.5420   -1.0440 C.3   227  THR227      0.1808
    103  OG1       13.6860   22.7480   -0.2780 O.3   227  THR227     -0.2208
    104  CG2       13.7760   20.3130   -0.1590 C.3   227  THR227      0.0379
    105  N         14.5160   23.9220   -2.9910 N.am  228  PHE228     -0.1973
    106  CA        14.1210   24.9670   -3.9380 C.3   228  PHE228      0.1639
    107  C         14.8410   24.8100   -5.2680 C.2   228  PHE228      0.2290
    108  O         14.2120   24.9950   -6.3180 O.2   228  PHE228     -0.2864
    109  CB        14.2590   26.3750   -3.3160 C.3   228  PHE228      0.0560
    110  CG        13.0250   26.7230   -2.5140 C.ar  228  PHE228     -0.0200
    111  CD1       12.7050   26.0210   -1.3570 C.ar  228  PHE228     -0.0042
    112  CD2       12.1460   27.7110   -2.9510 C.ar  228  PHE228     -0.0042
    113  CE1       11.5310   26.3050   -0.6430 C.ar  228  PHE228     -0.0003
    114  CE2       10.9650   27.9820   -2.2400 C.ar  228  PHE228     -0.0003
    115  CZ        10.6790   27.2970   -1.0820 C.ar  228  PHE228     -0.0000
    116  N         15.8060   21.8670   -6.5640 N.3   230  GLY230     -0.1210
    117  CA        15.2190   20.7090   -7.2280 C.3   230  GLY230      0.1956
    118  C         13.8010   20.9290   -7.6970 C.2   230  GLY230      0.2611
    119  O         13.4810   20.6760   -8.8650 O.2   230  GLY230     -0.2717
    120  N         12.9260   21.3960   -6.8060 N.am  231  ALA231     -0.1979
    121  CA        11.5330   21.6300   -7.2030 C.3   231  ALA231      0.1597
    122  C         11.4490   22.6970   -8.2960 C.2   231  ALA231      0.2287
    123  O         10.7240   22.5140   -9.2760 O.2   231  ALA231     -0.2864
    124  CB        10.7030   22.0700   -5.9960 C.3   231  ALA231      0.0319
    125  N         10.3860   21.6410  -12.1350 N.3   235  SER235     -0.1217
    126  CA         9.0770   22.1500  -12.5210 C.3   235  SER235      0.1889
    127  C          9.1460   23.0990  -13.7010 C.2   235  SER235      0.2288
    128  O          8.3250   22.9800  -14.6260 O.2   235  SER235     -0.2866
    129  CB         8.3910   22.8160  -11.3360 C.3   235  SER235      0.2089
    130  OG         8.2270   21.9130  -10.2490 O.3   235  SER235     -0.2183
    131  N          2.3640   17.5200  -14.4340 N.3   278  PHE278     -0.1241
    132  CA         2.2810   16.7110  -13.2030 C.3   278  PHE278      0.1605
    133  C          1.7640   15.3340  -13.5550 C.2   278  PHE278      0.2264
    134  O          0.6570   15.1900  -14.0660 O.2   278  PHE278     -0.2867
    135  CB         1.4150   17.3950  -12.1190 C.3   278  PHE278      0.0534
    136  CG         2.1970   18.3480  -11.2430 C.ar  278  PHE278     -0.0203
    137  CD1        2.7640   19.5000  -11.7730 C.ar  278  PHE278     -0.0042
    138  CD2        2.4010   18.0710   -9.8970 C.ar  278  PHE278     -0.0042
    139  CE1        3.5230   20.3570  -10.9590 C.ar  278  PHE278     -0.0003
    140  CE2        3.1220   18.9520   -9.0840 C.ar  278  PHE278     -0.0003
    141  CZ         3.6930   20.0710   -9.6270 C.ar  278  PHE278     -0.0000
    142  N         -0.9000   25.2220    0.1530 N.3   341  HIS341     -0.1241
    143  CA         0.3160   24.7930   -0.5190 C.3   341  HIS341      0.1621
    144  C          0.5160   25.3650   -1.9030 C.2   341  HIS341      0.2264
    145  O          1.3450   24.8540   -2.6720 O.2   341  HIS341     -0.2867
    146  CB         0.4210   23.2600   -0.4900 C.3   341  HIS341      0.0745
    147  CG         0.4730   22.7250    0.9070 C.ar  341  HIS341      0.0817
    148  ND1        1.6350   22.7940    1.6680 N.ar  341  HIS341     -0.2268
    149  CD2       -0.5120   22.1850    1.6710 C.ar  341  HIS341      0.1154
    150  CE1        1.3230   22.2950    2.8580 C.ar  341  HIS341      0.1986
    151  NE2        0.0510   21.8980    2.9010 N.ar  341  HIS341     -0.2212
    152  N          7.5960   11.9950  -11.3340 N.3   383  GLN383     -0.1231
    153  CA         6.6200   12.9580  -10.7990 C.3   383  GLN383      0.1698
    154  C          6.1980   13.9750  -11.8660 C.2   383  GLN383      0.2592
    155  O          5.2400   14.7280  -11.6490 O.2   383  GLN383     -0.2718
    156  CB         7.1650   13.6600   -9.5650 C.3   383  GLN383      0.0381
    157  CG         7.2490   12.7190   -8.3680 C.3   383  GLN383      0.0905
    158  CD         7.9310   13.3140   -7.1540 C.2   383  GLN383      0.2608
    159  OE1        8.7310   12.6250   -6.4700 O.2   383  GLN383     -0.2717
    160  NE2        7.6300   14.5630   -6.8530 N.am  383  GLN383     -0.0878
    161  N          6.9230   14.0090  -12.9930 N.am  384  ARG384     -0.1980
    162  CA         6.5560   14.8450  -14.1140 C.3   384  ARG384      0.1597
    163  C          6.4600   14.0050  -15.3660 C.2   384  ARG384      0.2287
    164  O          7.0940   12.9400  -15.4750 O.2   384  ARG384     -0.2864
    165  CB         7.5930   15.9710  -14.3750 C.3   384  ARG384      0.0334
    166  CG         7.7550   16.9610  -13.2120 C.3   384  ARG384      0.0492
    167  CD         6.4960   17.8280  -12.9960 C.3   384  ARG384      0.2205
    168  NE         6.7100   18.7780  -11.9080 N.pl3 384  ARG384     -0.0865
    169  CZ         6.5740   18.4960  -10.6150 C.cat 384  ARG384      0.5346
    170  NH1        6.8530   19.4220   -9.6920 N.pl3 384  ARG384      0.1354
    171  NH2        6.1690   17.2830  -10.2290 N.pl3 384  ARG384      0.1354
@<TRIPOS>BOND
     1   164   163    2
     2   163   162    1
     3   128   127    2
     4   131   132    1
     5   165   162    1
     6   165   166    1
     7   162   161    1
     8   134   133    2
     9   127   126    1
    10   133   132    1
    11   166   167    1
    12   132   135    1
    13   167   168    1
    14   161   154   am
    15   126   125    1
    16   126   129    1
    17   135   136    1
    18   168   169    2
    19   154   155    2
    20   154   153    1
    21   137   136   ar
    22   137   139   ar
    23   129   130    1
    24   152   153    1
    25   136   138   ar
    26    55    56    2
    27    55    54    1
    28    57    54    1
    29    57    58    1
    30    59    58    1
    31   139   141   ar
    32   153   156    1
    33   169   171    1
    34   169   170    1
    35    54    53    1
    36    58    60    1
    37    69    68    2
    38   138   140   ar
    39   141   140   ar
    40   156   157    1
    41    70    67    1
    42    70    71    1
    43    68    67    1
    44   123   122    2
    45   119   118    2
    46    67    66    1
    47    71    72   ar
    48    71    73   ar
    49    72    74   ar
    50    66    63   am
    51   157   158    1
    52   122   121    1
    53    61    62    1
    54    73    75   ar
    55    74    76   ar
    56   118   117    1
    57   118   120   am
    58   117   116    1
    59   121   120    1
    60   121   124    1
    61   158   160   am
    62   158   159    2
    63    63    62    1
    64    63    64    2
    65    75    76   ar
    66    62    65    1
    67   108   107    2
    68   107   106    1
    69    15    13    1
    70   101   100    2
    71   106   109    1
    72   106   105    1
    73    94    93    2
    74    14    13    1
    75    13    10    1
    76   109   110    1
    77   100   105   am
    78   100    99    1
    79   112   110   ar
    80   112   114   ar
    81   145   144    2
    82    93    92    1
    83    93    98   am
    84   110   111   ar
    85   114   115   ar
    86    99    98    1
    87    99   102    1
    88    96    95    1
    89    77    78    1
    90    92    95    1
    91    92    91    1
    92   144   143    1
    93    10     9    1
    94    10    11    1
    95   111   113   ar
    96    12    11    2
    97    95    97    1
    98    78    81    1
    99    78    79    1
   100   115   113   ar
   101    11    16   am
   102   102   103    1
   103   102   104    1
   104     8     7    1
   105    21    20    1
   106    87    89   ar
   107    87    84   ar
   108   143   146    1
   109   143   142    1
   110   146   147    1
   111    81    82    1
   112    89    90   ar
   113    79    80    2
   114    16    17    1
   115    84    82   ar
   116    84    86   ar
   117     7     6    1
   118    82    83   ar
   119    20    22    1
   120    20    17    1
   121   147   148   ar
   122   147   149   ar
   123    90    88   ar
   124    17    18    1
   125    51    50    1
   126    51    52    1
   127    50    49    1
   128    44    42   am
   129     6     5    1
   130   148   150   ar
   131   149   151   ar
   132    86    88   ar
   133    86    85   ar
   134    83    85   ar
   135     5     2    1
   136    28    27    1
   137    18    19    2
   138    42    41    1
   139    42    43    2
   140    49    46    1
   141    33    32    2
   142    41    38    1
   143    36    34    1
   144    26    25    2
   145    35    34    1
   146     2     1    1
   147     2     3    1
   148   150   151   ar
   149    31    34    1
   150    31    32    1
   151    31    30    1
   152    45    46    1
   153    45    39   am
   154    46    47    1
   155    25    30   am
   156    25    24    1
   157    27    24    1
   158    27    29    1
   159     4     3    2
   160    38    39    1
   161    38    37    1
   162    39    40    2
   163    24    23    1
   164    47    48    2
