@<TRIPOS>MOLECULE
tmp/4iqgD01.pdb
 83 78 0 0 0
SMALL
GASTEIGER

@<TRIPOS>ATOM
      1  N         31.3970   19.7450   64.2990 N.3   141  ALA141     -0.1231
      2  CA        32.0300   20.5390   63.1980 C.3   141  ALA141      0.1694
      3  C         33.0370   21.5620   63.7450 C.2   141  ALA141      0.2591
      4  O         33.9730   21.9520   63.0710 O.2   141  ALA141     -0.2718
      5  CB        30.9620   21.2590   62.4180 C.3   141  ALA141      0.0304
      6  N         32.8390   22.0220   65.0170 N.am  142  ALA142     -0.1980
      7  CA        33.7310   23.0110   65.6120 C.3   142  ALA142      0.1597
      8  C         35.1390   22.4580   65.6420 C.2   142  ALA142      0.2287
      9  O         36.1000   23.2430   65.6450 O.2   142  ALA142     -0.2864
     10  CB        33.2500   23.3890   67.0240 C.3   142  ALA142      0.0319
     11  N         36.3390   23.7910   62.5070 N.3   145  LEU145     -0.1245
     12  CA        36.1750   25.2060   62.2400 C.3   145  LEU145      0.1561
     13  C         36.7780   26.1780   63.2990 C.2   145  LEU145      0.2260
     14  O         37.1400   27.2710   62.9520 O.2   145  LEU145     -0.2867
     15  CB        34.6930   25.5240   62.0380 C.3   145  LEU145      0.0270
     16  CG        34.1250   24.7210   60.8430 C.3   145  LEU145      0.0019
     17  CD1       32.6090   24.8800   60.8700 C.3   145  LEU145      0.0001
     18  CD2       34.6500   25.1640   59.4860 C.3   145  LEU145      0.0001
     19  N         35.4200   27.5240   66.2090 N.3   147  SER147     -0.1203
     20  CA        34.5440   28.4300   66.9740 C.3   147  SER147      0.2005
     21  C         35.1290   29.8040   67.3890 C.2   147  SER147      0.2460
     22  O         35.0160   30.2190   68.5670 O.2   147  SER147     -0.2732
     23  CB        34.0270   27.7090   68.2360 C.3   147  SER147      0.2103
     24  OG        33.5200   26.4610   67.9190 O.3   147  SER147     -0.2182
     25  N         35.7640   30.5410   66.4450 N.am  148  PRO148     -0.2728
     26  CA        36.3940   31.7970   66.7680 C.3   148  PRO148      0.1401
     27  C         35.4270   32.8000   67.3520 C.2   148  PRO148      0.2269
     28  O         34.2850   32.8860   66.8820 O.2   148  PRO148     -0.2865
     29  CB        36.8660   32.2820   65.4190 C.3   148  PRO148      0.0296
     30  CG        36.0050   31.5670   64.4020 C.3   148  PRO148      0.0237
     31  CD        35.8680   30.2370   64.9920 C.3   148  PRO148      0.0939
     32  N         33.7620   32.6440   69.9500 N.3   150  GLN150     -0.1231
     33  CA        32.6070   31.9900   70.5660 C.3   150  GLN150      0.1698
     34  C         33.0890   31.0520   71.6670 C.2   150  GLN150      0.2592
     35  O         32.7780   31.2690   72.8300 O.2   150  GLN150     -0.2718
     36  CB        31.7960   31.2570   69.4890 C.3   150  GLN150      0.0381
     37  CG        30.5500   30.5280   69.9840 C.3   150  GLN150      0.0905
     38  CD        29.6390   31.4280   70.7970 C.2   150  GLN150      0.2608
     39  OE1       29.2160   31.0770   71.9220 O.2   150  GLN150     -0.2717
     40  NE2       29.3040   32.6010   70.2430 N.am  150  GLN150     -0.0878
     41  N         33.7920   30.0080   71.3050 N.am  151  TYR151     -0.1976
     42  CA        34.3710   29.0950   72.2790 C.3   151  TYR151      0.1639
     43  C         35.4650   28.2210   71.6970 C.2   151  TYR151      0.2290
     44  O         35.2980   27.0400   71.4670 O.2   151  TYR151     -0.2864
     45  CB        33.3420   28.3090   73.0910 C.3   151  TYR151      0.0560
     46  CG        32.0890   27.8420   72.3580 C.ar  151  TYR151     -0.0198
     47  CD1       32.1610   27.1870   71.1610 C.ar  151  TYR151     -0.0009
     48  CD2       30.8520   28.1000   72.8990 C.ar  151  TYR151     -0.0009
     49  CE1       31.0170   26.7560   70.4880 C.ar  151  TYR151      0.0417
     50  CE2       29.6740   27.6720   72.2480 C.ar  151  TYR151      0.0417
     51  CZ        29.7880   26.9820   71.0600 C.ar  151  TYR151      0.1957
     52  OH        28.6350   26.5860   70.4340 O.3   151  TYR151     -0.2866
     53  N         20.3640   30.3070   68.7730 N.3   200  ARG200     -0.1245
     54  CA        21.5140   29.9910   67.9290 C.3   200  ARG200      0.1563
     55  C         21.1910   29.0450   66.7370 C.2   200  ARG200      0.2260
     56  O         21.6450   29.2950   65.6090 O.2   200  ARG200     -0.2867
     57  CB        22.6370   29.3980   68.7780 C.3   200  ARG200      0.0307
     58  CG        23.8860   29.0830   67.9520 C.3   200  ARG200      0.0489
     59  CD        25.1080   28.8720   68.8230 C.3   200  ARG200      0.2205
     60  NE        26.2620   28.4800   68.0330 N.pl3 200  ARG200     -0.0865
     61  CZ        27.0370   29.3350   67.3720 C.cat 200  ARG200      0.5346
     62  NH1       26.7810   30.6590   67.3690 N.pl3 200  ARG200      0.1354
     63  NH2       28.0700   28.8660   66.6950 N.pl3 200  ARG200      0.1354
     64  N         23.9020   30.2800   57.7710 N.3   207  GLN207     -0.1245
     65  CA        25.3100   29.9410   57.4870 C.3   207  GLN207      0.1566
     66  C         25.4960   28.5090   56.9530 C.2   207  GLN207      0.2260
     67  O         26.5240   28.2150   56.3550 O.2   207  GLN207     -0.2867
     68  CB        26.2120   29.9810   58.7350 C.3   207  GLN207      0.0367
     69  CG        26.7940   31.3010   59.2620 C.3   207  GLN207      0.0905
     70  CD        27.9750   30.9740   60.2190 C.2   207  GLN207      0.2608
     71  OE1       27.7570   30.6390   61.3850 O.2   207  GLN207     -0.2717
     72  NE2       29.2130   30.9820   59.7020 N.am  207  GLN207     -0.0878
     73  N         28.0590   22.1840   56.6360 N.3   244  ARG244     -0.1245
     74  CA        28.9300   23.0890   57.3870 C.3   244  ARG244      0.1563
     75  C         30.2030   22.3410   57.8600 C.2   244  ARG244      0.2260
     76  O         30.1630   21.1090   58.1050 O.2   244  ARG244     -0.2867
     77  CB        28.1500   23.6270   58.5790 C.3   244  ARG244      0.0307
     78  CG        28.8990   24.4270   59.6370 C.3   244  ARG244      0.0489
     79  CD        27.9440   24.8660   60.7260 C.3   244  ARG244      0.2205
     80  NE        28.6300   25.6020   61.7880 N.pl3 244  ARG244     -0.0865
     81  CZ        28.8440   26.8940   61.7840 C.cat 244  ARG244      0.5346
     82  NH1       28.4930   27.6570   60.7430 N.pl3 244  ARG244      0.1354
     83  NH2       29.4460   27.4280   62.8390 N.pl3 244  ARG244      0.1354
@<TRIPOS>BOND
     1    67    66    2
     2    73    74    1
     3    66    65    1
     4    74    75    1
     5    74    77    1
     6    65    64    1
     7    65    68    1
     8    75    76    2
     9    77    78    1
    10    68    69    1
    11    69    70    1
    12    18    16    1
    13    78    79    1
    14    72    70   am
    15    70    71    2
    16    79    80    1
    17    82    81    1
    18    16    17    1
    19    16    15    1
    20    81    80    2
    21    81    83    1
    22    15    12    1
    23    12    11    1
    24    12    13    1
    25     5     2    1
    26    14    13    2
    27     4     3    2
    28     2     3    1
    29     2     1    1
    30     3     6   am
    31    30    31    1
    32    30    29    1
    33    31    25    1
    34     6     7    1
    35    29    26    1
    36    56    55    2
    37     7     8    1
    38     7    10    1
    39     8     9    2
    40    19    20    1
    41    25    26    1
    42    25    21   am
    43    63    61    1
    44    55    54    1
    45    26    27    1
    46    28    27    2
    47    20    21    1
    48    20    23    1
    49    62    61    1
    50    61    60    2
    51    21    22    2
    52    24    23    1
    53    54    53    1
    54    54    57    1
    55    58    57    1
    56    58    59    1
    57    60    59    1
    58    36    37    1
    59    36    33    1
    60    32    33    1
    61    37    38    1
    62    40    38   am
    63    52    51    1
    64    49    51   ar
    65    49    47   ar
    66    33    34    1
    67    38    39    2
    68    51    50   ar
    69    47    46   ar
    70    41    34   am
    71    41    42    1
    72    44    43    2
    73    34    35    2
    74    43    42    1
    75    50    48   ar
    76    42    45    1
    77    46    48   ar
    78    46    45    1
