@<TRIPOS>MOLECULE
tmp/4iqiB00.pdb
 122 120 0 0 0
SMALL
GASTEIGER

@<TRIPOS>ATOM
      1  N         -6.6530   58.5200   24.6220 N.3    34  TRP34      -0.1241
      2  CA        -6.5140   59.3480   25.7920 C.3    34  TRP34       0.1605
      3  C         -6.9330   58.5010   26.9590 C.2    34  TRP34       0.2264
      4  O         -7.9140   57.7480   26.8550 O.2    34  TRP34      -0.2867
      5  CB        -7.4530   60.5640   25.7130 C.3    34  TRP34       0.0550
      6  CG        -7.0050   61.6510   24.7540 C.ar   34  TRP34       0.0003
      7  CD1       -6.9810   61.5990   23.3750 C.ar   34  TRP34       0.0946
      8  CD2       -6.5280   62.9560   25.1050 C.ar   34  TRP34       0.0152
      9  NE1       -6.5160   62.7900   22.8580 N.ar   34  TRP34      -0.2442
     10  CE2       -6.2390   63.6380   23.8960 C.ar   34  TRP34       0.0810
     11  CE3       -6.3270   63.6140   26.3170 C.ar   34  TRP34       0.0012
     12  CZ2       -5.7570   64.9270   23.8750 C.ar   34  TRP34       0.0191
     13  CZ3       -5.8470   64.9070   26.2930 C.ar   34  TRP34       0.0001
     14  CH2       -5.5670   65.5500   25.0770 C.ar   34  TRP34       0.0015
     15  N         -8.6840   68.3910   16.9490 N.3    64  LEU64      -0.1231
     16  CA        -8.2480   67.7510   18.1800 C.3    64  LEU64       0.1693
     17  C         -8.7430   68.5250   19.4000 C.2    64  LEU64       0.2592
     18  O         -9.2040   69.6660   19.2940 O.2    64  LEU64      -0.2718
     19  CB        -6.7270   67.5690   18.1930 C.3    64  LEU64       0.0284
     20  CG        -5.8710   68.8140   18.0950 C.3    64  LEU64       0.0019
     21  CD1       -5.5760   69.3670   19.4910 C.3    64  LEU64       0.0001
     22  CD2       -4.5970   68.4450   17.3810 C.3    64  LEU64       0.0001
     23  N         -8.6870   67.8830   20.5610 N.am   65  ILE65      -0.1966
     24  CA        -9.1910   68.5200   21.7580 C.3    65  ILE65       0.1727
     25  C         -8.0330   69.0370   22.5890 C.2    65  ILE65       0.2616
     26  O         -7.1870   68.2790   23.0290 O.2    65  ILE65      -0.2715
     27  CB       -10.0970   67.5620   22.5980 C.3    65  ILE65       0.0290
     28  CG1      -11.0750   66.8470   21.6560 C.3    65  ILE65       0.0022
     29  CG2      -10.7930   68.3510   23.7270 C.3    65  ILE65       0.0023
     30  CD1      -12.2270   66.2170   22.3230 C.3    65  ILE65       0.0001
     31  N         -8.0310   70.3460   22.7720 N.am   66  GLU66      -0.1963
     32  CA        -7.1010   71.0510   23.6260 C.3    66  GLU66       0.1733
     33  C         -7.1400   70.4600   25.0340 C.2    66  GLU66       0.2617
     34  O         -8.1960   70.3330   25.6320 O.2    66  GLU66      -0.2715
     35  CB        -7.5130   72.5270   23.6540 C.3    66  GLU66       0.0429
     36  CG        -6.3960   73.4830   24.0220 C.3    66  GLU66       0.1163
     37  CD        -5.8360   73.2100   25.3910 C.2    66  GLU66       0.3649
     38  OE1       -6.6510   73.0150   26.3200 O.co2  66  GLU66      -0.2457
     39  OE2       -4.5940   73.1600   25.5310 O.co2  66  GLU66      -0.2457
     40  N         -5.9810   70.1240   25.5740 N.am   67  SER67      -0.1936
     41  CA        -5.8890   69.4460   26.8610 C.3    67  SER67       0.2055
     42  C         -6.4650   70.2090   28.0720 C.2    67  SER67       0.2642
     43  O         -7.1960   69.6230   28.8700 O.2    67  SER67      -0.2714
     44  CB        -4.4360   69.0550   27.1280 C.3    67  SER67       0.2130
     45  OG        -4.3670   67.9230   27.9760 O.3    67  SER67      -0.2179
     46  N         -6.1150   71.4890   28.2240 N.am   68  LYS68      -0.1977
     47  CA        -6.5340   72.2730   29.3910 C.3    68  LYS68       0.1596
     48  C         -8.0350   72.1840   29.4770 C.2    68  LYS68       0.2287
     49  O         -8.5980   71.7670   30.4880 O.2    68  LYS68      -0.2864
     50  CB        -6.1600   73.7560   29.2380 C.3    68  LYS68       0.0298
     51  CG        -4.6740   74.0880   29.2710 C.3    68  LYS68       0.0038
     52  CD        -4.4520   75.6250   29.3090 C.3    68  LYS68       0.0206
     53  CE        -3.9910   76.2510   27.9600 C.3    68  LYS68       0.1093
     54  NZ        -5.0050   76.3430   26.8490 N.3    68  LYS68      -0.1314
     55  N          6.4320   71.8840   26.7860 N.3   165  CYS165     -0.1221
     56  CA         5.0700   72.3250   26.4810 C.3   165  CYS165      0.1808
     57  C          5.1140   73.5340   25.5640 C.2   165  CYS165      0.2601
     58  O          5.8530   74.5040   25.8170 O.2   165  CYS165     -0.2717
     59  CB         4.2470   72.6370   27.7440 C.3   165  CYS165      0.0970
     60  SG         2.4250   72.8090   27.4590 S.3   165  CYS165     -0.0800
     61  N          4.3410   73.4410   24.4830 N.am  166  LEU166     -0.1965
     62  CA         4.1480   74.5650   23.5910 C.3   166  LEU166      0.1728
     63  C          3.5510   75.7270   24.3800 C.2   166  LEU166      0.2616
     64  O          4.0530   76.8500   24.2890 O.2   166  LEU166     -0.2715
     65  CB         3.2610   74.1830   22.4020 C.3   166  LEU166      0.0311
     66  CG         3.9800   74.2710   21.0590 C.3   166  LEU166      0.0022
     67  CD1        3.0340   73.9870   19.8980 C.3   166  LEU166      0.0001
     68  CD2        4.5970   75.6440   20.9340 C.3   166  LEU166      0.0001
     69  N          2.5160   75.4460   25.1780 N.am  167  ILE167     -0.1977
     70  CA         1.8490   76.4770   26.0010 C.3   167  ILE167      0.1596
     71  C          2.6920   77.0290   27.1940 C.2   167  ILE167      0.2287
     72  O          3.0400   78.2170   27.2100 O.2   167  ILE167     -0.2864
     73  CB         0.4200   76.0290   26.4860 C.3   167  ILE167      0.0276
     74  CG1       -0.3780   75.3730   25.3460 C.3   167  ILE167      0.0022
     75  CG2       -0.3430   77.2160   27.0660 C.3   167  ILE167      0.0022
     76  CD1       -0.8430   73.9580   25.6510 C.3   167  ILE167      0.0001
     77  N          7.2010   67.2780   28.8880 N.3   172  ASP172     -0.1239
     78  CA         6.3740   66.0970   28.7140 C.3   172  ASP172      0.1674
     79  C          7.3560   64.9290   28.5980 C.2   172  ASP172      0.2266
     80  O          8.5360   65.1360   28.2920 O.2   172  ASP172     -0.2867
     81  CB         5.4910   66.1860   27.4490 C.3   172  ASP172      0.1410
     82  CG         4.3840   67.2680   27.5440 C.2   172  ASP172      0.3668
     83  OD1        3.5720   67.2630   28.4980 O.co2 172  ASP172     -0.2456
     84  OD2        4.3250   68.1270   26.6310 O.co2 172  ASP172     -0.2456
     85  N          3.9610   69.4170   20.7680 N.3   202  PHE202     -0.1227
     86  CA         2.9120   68.7760   21.5090 C.3   202  PHE202      0.1736
     87  C          2.7400   67.3690   20.9510 C.2   202  PHE202      0.2595
     88  O          3.3180   67.0300   19.9260 O.2   202  PHE202     -0.2718
     89  CB         1.6330   69.5910   21.4380 C.3   202  PHE202      0.0547
     90  CG         1.1260   69.7960   20.0670 C.ar  202  PHE202     -0.0202
     91  CD1        1.7170   70.7490   19.2440 C.ar  202  PHE202     -0.0042
     92  CD2        0.0420   69.0570   19.6070 C.ar  202  PHE202     -0.0042
     93  CE1        1.2620   70.9520   17.9800 C.ar  202  PHE202     -0.0003
     94  CE2       -0.4320   69.2480   18.3430 C.ar  202  PHE202     -0.0003
     95  CZ         0.1770   70.2110   17.5220 C.ar  202  PHE202     -0.0000
     96  N          1.9550   66.5540   21.6420 N.am  203  HIS203     -0.1961
     97  CA         1.9890   65.1030   21.4710 C.3   203  HIS203      0.1787
     98  C          1.6230   64.5930   20.0810 C.2   203  HIS203      0.2620
     99  O          2.4220   63.9060   19.4170 O.2   203  HIS203     -0.2715
    100  CB         1.0380   64.4970   22.4710 C.3   203  HIS203      0.0785
    101  CG         1.2770   64.9400   23.8860 C.ar  203  HIS203      0.0821
    102  ND1        0.7860   66.1240   24.3920 N.ar  203  HIS203     -0.2267
    103  CD2        1.8910   64.3220   24.9200 C.ar  203  HIS203      0.1154
    104  CE1        1.1040   66.2250   25.6670 C.ar  203  HIS203      0.1986
    105  NE2        1.7780   65.1420   26.0120 N.ar  203  HIS203     -0.2212
    106  N          0.4080   64.9240   19.6380 N.am  204  GLU204     -0.1977
    107  CA        -0.1070   64.3990   18.3540 C.3   204  GLU204      0.1602
    108  C          0.7810   64.7890   17.1540 C.2   204  GLU204      0.2287
    109  O          1.0680   63.9530   16.2840 O.2   204  GLU204     -0.2864
    110  CB        -1.5720   64.8200   18.1140 C.3   204  GLU204      0.0415
    111  CG        -2.5600   64.3850   19.1910 C.3   204  GLU204      0.1163
    112  CD        -2.7590   65.4760   20.2520 C.2   204  GLU204      0.3649
    113  OE1       -1.7410   66.0570   20.7050 O.co2 204  GLU204     -0.2457
    114  OE2       -3.9280   65.7870   20.6190 O.co2 204  GLU204     -0.2457
    115  N         -2.1220   61.1710   26.6520 N.3   236  ILE236     -0.1245
    116  CA        -2.4240   61.1050   25.2430 C.3   236  ILE236      0.1561
    117  C         -1.4180   60.1280   24.6560 C.2   236  ILE236      0.2260
    118  O         -0.2610   60.0790   25.0820 O.2   236  ILE236     -0.2867
    119  CB        -2.2810   62.5080   24.6540 C.3   236  ILE236      0.0252
    120  CG1       -2.5030   62.5450   23.1410 C.3   236  ILE236      0.0019
    121  CG2       -0.9760   62.9830   24.9440 C.3   236  ILE236      0.0019
    122  CD1       -3.6540   61.7690   22.7040 C.3   236  ILE236      0.0001
@<TRIPOS>BOND
     1   109   108    2
     2    15    16    1
     3   108   107    1
     4    22    20    1
     5    95    93   ar
     6    95    94   ar
     7    93    91   ar
     8    20    19    1
     9    20    21    1
    10   110   107    1
    11   110   111    1
    12    16    19    1
    13    16    17    1
    14    94    92   ar
    15   107   106    1
    16   111   112    1
    17    91    90   ar
    18    18    17    2
    19    17    23   am
    20    99    98    2
    21    92    90   ar
    22   106    98   am
    23    67    66    1
    24    88    87    2
    25    90    89    1
    26    98    97    1
    27   112   114   ar
    28   112   113   ar
    29    23    24    1
    30    85    86    1
    31    68    66    1
    32    87    86    1
    33    87    96   am
    34    66    65    1
    35    89    86    1
    36    97    96    1
    37    97   100    1
    38    28    30    1
    39    28    27    1
    40    24    25    1
    41    24    27    1
    42    65    62    1
    43   100   101    1
    44    25    31   am
    45    25    26    2
    46    27    29    1
    47   122   120    1
    48    31    32    1
    49     9     7   ar
    50     9    10   ar
    51   120   119    1
    52     7     6   ar
    53    62    63    1
    54    62    61    1
    55    32    35    1
    56    32    33    1
    57    35    36    1
    58    12    10   ar
    59    12    14   ar
    60   101   102   ar
    61   101   103   ar
    62    10     8   ar
    63    36    37    1
    64    64    63    2
    65    63    69   am
    66   102   104   ar
    67    61    57   am
    68     1     2    1
    69   119   121    1
    70   119   116    1
    71   117   118    2
    72   117   116    1
    73     6     8   ar
    74     6     5    1
    75   103   105   ar
    76    33    40   am
    77    33    34    2
    78    14    13   ar
    79     8    11   ar
    80    69    70    1
    81   116   115    1
    82    74    76    1
    83    74    73    1
    84    37    39   ar
    85    37    38   ar
    86    57    58    2
    87    57    56    1
    88    40    41    1
    89   104   105   ar
    90     5     2    1
    91     2     3    1
    92    70    73    1
    93    70    71    1
    94    13    11   ar
    95    56    55    1
    96    56    59    1
    97    73    75    1
    98    84    82   ar
    99    54    53    1
   100     4     3    2
   101    41    44    1
   102    41    42    1
   103    44    45    1
   104    71    72    2
   105    81    82    1
   106    81    78    1
   107    60    59    1
   108    82    83   ar
   109    53    52    1
   110    42    46   am
   111    42    43    2
   112    46    47    1
   113    80    79    2
   114    79    78    1
   115    78    77    1
   116    50    51    1
   117    50    47    1
   118    51    52    1
   119    47    48    1
   120    48    49    2
