@<TRIPOS>MOLECULE
tmp/4iqkA00.pdb
 139 130 0 0 0
SMALL
GASTEIGER

@<TRIPOS>ATOM
      1  N        -41.6160   12.0470  -14.4470 N.3    10  TYR10      -0.1241
      2  CA       -42.9630   12.4960  -14.2820 C.3    10  TYR10       0.1605
      3  C        -43.0880   13.0840  -12.8880 C.2    10  TYR10       0.2264
      4  O        -42.7270   12.4600  -11.9110 O.2    10  TYR10      -0.2867
      5  CB       -43.9800   11.3710  -14.5040 C.3    10  TYR10       0.0534
      6  CG       -45.4080   11.8750  -14.3850 C.ar   10  TYR10      -0.0201
      7  CD1      -46.0750   12.4160  -15.4870 C.ar   10  TYR10      -0.0009
      8  CD2      -46.0500   11.9190  -13.1370 C.ar   10  TYR10      -0.0009
      9  CE1      -47.3870   12.9170  -15.3640 C.ar   10  TYR10       0.0417
     10  CE2      -47.3470   12.4110  -13.0080 C.ar   10  TYR10       0.0417
     11  CZ       -48.0050   12.9130  -14.1210 C.ar   10  TYR10       0.1957
     12  OH       -49.2850   13.3990  -13.9720 O.3    10  TYR10      -0.2866
     13  N        -41.8520   10.6300  -20.0510 N.3    39  SER39      -0.1202
     14  CA       -41.8540    9.7610  -18.9250 C.3    39  SER39       0.2020
     15  C        -42.0700    8.3800  -19.4470 C.2    39  SER39       0.2619
     16  O        -42.5450    8.2060  -20.5410 O.2    39  SER39      -0.2717
     17  CB       -42.9900   10.1370  -17.9440 C.3    39  SER39       0.2103
     18  OG       -44.1700   10.3090  -18.6500 O.3    39  SER39      -0.2182
     19  N        -41.7970    7.3960  -18.6000 N.am   40  GLY40      -0.1956
     20  CA       -41.9530    5.9870  -18.9430 C.3    40  GLY40       0.1869
     21  C        -41.0180    5.5120  -20.0560 C.2    40  GLY40       0.2309
     22  O        -41.3100    4.5500  -20.7570 O.2    40  GLY40      -0.2863
     23  N        -46.8030   13.4280  -21.3090 N.3    58  ASN58      -0.1240
     24  CA       -48.0260   13.6910  -20.5700 C.3    58  ASN58       0.1653
     25  C        -47.9180   15.1600  -20.1980 C.2    58  ASN58       0.2266
     26  O        -47.1000   15.5440  -19.3450 O.2    58  ASN58      -0.2867
     27  CB       -48.1000   12.7720  -19.3570 C.3    58  ASN58       0.1155
     28  CG       -49.3970   12.9040  -18.5750 C.2    58  ASN58       0.2627
     29  OD1      -50.0850   13.9340  -18.6150 O.2    58  ASN58      -0.2716
     30  ND2      -49.7280   11.8520  -17.8240 N.am   58  ASN58      -0.0877
     31  N        -44.6850    3.2760  -24.6970 N.3    90  ASN90      -0.1225
     32  CA       -44.6420    3.9210  -23.4280 C.3    90  ASN90       0.1785
     33  C        -44.4120    2.7840  -22.4300 C.2    90  ASN90       0.2597
     34  O        -44.8950    1.7150  -22.6670 O.2    90  ASN90      -0.2718
     35  CB       -45.9650    4.5990  -23.1700 C.3    90  ASN90       0.1169
     36  CG       -46.0190    5.2400  -21.8350 C.2    90  ASN90       0.2627
     37  OD1      -45.0070    5.8030  -21.3330 O.2    90  ASN90      -0.2716
     38  ND2      -47.1500    5.1050  -21.1910 N.am   90  ASN90      -0.0877
     39  N        -43.6920    3.0030  -21.3420 N.am   91  ARG91      -0.1979
     40  CA       -43.4900    1.9740  -20.3060 C.3    91  ARG91       0.1597
     41  C        -42.7420    0.7380  -20.8600 C.2    91  ARG91       0.2287
     42  O        -43.0710   -0.3820  -20.5750 O.2    91  ARG91      -0.2864
     43  CB       -44.7950    1.5750  -19.6420 C.3    91  ARG91       0.0334
     44  CG       -45.5190    2.7110  -18.9930 C.3    91  ARG91       0.0492
     45  CD       -46.7760    2.2560  -18.2770 C.3    91  ARG91       0.2205
     46  NE       -47.5930    3.4170  -17.9570 N.pl3  91  ARG91      -0.0865
     47  CZ       -48.8490    3.3660  -17.5430 C.cat  91  ARG91       0.5346
     48  NH1      -49.4460    2.2030  -17.3630 N.pl3  91  ARG91       0.1354
     49  NH2      -49.5070    4.4890  -17.2880 N.pl3  91  ARG91       0.1354
     50  N        -44.5750   -1.9250  -18.8400 N.3   138  GLY138     -0.1225
     51  CA       -44.0020   -1.7710  -17.5240 C.3   138  GLY138      0.1811
     52  C        -43.1310   -2.9990  -17.2470 C.2   138  GLY138      0.2280
     53  O        -43.0180   -3.4400  -16.1400 O.2   138  GLY138     -0.2866
     54  N        -51.6930   -8.3770  -14.3700 N.3   159  ARG159     -0.1245
     55  CA       -50.3830   -8.0680  -13.9200 C.3   159  ARG159      0.1563
     56  C        -49.6110   -9.3700  -13.7290 C.2   159  ARG159      0.2260
     57  O        -50.2180  -10.3700  -13.4050 O.2   159  ARG159     -0.2867
     58  CB       -50.4870   -7.2730  -12.6690 C.3   159  ARG159      0.0307
     59  CG       -49.5730   -6.1150  -12.7030 C.3   159  ARG159      0.0489
     60  CD       -50.0490   -5.0810  -11.7450 C.3   159  ARG159      0.2205
     61  NE       -51.1960   -4.4060  -12.2830 N.pl3 159  ARG159     -0.0865
     62  CZ       -51.1750   -3.3140  -13.0200 C.cat 159  ARG159      0.5346
     63  NH1      -50.0360   -2.7530  -13.4230 N.pl3 159  ARG159      0.1354
     64  NH2      -52.3350   -2.7940  -13.3740 N.pl3 159  ARG159      0.1354
     65  N        -45.5280   -5.2080  -11.9500 N.3   184  SER184     -0.1202
     66  CA       -45.3210   -4.3230  -13.0910 C.3   184  SER184      0.2020
     67  C        -44.5540   -3.1110  -12.5910 C.2   184  SER184      0.2619
     68  O        -44.6340   -2.7800  -11.4140 O.2   184  SER184     -0.2717
     69  CB       -46.6240   -3.8870  -13.7320 C.3   184  SER184      0.2103
     70  OG       -47.4080   -3.1010  -12.8620 O.3   184  SER184     -0.2182
     71  N        -43.8420   -2.4260  -13.4890 N.am  185  GLY185     -0.1956
     72  CA       -43.1140   -1.2180  -13.1090 C.3   185  GLY185      0.1869
     73  C        -41.9730   -1.4300  -12.1180 C.2   185  GLY185      0.2309
     74  O        -41.6330   -0.5200  -11.3410 O.2   185  GLY185     -0.2863
     75  N        -45.3560   -2.9820   -8.7030 N.3   201  TYR201     -0.1241
     76  CA       -46.7710   -2.8650   -8.3180 C.3   201  TYR201      0.1605
     77  C        -47.4230   -4.2070   -8.5620 C.2   201  TYR201      0.2264
     78  O        -47.2820   -4.7710   -9.6360 O.2   201  TYR201     -0.2867
     79  CB       -47.4430   -1.7740   -9.1440 C.3   201  TYR201      0.0534
     80  CG       -48.9070   -1.5680   -8.8430 C.ar  201  TYR201     -0.0201
     81  CD1      -49.3080   -1.0040   -7.6510 C.ar  201  TYR201     -0.0009
     82  CD2      -49.8950   -1.9080   -9.7820 C.ar  201  TYR201     -0.0009
     83  CE1      -50.6400   -0.8310   -7.3660 C.ar  201  TYR201      0.0417
     84  CE2      -51.2390   -1.6940   -9.5180 C.ar  201  TYR201      0.0417
     85  CZ       -51.5980   -1.1670   -8.3000 C.ar  201  TYR201      0.1957
     86  OH       -52.9120   -0.9580   -7.9920 O.3   201  TYR201     -0.2866
     87  N        -47.8050   -0.8670   -4.0550 N.3   206  GLN206     -0.1245
     88  CA       -46.3880   -0.6730   -4.4030 C.3   206  GLN206      0.1566
     89  C        -45.5400   -1.5150   -3.4940 C.2   206  GLN206      0.2260
     90  O        -45.8810   -1.7420   -2.3120 O.2   206  GLN206     -0.2867
     91  CB       -46.0050    0.8010   -4.2970 C.3   206  GLN206      0.0367
     92  CG       -46.2530    1.5950   -5.5750 C.3   206  GLN206      0.0905
     93  CD       -47.7000    2.0060   -5.8000 C.2   206  GLN206      0.2608
     94  OE1      -48.4570    2.1820   -4.8630 O.2   206  GLN206     -0.2717
     95  NE2      -48.0700    2.1880   -7.0530 N.am  206  GLN206     -0.0878
     96  N        -42.8170    1.8880   -7.3050 N.3   231  SER231     -0.1202
     97  CA       -42.9830    1.4120   -8.6840 C.3   231  SER231      0.2020
     98  C        -42.5710    2.5160   -9.6350 C.2   231  SER231      0.2618
     99  O        -42.4490    3.6620   -9.1970 O.2   231  SER231     -0.2717
    100  CB       -44.4240    0.9790   -8.9300 C.3   231  SER231      0.2103
    101  OG       -45.2480    2.1050   -8.7810 O.3   231  SER231     -0.2182
    102  N        -42.3780    2.1760  -10.9410 N.am  232  ALA232     -0.1979
    103  CA       -41.9140    3.0880  -11.9910 C.3   232  ALA232      0.1597
    104  C        -40.6080    3.7940  -11.5550 C.2   232  ALA232      0.2287
    105  O        -40.4360    5.0030  -11.7310 O.2   232  ALA232     -0.2864
    106  CB       -42.9990    4.0860  -12.3600 C.3   232  ALA232      0.0319
    107  N        -42.8590    6.0300   -7.5660 N.3   248  TYR248     -0.1241
    108  CA       -44.0910    6.4420   -6.8780 C.3   248  TYR248      0.1605
    109  C        -44.3420    5.4510   -5.7430 C.2   248  TYR248      0.2264
    110  O        -44.3020    4.2390   -5.9650 O.2   248  TYR248     -0.2867
    111  CB       -45.2490    6.4000   -7.8280 C.3   248  TYR248      0.0534
    112  CG       -46.5780    6.8690   -7.2530 C.ar  248  TYR248     -0.0201
    113  CD1      -46.7230    8.1560   -6.8160 C.ar  248  TYR248     -0.0009
    114  CD2      -47.6930    6.0120   -7.1990 C.ar  248  TYR248     -0.0009
    115  CE1      -47.9330    8.6120   -6.3070 C.ar  248  TYR248      0.0417
    116  CE2      -48.9070    6.4590   -6.7280 C.ar  248  TYR248      0.0417
    117  CZ       -49.0170    7.7640   -6.2770 C.ar  248  TYR248      0.1957
    118  OH       -50.1940    8.2610   -5.7860 O.3   248  TYR248     -0.2866
    119  N        -44.2840   11.0360   -5.0620 N.3   253  PHE253     -0.1241
    120  CA       -43.2330   10.8350   -6.0240 C.3   253  PHE253      0.1605
    121  C        -41.9270   11.0480   -5.3020 C.2   253  PHE253      0.2264
    122  O        -41.6910   12.1120   -4.7260 O.2   253  PHE253     -0.2867
    123  CB       -43.3850   11.8040   -7.1670 C.3   253  PHE253      0.0534
    124  CG       -44.5970   11.5500   -8.0080 C.ar  253  PHE253     -0.0203
    125  CD1      -44.5340   10.6610   -9.0730 C.ar  253  PHE253     -0.0042
    126  CD2      -45.7940   12.2030   -7.7560 C.ar  253  PHE253     -0.0042
    127  CE1      -45.6290   10.4120   -9.8530 C.ar  253  PHE253     -0.0003
    128  CE2      -46.9040   11.9710   -8.5510 C.ar  253  PHE253     -0.0003
    129  CZ       -46.8340   11.0770   -9.6000 C.ar  253  PHE253     -0.0000
    130  N        -41.0870    9.9840  -10.9790 N.3   278  SER278     -0.1202
    131  CA       -41.1540    8.5860  -11.3430 C.3   278  SER278      0.2020
    132  C        -40.9610    8.4120  -12.8240 C.2   278  SER278      0.2619
    133  O        -41.0070    9.3850  -13.5940 O.2   278  SER278     -0.2717
    134  CB       -42.4850    7.9910  -10.9260 C.3   278  SER278      0.2103
    135  OG       -43.5380    8.5620  -11.7140 O.3   278  SER278     -0.2182
    136  N        -40.8010    7.1630  -13.2560 N.am  279  GLY279     -0.1956
    137  CA       -40.7820    6.8410  -14.6690 C.3   279  GLY279      0.1869
    138  C        -39.6110    7.4250  -15.4590 C.2   279  GLY279      0.2309
    139  O        -39.7530    7.8020  -16.6420 O.2   279  GLY279     -0.2863
@<TRIPOS>BOND
     1    31    32    1
     2    32    35    1
     3    32    33    1
     4    35    36    1
     5    34    33    2
     6    33    39   am
     7    36    37    2
     8    36    38   am
     9    39    40    1
    10    23    24    1
    11    41    42    2
    12    41    40    1
    13    22    21    2
    14    24    25    1
    15    24    27    1
    16    16    15    2
    17    40    43    1
    18    25    26    2
    19    21    20    1
    20    13    14    1
    21    43    44    1
    22    15    14    1
    23    15    19   am
    24    27    28    1
    25    44    45    1
    26    20    19    1
    27    14    17    1
    28    50    51    1
    29    18    17    1
    30    29    28    2
    31    28    30   am
    32    45    46    1
    33    46    47    2
    34    47    48    1
    35    47    49    1
    36    51    52    1
    37    52    53    2
    38   139   138    2
    39     7     9   ar
    40     7     6   ar
    41   138   137    1
    42     9    11   ar
    43   137   136    1
    44     5     6    1
    45     5     2    1
    46     1     2    1
    47     6     8   ar
    48    54    55    1
    49     2     3    1
    50    11    12    1
    51    11    10   ar
    52    55    56    1
    53    55    58    1
    54    69    66    1
    55    69    70    1
    56    56    57    2
    57   133   132    2
    58    71    72    1
    59    71    67   am
    60    63    62    1
    61    64    62    1
    62   136   132   am
    63     8    10   ar
    64    72    73    1
    65    66    67    1
    66    66    65    1
    67    62    61    2
    68     3     4    2
    69   132   131    1
    70    59    58    1
    71    59    60    1
    72    67    68    2
    73   106   103    1
    74    61    60    1
    75    73    74    2
    76   103   104    1
    77   103   102    1
    78   105   104    2
    79   135   134    1
    80   131   130    1
    81   131   134    1
    82   102    98   am
    83   127   129   ar
    84   127   125   ar
    85    82    84   ar
    86    82    80   ar
    87    78    77    2
    88    98    99    2
    89    98    97    1
    90   129   128   ar
    91    84    85   ar
    92    79    80    1
    93    79    76    1
    94   125   124   ar
    95   100   101    1
    96   100    97    1
    97    80    81   ar
    98    75    76    1
    99    97    96    1
   100    77    76    1
   101   128   126   ar
   102    85    86    1
   103    85    83   ar
   104   124   126   ar
   105   124   123    1
   106   111   112    1
   107   111   108    1
   108    81    83   ar
   109   107   108    1
   110   112   114   ar
   111   112   113   ar
   112   114   116   ar
   113   123   120    1
   114    95    93   am
   115   108   109    1
   116   113   115   ar
   117   116   117   ar
   118   115   117   ar
   119   117   118    1
   120   120   121    1
   121   120   119    1
   122   110   109    2
   123    93    92    1
   124    93    94    2
   125    92    91    1
   126   121   122    2
   127    88    91    1
   128    88    87    1
   129    88    89    1
   130    89    90    2
