@<TRIPOS>MOLECULE
tmp/4iqlB01.pdb
 124 123 0 0 0
SMALL
GASTEIGER

@<TRIPOS>ATOM
      1  N        -10.5160   -5.4180   -2.0050 N.3    19  MET19      -0.1245
      2  CA       -11.4340   -4.5290   -1.3100 C.3    19  MET19       0.1570
      3  C        -11.4550   -4.9070    0.1580 C.2    19  MET19       0.2261
      4  O        -11.8010   -6.0310    0.4880 O.2    19  MET19      -0.2867
      5  CB       -12.8650   -4.6950   -1.8890 C.3    19  MET19       0.0387
      6  CG       -13.0010   -4.0170   -3.2490 C.3    19  MET19       0.0595
      7  SD       -14.5580   -4.3220   -4.0620 S.3    19  MET19      -0.1393
      8  CE       -14.4370   -6.1030   -4.3610 C.3    19  MET19       0.0692
      9  N        -12.6910   -5.8720    3.6650 N.3    21  TRP21      -0.1227
     10  CA       -13.9300   -6.4200    4.2550 C.3    21  TRP21       0.1737
     11  C        -14.7980   -7.1790    3.2590 C.2    21  TRP21       0.2596
     12  O        -15.8660   -7.6960    3.6200 O.2    21  TRP21      -0.2718
     13  CB       -14.7520   -5.3320    4.9840 C.3    21  TRP21       0.0564
     14  CG       -13.8960   -4.5870    5.9360 C.ar   21  TRP21       0.0003
     15  CD1      -13.5060   -3.2750    5.8560 C.ar   21  TRP21       0.0946
     16  CD2      -13.1920   -5.1520    7.0610 C.ar   21  TRP21       0.0152
     17  NE1      -12.5890   -2.9940    6.8660 N.ar   21  TRP21      -0.2442
     18  CE2      -12.3910   -4.1280    7.6130 C.ar   21  TRP21       0.0810
     19  CE3      -13.1890   -6.4310    7.6710 C.ar   21  TRP21       0.0012
     20  CZ2      -11.5610   -4.3410    8.7300 C.ar   21  TRP21       0.0191
     21  CZ3      -12.3750   -6.6330    8.7870 C.ar   21  TRP21       0.0001
     22  CH2      -11.5690   -5.6020    9.2940 C.ar   21  TRP21       0.0015
     23  N        -14.3640   -7.2470    2.0090 N.am   22  CYS22      -0.1956
     24  CA       -15.1510   -7.9030    0.9590 C.3    22  CYS22       0.1843
     25  C        -14.3830   -9.0630    0.3490 C.2    22  CYS22       0.2626
     26  O        -14.9670  -10.0870    0.0190 O.2    22  CYS22      -0.2714
     27  CB       -15.4850   -6.9270   -0.1920 C.3    22  CYS22       0.0997
     28  SG       -16.4430   -5.4790    0.2850 S.3    22  CYS22      -0.0797
     29  N        -13.0870   -8.8550    0.1040 N.am   23  SER23      -0.1936
     30  CA       -12.2890   -9.7760   -0.6930 C.3    23  SER23       0.2055
     31  C        -11.5980  -10.8650    0.1230 C.2    23  SER23       0.2644
     32  O        -10.3380  -10.9220    0.1560 O.2    23  SER23      -0.2714
     33  CB       -11.2190   -8.9860   -1.4720 C.3    23  SER23       0.2130
     34  OG       -11.8610   -8.0490   -2.3280 O.3    23  SER23      -0.2179
     35  N        -12.4160  -11.7740    0.6780 N.am   24  GLY24      -0.1939
     36  CA       -11.9280  -12.9720    1.3560 C.3    24  GLY24       0.2014
     37  C        -11.5740  -14.0040    0.2970 C.2    24  GLY24       0.2639
     38  O        -11.8340  -13.8090   -0.9130 O.2    24  GLY24      -0.2714
     39  N        -11.0110  -15.1220    0.7130 N.am   25  TRP25      -0.1959
     40  CA       -10.6950  -16.1990   -0.2420 C.3    25  TRP25       0.1771
     41  C        -11.9010  -16.6860   -1.0170 C.2    25  TRP25       0.2619
     42  O        -11.7560  -17.1810   -2.1370 O.2    25  TRP25      -0.2715
     43  CB        -9.9740  -17.3780    0.4410 C.3    25  TRP25       0.0590
     44  CG       -10.8450  -18.1840    1.3500 C.ar   25  TRP25       0.0006
     45  CD1      -10.9950  -18.0250    2.7020 C.ar   25  TRP25       0.0946
     46  CD2      -11.6960  -19.2660    0.9790 C.ar   25  TRP25       0.0152
     47  NE1      -11.8850  -18.9500    3.1900 N.ar   25  TRP25      -0.2442
     48  CE2      -12.3240  -19.7250    2.1540 C.ar   25  TRP25       0.0810
     49  CE3      -11.9770  -19.9030   -0.2330 C.ar   25  TRP25       0.0012
     50  CZ2      -13.2080  -20.8040    2.1570 C.ar   25  TRP25       0.0191
     51  CZ3      -12.8650  -20.9470   -0.2340 C.ar   25  TRP25       0.0001
     52  CH2      -13.4870  -21.3810    0.9530 C.ar   25  TRP25       0.0015
     53  N        -13.0960  -16.5540   -0.4450 N.am   26  LYS26      -0.1977
     54  CA       -14.2870  -17.0770   -1.1170 C.3    26  LYS26       0.1596
     55  C        -14.5680  -16.2670   -2.3830 C.2    26  LYS26       0.2287
     56  O        -14.8630  -16.8230   -3.4470 O.2    26  LYS26      -0.2864
     57  CB       -15.5100  -17.0420   -0.1870 C.3    26  LYS26       0.0298
     58  CG       -15.4080  -18.0550    0.9610 C.3    26  LYS26       0.0038
     59  CD       -16.6600  -18.0550    1.8840 C.3    26  LYS26       0.0206
     60  CE       -16.6600  -19.2950    2.8310 C.3    26  LYS26       0.1093
     61  NZ       -17.9850  -19.5230    3.5640 N.3    26  LYS26      -0.1314
     62  N         -8.0610   -9.1440   -0.3750 N.3    40  GLY40      -0.1225
     63  CA        -7.8470   -7.7740    0.1200 C.3    40  GLY40       0.1811
     64  C         -7.1340   -7.7760    1.4660 C.2    40  GLY40       0.2280
     65  O         -7.7870   -7.9230    2.4790 O.2    40  GLY40      -0.2866
     66  N         -7.6980   -5.5310    5.2120 N.3    43  SER43      -0.1202
     67  CA        -8.5470   -5.7870    6.3710 C.3    43  SER43       0.2020
     68  C         -8.1460   -7.0240    7.1770 C.2    43  SER43       0.2618
     69  O         -8.9480   -7.4950    7.9840 O.2    43  SER43      -0.2717
     70  CB       -10.0240   -5.9420    5.9500 C.3    43  SER43       0.2103
     71  OG       -10.1290   -6.8710    4.8740 O.3    43  SER43      -0.2182
     72  N         -6.9530   -7.5770    6.9170 N.am   44  MET44      -0.1979
     73  CA        -6.5350   -8.8350    7.5230 C.3    44  MET44       0.1605
     74  C         -5.2630   -8.7110    8.3550 C.2    44  MET44       0.2287
     75  O         -4.2100   -8.2940    7.8430 O.2    44  MET44      -0.2864
     76  CB        -6.3260   -9.9090    6.4690 C.3    44  MET44       0.0413
     77  CG        -7.6080  -10.3400    5.7360 C.3    44  MET44       0.0598
     78  SD        -7.2190  -11.3240    4.2890 S.3    44  MET44      -0.1393
     79  CE        -8.8800  -11.4950    3.5690 C.3    44  MET44       0.0692
     80  N         -4.5100  -14.1030    9.7690 N.3    48  ASN48      -0.1240
     81  CA        -5.7440  -14.2470    8.9960 C.3    48  ASN48       0.1653
     82  C         -5.4000  -14.1900    7.5090 C.2    48  ASN48       0.2266
     83  O         -5.9330  -14.9630    6.7030 O.2    48  ASN48      -0.2867
     84  CB        -6.7270  -13.1490    9.3650 C.3    48  ASN48       0.1155
     85  CG        -8.1260  -13.4410    8.9080 C.2    48  ASN48       0.2627
     86  OD1       -8.4740  -14.5790    8.5680 O.2    48  ASN48      -0.2716
     87  ND2       -8.9670  -12.4100    8.9220 N.am   48  ASN48      -0.0877
     88  N         -4.1410  -17.4600    6.4150 N.3    51  HIS51      -0.1226
     89  CA        -5.2900  -18.3740    6.2900 C.3    51  HIS51       0.1752
     90  C         -6.0420  -18.2030    4.9720 C.2    51  HIS51       0.2596
     91  O         -6.3600  -19.1930    4.2830 O.2    51  HIS51      -0.2718
     92  CB        -6.2310  -18.2040    7.4800 C.3    51  HIS51       0.0759
     93  CG        -7.5770  -18.8440    7.2950 C.ar   51  HIS51       0.0818
     94  ND1       -7.7960  -20.1920    7.4790 N.ar   51  HIS51      -0.2268
     95  CD2       -8.7840  -18.3100    6.9700 C.ar   51  HIS51       0.1154
     96  CE1       -9.0740  -20.4660    7.2630 C.ar   51  HIS51       0.1986
     97  NE2       -9.6890  -19.3460    6.9180 N.ar   51  HIS51      -0.2212
     98  N         -6.3600  -16.9540    4.6300 N.am   52  HIS52      -0.1975
     99  CA        -7.0530  -16.6910    3.3810 C.3    52  HIS52       0.1656
    100  C         -6.2260  -17.0810    2.1940 C.2    52  HIS52       0.2291
    101  O         -6.7840  -17.6290    1.2610 O.2    52  HIS52      -0.2864
    102  CB        -7.5070  -15.2280    3.2810 C.3    52  HIS52       0.0771
    103  CG        -8.7400  -14.9450    4.0830 C.ar   52  HIS52       0.0820
    104  ND1      -10.0060  -14.9490    3.5270 N.ar   52  HIS52      -0.2267
    105  CD2       -8.9080  -14.7290    5.4150 C.ar   52  HIS52       0.1154
    106  CE1      -10.8950  -14.7030    4.4780 C.ar   52  HIS52       0.1986
    107  NE2      -10.2560  -14.5630    5.6310 N.ar   52  HIS52      -0.2212
    108  N        -17.3540  -10.9810    1.3210 N.3   201  SER201     -0.1217
    109  CA       -17.4260  -11.0800    2.7940 C.3   201  SER201      0.1889
    110  C        -18.1990   -9.9490    3.4370 C.2   201  SER201      0.2288
    111  O        -18.3730   -9.9580    4.6370 O.2   201  SER201     -0.2866
    112  CB       -16.0170  -11.0360    3.3920 C.3   201  SER201      0.2089
    113  OG       -15.2330  -12.1000    2.8690 O.3   201  SER201     -0.2183
    114  N        -18.2200   -4.4010    6.8990 N.3   266  PHE266     -0.1241
    115  CA       -18.1310   -5.7350    7.4930 C.3   266  PHE266      0.1605
    116  C        -19.2200   -6.0280    8.5230 C.2   266  PHE266      0.2264
    117  O        -19.6260   -7.1760    8.6730 O.2   266  PHE266     -0.2867
    118  CB       -16.7420   -5.9350    8.1160 C.3   266  PHE266      0.0534
    119  CG       -16.3650   -7.3720    8.3090 C.ar  266  PHE266     -0.0203
    120  CD1      -16.2100   -8.2140    7.2090 C.ar  266  PHE266     -0.0042
    121  CD2      -16.0970   -7.8680    9.5910 C.ar  266  PHE266     -0.0042
    122  CE1      -15.8250   -9.5790    7.3820 C.ar  266  PHE266     -0.0003
    123  CE2      -15.7080   -9.2440    9.7730 C.ar  266  PHE266     -0.0003
    124  CZ       -15.5300  -10.0690    8.6620 C.ar  266  PHE266     -0.0000
@<TRIPOS>BOND
     1     8     7    1
     2     7     6    1
     3    56    55    2
     4     6     5    1
     5    55    54    1
     6    34    33    1
     7    42    41    2
     8     1     2    1
     9     5     2    1
    10    33    30    1
    11     2     3    1
    12    54    53    1
    13    54    57    1
    14    41    53   am
    15    41    40    1
    16    38    37    2
    17    30    29    1
    18    30    31    1
    19    62    63    1
    20    40    43    1
    21    40    39    1
    22    51    49   ar
    23    51    52   ar
    24    49    46   ar
    25    27    28    1
    26    27    24    1
    27    57    58    1
    28    26    25    2
    29    29    25   am
    30    63    64    1
    31    31    32    2
    32    31    35   am
    33     3     4    2
    34    37    39   am
    35    37    36    1
    36    25    24    1
    37    43    44    1
    38    35    36    1
    39    52    50   ar
    40    24    23    1
    41    58    59    1
    42    46    44   ar
    43    46    48   ar
    44   101   100    2
    45   108   109    1
    46    44    45   ar
    47    64    65    2
    48    59    60    1
    49    23    11   am
    50    48    50   ar
    51    48    47   ar
    52   100    99    1
    53    45    47   ar
    54   109   112    1
    55   109   110    1
    56    60    61    1
    57   113   112    1
    58    11    12    2
    59    11    10    1
    60   102    99    1
    61   102   103    1
    62    99    98    1
    63   110   111    2
    64   104   103   ar
    65   104   106   ar
    66    79    78    1
    67     9    10    1
    68   103   105   ar
    69    10    13    1
    70    91    90    2
    71    78    77    1
    72   106   107   ar
    73    98    90   am
    74    71    70    1
    75    90    89    1
    76    13    14    1
    77    66    67    1
    78   105   107   ar
    79    77    76    1
    80    15    14   ar
    81    15    17   ar
    82    14    16   ar
    83    70    67    1
    84    89    88    1
    85    89    92    1
    86    67    68    1
    87    76    73    1
    88    83    82    2
    89    17    18   ar
    90   114   115    1
    91    72    68   am
    92    72    73    1
    93    97    95   ar
    94    97    96   ar
    95    95    93   ar
    96    16    18   ar
    97    16    19   ar
    98    68    69    2
    99   120   122   ar
   100   120   119   ar
   101    96    94   ar
   102    93    94   ar
   103    93    92    1
   104   122   124   ar
   105   115   118    1
   106   115   116    1
   107    82    81    1
   108    73    74    1
   109    18    20   ar
   110    19    21   ar
   111    75    74    2
   112   118   119    1
   113   119   121   ar
   114   116   117    2
   115    86    85    2
   116   124   123   ar
   117    20    22   ar
   118    21    22   ar
   119    85    87   am
   120    85    84    1
   121    81    84    1
   122    81    80    1
   123   121   123   ar
