@<TRIPOS>MOLECULE
tmp/4iqlB02.pdb
 138 139 0 0 0
SMALL
GASTEIGER

@<TRIPOS>ATOM
      1  N        -12.6910   -5.8720    3.6650 N.3    21  TRP21      -0.1241
      2  CA       -13.9300   -6.4200    4.2550 C.3    21  TRP21       0.1605
      3  C        -14.7980   -7.1790    3.2590 C.2    21  TRP21       0.2264
      4  O        -15.8660   -7.6960    3.6200 O.2    21  TRP21      -0.2867
      5  CB       -14.7520   -5.3320    4.9840 C.3    21  TRP21       0.0550
      6  CG       -13.8960   -4.5870    5.9360 C.ar   21  TRP21       0.0003
      7  CD1      -13.5060   -3.2750    5.8560 C.ar   21  TRP21       0.0946
      8  CD2      -13.1920   -5.1520    7.0610 C.ar   21  TRP21       0.0152
      9  NE1      -12.5890   -2.9940    6.8660 N.ar   21  TRP21      -0.2442
     10  CE2      -12.3910   -4.1280    7.6130 C.ar   21  TRP21       0.0810
     11  CE3      -13.1890   -6.4310    7.6710 C.ar   21  TRP21       0.0012
     12  CZ2      -11.5610   -4.3410    8.7300 C.ar   21  TRP21       0.0191
     13  CZ3      -12.3750   -6.6330    8.7870 C.ar   21  TRP21       0.0001
     14  CH2      -11.5690   -5.6020    9.2940 C.ar   21  TRP21       0.0015
     15  N         -5.8100   -5.5620    3.1660 N.3    42  GLY42      -0.1210
     16  CA        -5.9830   -4.3390    3.9610 C.3    42  GLY42       0.1956
     17  C         -6.7850   -4.5590    5.2260 C.2    42  GLY42       0.2613
     18  O         -6.5390   -3.8850    6.2240 O.2    42  GLY42      -0.2717
     19  N         -7.6980   -5.5310    5.2120 N.am   43  SER43      -0.1938
     20  CA        -8.5470   -5.7870    6.3710 C.3    43  SER43       0.2055
     21  C         -8.1460   -7.0240    7.1770 C.2    43  SER43       0.2643
     22  O         -8.9480   -7.4950    7.9840 O.2    43  SER43      -0.2714
     23  CB       -10.0240   -5.9420    5.9500 C.3    43  SER43       0.2130
     24  OG       -10.1290   -6.8710    4.8740 O.3    43  SER43      -0.2179
     25  N         -6.9530   -7.5770    6.9170 N.am   44  MET44      -0.1962
     26  CA        -6.5350   -8.8350    7.5230 C.3    44  MET44       0.1736
     27  C         -5.2630   -8.7110    8.3550 C.2    44  MET44       0.2616
     28  O         -4.2100   -8.2940    7.8430 O.2    44  MET44      -0.2715
     29  CB        -6.3260   -9.9090    6.4690 C.3    44  MET44       0.0427
     30  CG        -7.6080  -10.3400    5.7360 C.3    44  MET44       0.0599
     31  SD        -7.2190  -11.3240    4.2890 S.3    44  MET44      -0.1393
     32  CE        -8.8800  -11.4950    3.5690 C.3    44  MET44       0.0692
     33  N         -5.3370   -9.1470    9.6160 N.am   45  HIS45      -0.1960
     34  CA        -4.1000   -9.3370   10.3910 C.3    45  HIS45       0.1772
     35  C         -3.2430  -10.4150    9.7410 C.2    45  HIS45       0.2462
     36  O         -3.7700  -11.2830    9.0250 O.2    45  HIS45      -0.2730
     37  CB        -4.4430   -9.6710   11.8550 C.3    45  HIS45       0.0785
     38  CG        -5.0490   -8.5210   12.6020 C.ar   45  HIS45       0.0821
     39  ND1       -4.3710   -7.8270   13.5830 N.ar   45  HIS45      -0.2267
     40  CD2       -6.2370   -7.8880   12.4500 C.ar   45  HIS45       0.1154
     41  CE1       -5.1480   -6.8660   14.0540 C.ar   45  HIS45       0.1986
     42  NE2       -6.2730   -6.8630   13.3630 N.ar   45  HIS45      -0.2212
     43  N         -1.9320  -10.4400   10.0590 N.am   46  PRO46      -0.2727
     44  CA        -1.0760  -11.3650    9.2990 C.3    46  PRO46       0.1402
     45  C         -1.4870  -12.8660    9.3280 C.2    46  PRO46       0.2269
     46  O         -1.5020  -13.5120    8.2590 O.2    46  PRO46      -0.2865
     47  CB         0.3050  -11.1330    9.8880 C.3    46  PRO46       0.0296
     48  CG         0.2350   -9.6090   10.3330 C.3    46  PRO46       0.0237
     49  CD        -1.1520   -9.5060   10.9000 C.3    46  PRO46       0.0939
     50  N         -0.1620   -0.4670    5.2000 N.3    72  TYR72      -0.1228
     51  CA        -0.5370   -1.6190    6.0370 C.3    72  TYR72       0.1721
     52  C          0.3800   -1.5850    7.2710 C.2    72  TYR72       0.2437
     53  O          1.5990   -1.4510    7.1020 O.2    72  TYR72      -0.2733
     54  CB        -0.3770   -2.9480    5.2490 C.3    72  TYR72       0.0547
     55  CG        -0.8120   -4.1680    6.0610 C.ar   72  TYR72      -0.0200
     56  CD1       -2.1610   -4.5660    6.0960 C.ar   72  TYR72      -0.0009
     57  CD2        0.1100   -4.8760    6.8530 C.ar   72  TYR72      -0.0009
     58  CE1       -2.5770   -5.6570    6.8640 C.ar   72  TYR72       0.0417
     59  CE2       -0.2960   -5.9730    7.6480 C.ar   72  TYR72       0.0417
     60  CZ        -1.6440   -6.3560    7.6470 C.ar   72  TYR72       0.1957
     61  OH        -2.0750   -7.4210    8.4300 O.3    72  TYR72      -0.2866
     62  N         -0.1910   -1.7150    8.4950 N.am   73  PRO73      -0.2718
     63  CA         0.6740   -1.4860    9.6750 C.3    73  PRO73       0.1535
     64  C          1.7900   -2.5100    9.9510 C.2    73  PRO73       0.2598
     65  O          2.7780   -2.1480   10.5610 O.2    73  PRO73      -0.2715
     66  CB        -0.3060   -1.4000   10.8630 C.3    73  PRO73       0.0310
     67  CG        -1.6670   -1.8310   10.3400 C.3    73  PRO73       0.0237
     68  CD        -1.6320   -1.7260    8.8340 C.3    73  PRO73       0.0939
     69  N          1.6290   -3.7740    9.5870 N.am   74  GLU74      -0.1978
     70  CA         2.6850   -4.7680    9.8560 C.3    74  GLU74       0.1602
     71  C          3.1920   -5.3080    8.5350 C.2    74  GLU74       0.2287
     72  O          3.0500   -6.4940    8.1970 O.2    74  GLU74      -0.2864
     73  CB         2.1850   -5.8970   10.7720 C.3    74  GLU74       0.0415
     74  CG         1.5580   -5.4170   12.0440 C.3    74  GLU74       0.1163
     75  CD         1.0850   -6.5620   12.9030 C.2    74  GLU74       0.3649
     76  OE1        1.9540   -7.2540   13.4510 O.co2  74  GLU74      -0.2457
     77  OE2       -0.1440   -6.7690   13.0400 O.co2  74  GLU74      -0.2457
     78  N        -13.6820   11.4470   11.4480 N.3   256  LEU256     -0.1231
     79  CA       -13.4060   10.1780   10.8080 C.3   256  LEU256      0.1693
     80  C        -13.1300    9.0780   11.8520 C.2   256  LEU256      0.2593
     81  O        -13.6710    7.9590   11.7500 O.2   256  LEU256     -0.2718
     82  CB       -12.2280   10.3060    9.8240 C.3   256  LEU256      0.0284
     83  CG       -11.7130    9.0130    9.1710 C.3   256  LEU256      0.0019
     84  CD1      -12.8440    8.2210    8.4300 C.3   256  LEU256      0.0001
     85  CD2      -10.5010    9.3190    8.2660 C.3   256  LEU256      0.0001
     86  N        -12.2510    9.3540   12.8140 N.am  257  GLY257     -0.1942
     87  CA       -11.9750    8.3540   13.8580 C.3   257  GLY257      0.2014
     88  C        -11.3050    7.1210   13.2580 C.2   257  GLY257      0.2639
     89  O        -10.5170    7.2270   12.3340 O.2   257  GLY257     -0.2714
     90  N        -11.6600    5.9390   13.7500 N.am  258  ARG258     -0.1963
     91  CA       -10.9810    4.7070   13.3380 C.3   258  ARG258      0.1729
     92  C        -12.0180    3.6140   13.2560 C.2   258  ARG258      0.2617
     93  O        -12.9760    3.6140   14.0430 O.2   258  ARG258     -0.2715
     94  CB        -9.9010    4.3270   14.3730 C.3   258  ARG258      0.0348
     95  CG        -8.7060    5.3220   14.3800 C.3   258  ARG258      0.0492
     96  CD        -7.8510    5.2140   15.6490 C.3   258  ARG258      0.2205
     97  NE        -6.9540    6.3710   15.7960 N.pl3 258  ARG258     -0.0865
     98  CZ        -5.6210    6.3020   15.8410 C.cat 258  ARG258      0.5346
     99  NH1       -4.9930    5.1240   15.7940 N.pl3 258  ARG258      0.1354
    100  NH2       -4.9140    7.4180   15.9690 N.pl3 258  ARG258      0.1354
    101  N        -11.8780    2.7490   12.2450 N.am  259  GLY259     -0.1940
    102  CA       -12.6840    1.5350   12.1530 C.3   259  GLY259      0.2014
    103  C        -14.0640    1.7150   11.5500 C.2   259  GLY259      0.2639
    104  O        -14.8420    0.7740   11.5210 O.2   259  GLY259     -0.2714
    105  N        -14.3490    2.8940   10.9940 N.am  260  ARG260     -0.1963
    106  CA       -15.6740    3.0840   10.3990 C.3   260  ARG260      0.1729
    107  C        -15.8880    2.2230    9.1600 C.2   260  ARG260      0.2616
    108  O        -16.9950    1.7680    8.9340 O.2   260  ARG260     -0.2715
    109  CB       -15.9340    4.5360   10.0250 C.3   260  ARG260      0.0348
    110  CG       -16.0810    5.4510   11.2220 C.3   260  ARG260      0.0492
    111  CD       -16.5050    6.8060   10.7560 C.3   260  ARG260      0.2205
    112  NE       -16.6420    7.7740   11.8660 N.pl3 260  ARG260     -0.0865
    113  CZ       -17.7890    8.1670   12.4160 C.cat 260  ARG260      0.5346
    114  NH1      -18.9530    7.5870   12.0870 N.pl3 260  ARG260      0.1354
    115  NH2      -17.7660    9.1520   13.3130 N.pl3 260  ARG260      0.1354
    116  N        -14.8470    2.0250    8.3480 N.am  261  ALA261     -0.1963
    117  CA       -14.9850    1.1380    7.1740 C.3   261  ALA261      0.1728
    118  C        -15.3450   -0.3060    7.5910 C.2   261  ALA261      0.2616
    119  O        -16.2550   -0.9310    7.0190 O.2   261  ALA261     -0.2715
    120  CB       -13.7340    1.1800    6.3330 C.3   261  ALA261      0.0334
    121  N        -14.6740   -0.8300    8.6230 N.am  262  LYS262     -0.1977
    122  CA       -15.0620   -2.1570    9.1170 C.3   262  LYS262      0.1596
    123  C        -16.4890   -2.1220    9.6600 C.2   262  LYS262      0.2287
    124  O        -17.3170   -3.0230    9.3630 O.2   262  LYS262     -0.2864
    125  CB       -14.0620   -2.6610   10.1720 C.3   262  LYS262      0.0298
    126  CG       -14.3840   -4.0190   10.7440 C.3   262  LYS262      0.0038
    127  CD       -13.4670   -4.3560   11.9640 C.3   262  LYS262      0.0206
    128  CE       -13.8760   -5.7300   12.5300 C.3   262  LYS262      0.1093
    129  NZ       -12.7970   -6.2880   13.3810 N.3   262  LYS262     -0.1314
    130  N        -18.3900    3.8740    7.2480 N.3   274  GLU274     -0.1245
    131  CA       -17.8820    4.4960    6.0210 C.3   274  GLU274      0.1567
    132  C        -18.2430    3.5180    4.9060 C.2   274  GLU274      0.2260
    133  O        -17.6210    2.4380    4.7680 O.2   274  GLU274     -0.2867
    134  CB       -16.3760    4.6860    6.1780 C.3   274  GLU274      0.0388
    135  CG       -15.6460    5.1950    4.9990 C.3   274  GLU274      0.1160
    136  CD       -14.3020    5.7520    5.3900 C.2   274  GLU274      0.3649
    137  OE1      -13.8980    6.7850    4.7870 O.co2 274  GLU274     -0.2457
    138  OE2      -13.6620    5.1830    6.3100 O.co2 274  GLU274     -0.2457
@<TRIPOS>BOND
     1    15    16    1
     2     3     4    2
     3     3     2    1
     4    32    31    1
     5     1     2    1
     6    16    17    1
     7     2     5    1
     8    31    30    1
     9   133   132    2
    10   137   136   ar
    11    24    23    1
    12   132   131    1
    13     5     6    1
    14   135   136    1
    15   135   134    1
    16    50    51    1
    17    19    17   am
    18    19    20    1
    19    17    18    2
    20    54    51    1
    21    54    55    1
    22   136   138   ar
    23    30    29    1
    24     7     6   ar
    25     7     9   ar
    26     6     8   ar
    27    23    20    1
    28   131   134    1
    29   131   130    1
    30    51    52    1
    31    55    56   ar
    32    55    57   ar
    33    56    58   ar
    34   120   117    1
    35    20    21    1
    36    29    26    1
    37    57    59   ar
    38    58    60   ar
    39     9    10   ar
    40    25    21   am
    41    25    26    1
    42   119   118    2
    43     8    10   ar
    44     8    11   ar
    45    53    52    2
    46   117   118    1
    47   117   116    1
    48    21    22    2
    49    52    62   am
    50    26    27    1
    51   118   121   am
    52    10    12   ar
    53    60    59   ar
    54    60    61    1
    55    11    13   ar
    56    28    27    2
    57    72    71    2
    58    46    45    2
    59    85    83    1
    60   116   107   am
    61    27    33   am
    62    84    83    1
    63    62    68    1
    64    62    63    1
    65    71    70    1
    66   121   122    1
    67    12    14   ar
    68    13    14   ar
    69    68    67    1
    70   108   107    2
    71    36    35    2
    72   122   123    1
    73   122   125    1
    74   107   106    1
    75    83    82    1
    76    44    45    1
    77    44    47    1
    78    44    43    1
    79   124   123    2
    80    69    70    1
    81    69    64   am
    82    33    34    1
    83    63    64    1
    84    63    66    1
    85    35    43   am
    86    35    34    1
    87    82    79    1
    88    70    73    1
    89    47    48    1
    90    64    65    2
    91   109   106    1
    92   109   110    1
    93    43    49    1
    94   125   126    1
    95    48    49    1
    96    67    66    1
    97    34    37    1
    98   106   105    1
    99   126   127    1
   100   111   110    1
   101   111   112    1
   102    73    74    1
   103    79    78    1
   104    79    80    1
   105   105   103   am
   106   104   103    2
   107   103   102    1
   108    81    80    2
   109    80    86   am
   110    37    38    1
   111   112   113    2
   112   127   128    1
   113    74    75    1
   114   114   113    1
   115   102   101    1
   116   101    92   am
   117    89    88    2
   118   113   115    1
   119    40    38   ar
   120    40    42   ar
   121   128   129    1
   122    38    39   ar
   123    86    87    1
   124    75    77   ar
   125    75    76   ar
   126    92    91    1
   127    92    93    2
   128    88    90   am
   129    88    87    1
   130    91    90    1
   131    91    94    1
   132    42    41   ar
   133    39    41   ar
   134    94    95    1
   135    95    96    1
   136    96    97    1
   137    99    98    1
   138    97    98    2
   139    98   100    1
