@<TRIPOS>MOLECULE
tmp/4iqqA01.pdb
 164 159 0 0 0
SMALL
GASTEIGER

@<TRIPOS>ATOM
      1  N         -6.0660  -35.7490  -23.8350 N.3    56  LYS56      -0.1231
      2  CA        -4.7700  -35.0700  -23.7350 C.3    56  LYS56       0.1693
      3  C         -4.1150  -35.4410  -22.4070 C.2    56  LYS56       0.2592
      4  O         -4.7090  -35.2590  -21.3400 O.2    56  LYS56      -0.2718
      5  CB        -4.9350  -33.5520  -23.8450 C.3    56  LYS56       0.0285
      6  CG        -3.6290  -32.7800  -23.9370 C.3    56  LYS56       0.0035
      7  CD        -3.8710  -31.3610  -24.4250 C.3    56  LYS56       0.0206
      8  CE        -2.5680  -30.6040  -24.6370 C.3    56  LYS56       0.1093
      9  NZ        -2.0060  -30.0570  -23.3690 N.3    56  LYS56      -0.1314
     10  N         -2.8890  -35.9560  -22.4840 N.am   57  ARG57      -0.1966
     11  CA        -2.2150  -36.5370  -21.3240 C.3    57  ARG57       0.1729
     12  C         -1.9270  -35.5330  -20.2110 C.2    57  ARG57       0.2616
     13  O         -1.2920  -34.4980  -20.4300 O.2    57  ARG57      -0.2715
     14  CB        -0.9310  -37.2630  -21.7470 C.3    57  ARG57       0.0348
     15  CG        -0.1540  -37.8890  -20.5970 C.3    57  ARG57       0.0492
     16  CD         0.9290  -38.8390  -21.0840 C.3    57  ARG57       0.2205
     17  NE         0.3670  -40.0740  -21.6300 N.pl3  57  ARG57      -0.0865
     18  CZ         0.0390  -41.1470  -20.9090 C.cat  57  ARG57       0.5346
     19  NH1       -0.4680  -42.2120  -21.5160 N.pl3  57  ARG57       0.1354
     20  NH2        0.2130  -41.1600  -19.5890 N.pl3  57  ARG57       0.1354
     21  N         -2.4170  -35.8600  -19.0200 N.am   58  VAL58      -0.1963
     22  CA        -2.1500  -35.1010  -17.8040 C.3    58  VAL58       0.1727
     23  C         -0.7520  -35.4540  -17.2960 C.2    58  VAL58       0.2616
     24  O         -0.3510  -36.6200  -17.3300 O.2    58  VAL58      -0.2715
     25  CB        -3.2080  -35.4270  -16.7250 C.3    58  VAL58       0.0290
     26  CG1       -2.8690  -34.7750  -15.3950 C.3    58  VAL58       0.0023
     27  CG2       -4.5960  -35.0040  -17.1880 C.3    58  VAL58       0.0023
     28  N         -0.0090  -34.4500  -16.8360 N.am   59  TYR59      -0.1974
     29  CA         1.3200  -34.6710  -16.2600 C.3    59  TYR59       0.1639
     30  C          1.1850  -35.2720  -14.8580 C.2    59  TYR59       0.2290
     31  O          1.2620  -34.5690  -13.8470 O.2    59  TYR59      -0.2864
     32  CB         2.1320  -33.3670  -16.2600 C.3    59  TYR59       0.0560
     33  CG         3.5690  -33.4950  -15.7920 C.ar   59  TYR59      -0.0198
     34  CD1        4.3460  -34.6090  -16.1250 C.ar   59  TYR59      -0.0009
     35  CD2        4.1630  -32.4810  -15.0400 C.ar   59  TYR59      -0.0009
     36  CE1        5.6620  -34.7200  -15.6980 C.ar   59  TYR59       0.0417
     37  CE2        5.4800  -32.5810  -14.6140 C.ar   59  TYR59       0.0417
     38  CZ         6.2240  -33.7010  -14.9430 C.ar   59  TYR59       0.1957
     39  OH         7.5300  -33.7970  -14.5200 O.3    59  TYR59      -0.2866
     40  N          3.5450  -32.8350   -6.7450 N.3    66  GLU66      -0.1245
     41  CA         3.1410  -31.4990   -6.3060 C.3    66  GLU66       0.1567
     42  C          2.1870  -31.5410   -5.1060 C.2    66  GLU66       0.2260
     43  O          2.3980  -30.8240   -4.1270 O.2    66  GLU66      -0.2867
     44  CB         2.5030  -30.7200   -7.4580 C.3    66  GLU66       0.0388
     45  CG         2.3610  -29.2240   -7.2080 C.3    66  GLU66       0.1160
     46  CD         1.2840  -28.5820   -8.0660 C.2    66  GLU66       0.3649
     47  OE1        1.4490  -27.4030   -8.4490 O.co2  66  GLU66      -0.2457
     48  OE2        0.2640  -29.2480   -8.3490 O.co2  66  GLU66      -0.2457
     49  N          9.1300  -29.6290  -12.6320 N.3    86  LYS86      -0.1231
     50  CA         9.6700  -28.3030  -12.9090 C.3    86  LYS86       0.1693
     51  C          8.6110  -27.2040  -13.0130 C.2    86  LYS86       0.2592
     52  O          8.9420  -26.0430  -13.2660 O.2    86  LYS86      -0.2718
     53  CB        10.5260  -28.3540  -14.1800 C.3    86  LYS86       0.0285
     54  CG        11.5890  -29.4420  -14.1420 C.3    86  LYS86       0.0035
     55  CD        12.5800  -29.3360  -15.2860 C.3    86  LYS86       0.0206
     56  CE        13.7260  -30.3140  -15.0810 C.3    86  LYS86       0.1093
     57  NZ        14.6860  -30.2950  -16.2200 N.3    86  LYS86      -0.1314
     58  N          7.3490  -27.5640  -12.7860 N.am   87  ILE87      -0.1966
     59  CA         6.2150  -26.6520  -13.0090 C.3    87  ILE87       0.1727
     60  C          6.2730  -25.3310  -12.2260 C.2    87  ILE87       0.2616
     61  O          5.5560  -24.3820  -12.5580 O.2    87  ILE87      -0.2715
     62  CB         4.8510  -27.3580  -12.8010 C.3    87  ILE87       0.0290
     63  CG1        4.7060  -27.8680  -11.3650 C.3    87  ILE87       0.0022
     64  CG2        4.6880  -28.5030  -13.7940 C.3    87  ILE87       0.0023
     65  CD1        3.3490  -28.4630  -11.0540 C.3    87  ILE87       0.0001
     66  N          7.1350  -25.2710  -11.2100 N.am   88  TRP88      -0.1974
     67  CA         7.3270  -24.0600  -10.4010 C.3    88  TRP88       0.1640
     68  C          8.6760  -23.4080  -10.5950 C.2    88  TRP88       0.2290
     69  O          8.9490  -22.3530  -10.0080 O.2    88  TRP88      -0.2864
     70  CB         7.1220  -24.3680   -8.9220 C.3    88  TRP88       0.0576
     71  CG         5.6820  -24.5510   -8.5180 C.ar   88  TRP88       0.0006
     72  CD1        4.9260  -25.7210   -8.5680 C.ar   88  TRP88       0.0946
     73  CD2        4.7740  -23.5370   -7.9680 C.ar   88  TRP88       0.0152
     74  NE1        3.6510  -25.5040   -8.1070 N.ar   88  TRP88      -0.2442
     75  CE2        3.4930  -24.2160   -7.7330 C.ar   88  TRP88       0.0810
     76  CE3        4.8860  -22.1860   -7.6610 C.ar   88  TRP88       0.0012
     77  CZ2        2.3930  -23.5500   -7.2130 C.ar   88  TRP88       0.0191
     78  CZ3        3.7670  -21.5260   -7.1370 C.ar   88  TRP88       0.0001
     79  CH2        2.5530  -22.1930   -6.9190 C.ar   88  TRP88       0.0015
     80  N          8.7580  -19.7380  -11.9930 N.3    91  ASN91      -0.1240
     81  CA         8.1940  -18.8500  -10.9720 C.3    91  ASN91       0.1653
     82  C          9.0610  -18.6490   -9.7280 C.2    91  ASN91       0.2266
     83  O          8.7610  -17.7910   -8.8960 O.2    91  ASN91      -0.2867
     84  CB         6.8180  -19.3610  -10.5570 C.3    91  ASN91       0.1155
     85  CG         5.9640  -19.7300  -11.7440 C.2    91  ASN91       0.2627
     86  OD1        5.5150  -18.8620  -12.4950 O.2    91  ASN91      -0.2716
     87  ND2        5.7360  -21.0260  -11.9280 N.am   91  ASN91      -0.0877
     88  N          2.8550  -16.2510   -7.0350 N.3   171  LEU171     -0.1245
     89  CA         1.6510  -16.3690   -7.8470 C.3   171  LEU171      0.1561
     90  C          0.4270  -16.4960   -6.9530 C.2   171  LEU171      0.2260
     91  O          0.3970  -17.3610   -6.0720 O.2   171  LEU171     -0.2867
     92  CB         1.7380  -17.5960   -8.7540 C.3   171  LEU171      0.0270
     93  CG         2.7990  -17.6310   -9.8520 C.3   171  LEU171      0.0019
     94  CD1        3.0190  -19.0770  -10.2710 C.3   171  LEU171      0.0001
     95  CD2        2.3960  -16.7590  -11.0380 C.3   171  LEU171      0.0001
     96  N         -6.4760  -22.3880   -7.7090 N.3   175  HIS175     -0.1241
     97  CA        -7.4310  -23.1150   -6.8870 C.3   175  HIS175      0.1621
     98  C         -7.4640  -22.5010   -5.5110 C.2   175  HIS175      0.2264
     99  O         -6.6930  -22.8740   -4.6180 O.2   175  HIS175     -0.2867
    100  CB        -7.1600  -24.6250   -6.8710 C.3   175  HIS175      0.0745
    101  CG        -5.6950  -25.0070   -6.9190 C.ar  175  HIS175      0.0817
    102  ND1       -5.0070  -25.3880   -5.8230 N.ar  175  HIS175     -0.2268
    103  CD2       -4.8050  -25.0920   -7.9910 C.ar  175  HIS175      0.1154
    104  CE1       -3.7400  -25.6840   -6.1700 C.ar  175  HIS175      0.1986
    105  NE2       -3.6160  -25.4980   -7.4960 N.ar  175  HIS175     -0.2212
    106  N         -6.9550  -22.3590  -17.3950 N.3   197  ASP197     -0.1239
    107  CA        -6.6030  -22.5890  -18.7880 C.3   197  ASP197      0.1674
    108  C         -7.0220  -24.0040  -19.1760 C.2   197  ASP197      0.2266
    109  O         -6.3140  -24.9670  -18.8950 O.2   197  ASP197     -0.2867
    110  CB        -5.0940  -22.3850  -18.9960 C.3   197  ASP197      0.1410
    111  CG        -4.6400  -22.6820  -20.4270 C.2   197  ASP197      0.3668
    112  OD1       -5.5000  -22.8870  -21.3160 O.co2 197  ASP197     -0.2456
    113  OD2       -3.4100  -22.7110  -20.6590 O.co2 197  ASP197     -0.2456
    114  N         -4.2520  -26.5450  -20.6220 N.3   200  LEU200     -0.1231
    115  CA        -3.1630  -27.0830  -19.8100 C.3   200  LEU200      0.1693
    116  C         -3.5170  -27.2440  -18.3210 C.2   200  LEU200      0.2592
    117  O         -3.5260  -28.3620  -17.8020 O.2   200  LEU200     -0.2718
    118  CB        -1.8960  -26.2260  -19.9970 C.3   200  LEU200      0.0284
    119  CG        -0.6350  -26.4910  -19.1690 C.3   200  LEU200      0.0019
    120  CD1       -0.0760  -27.8800  -19.4360 C.3   200  LEU200      0.0001
    121  CD2        0.4110  -25.4260  -19.4510 C.3   200  LEU200      0.0001
    122  N         -3.8130  -26.1330  -17.6520 N.am  201  GLY201     -0.1957
    123  CA        -3.9610  -26.1080  -16.1990 C.3   201  GLY201      0.1869
    124  C         -5.1160  -26.8910  -15.6100 C.2   201  GLY201      0.2309
    125  O         -4.9190  -27.7100  -14.7150 O.2   201  GLY201     -0.2863
    126  N         -5.1060  -30.7500  -15.1340 N.3   204  PHE204     -0.1227
    127  CA        -4.1370  -30.9940  -14.0770 C.3   204  PHE204      0.1736
    128  C         -4.7710  -30.7300  -12.7100 C.2   204  PHE204      0.2595
    129  O         -4.5370  -31.4690  -11.7560 O.2   204  PHE204     -0.2718
    130  CB        -2.9390  -30.0680  -14.3070 C.3   204  PHE204      0.0547
    131  CG        -1.7640  -30.3180  -13.4010 C.ar  204  PHE204     -0.0202
    132  CD1       -0.6960  -31.1000  -13.8290 C.ar  204  PHE204     -0.0042
    133  CD2       -1.6960  -29.7280  -12.1390 C.ar  204  PHE204     -0.0042
    134  CE1        0.4010  -31.3050  -13.0090 C.ar  204  PHE204     -0.0003
    135  CE2       -0.6040  -29.9360  -11.3170 C.ar  204  PHE204     -0.0003
    136  CZ         0.4460  -30.7240  -11.7520 C.ar  204  PHE204     -0.0000
    137  N         -5.5820  -29.6780  -12.6280 N.am  205  ASN205     -0.1974
    138  CA        -6.2310  -29.2940  -11.3770 C.3   205  ASN205      0.1688
    139  C         -7.3020  -30.2840  -10.9390 C.2   205  ASN205      0.2292
    140  O         -7.4610  -30.5430   -9.7430 O.2   205  ASN205     -0.2864
    141  CB        -6.8310  -27.8890  -11.4820 C.3   205  ASN205      0.1181
    142  CG        -5.7860  -26.8220  -11.7550 C.2   205  ASN205      0.2629
    143  OD1       -4.7020  -26.8210  -11.1660 O.2   205  ASN205     -0.2716
    144  ND2       -6.1120  -25.9000  -12.6510 N.am  205  ASN205     -0.0877
    145  N         -6.6740  -20.0440  -24.5560 N.3   237  TYR237     -0.1241
    146  CA        -5.7790  -19.0640  -25.1660 C.3   237  TYR237      0.1605
    147  C         -5.9020  -19.0740  -26.6820 C.2   237  TYR237      0.2264
    148  O         -5.8730  -20.1380  -27.3050 O.2   237  TYR237     -0.2867
    149  CB        -4.3350  -19.3080  -24.7350 C.3   237  TYR237      0.0534
    150  CG        -4.0360  -18.7270  -23.3800 C.ar  237  TYR237     -0.0201
    151  CD1       -3.5560  -17.4240  -23.2550 C.ar  237  TYR237     -0.0009
    152  CD2       -4.2580  -19.4640  -22.2160 C.ar  237  TYR237     -0.0009
    153  CE1       -3.2910  -16.8750  -22.0110 C.ar  237  TYR237      0.0417
    154  CE2       -3.9980  -18.9200  -20.9650 C.ar  237  TYR237      0.0417
    155  CZ        -3.5130  -17.6260  -20.8720 C.ar  237  TYR237      0.1957
    156  OH        -3.2490  -17.0770  -19.6450 O.3   237  TYR237     -0.2866
    157  N          2.3910  -27.5160  -27.4210 N.3   289  ASP289     -0.1239
    158  CA         2.2130  -27.4110  -25.9690 C.3   289  ASP289      0.1674
    159  C          0.9570  -26.6290  -25.5840 C.2   289  ASP289      0.2266
    160  O          0.7220  -25.5260  -26.0770 O.2   289  ASP289     -0.2867
    161  CB         3.4470  -26.7700  -25.3160 C.3   289  ASP289      0.1410
    162  CG         4.6270  -27.7300  -25.2030 C.2   289  ASP289      0.3668
    163  OD1        5.7690  -27.2440  -25.0460 O.co2 289  ASP289     -0.2456
    164  OD2        4.4220  -28.9630  -25.2640 O.co2 289  ASP289     -0.2456
@<TRIPOS>BOND
     1   157   158    1
     2   148   147    2
     3   147   146    1
     4   160   159    2
     5   158   159    1
     6   158   161    1
     7   161   162    1
     8   164   162   ar
     9   162   163   ar
    10   146   149    1
    11   146   145    1
    12   149   150    1
    13     8     7    1
    14     8     9    1
    15     7     6    1
    16     6     5    1
    17     5     2    1
    18     1     2    1
    19     2     3    1
    20   150   151   ar
    21   150   152   ar
    22   151   153   ar
    23    10     3   am
    24    10    11    1
    25     3     4    2
    26   152   154   ar
    27   153   155   ar
    28    14    11    1
    29    14    15    1
    30    17    16    1
    31    17    18    2
    32    19    18    1
    33    11    12    1
    34   112   111   ar
    35    16    15    1
    36   154   155   ar
    37    18    20    1
    38   155   156    1
    39   113   111   ar
    40   114   115    1
    41    13    12    2
    42   111   110    1
    43    12    21   am
    44   118   115    1
    45   118   119    1
    46   115   116    1
    47   121   119    1
    48   120   119    1
    49   108   109    2
    50   108   107    1
    51    21    22    1
    52   110   107    1
    53   107   106    1
    54   116   117    2
    55   116   122   am
    56    22    23    1
    57    22    25    1
    58   122   123    1
    59    24    23    2
    60    23    28   am
    61    27    25    1
    62    28    29    1
    63    25    26    1
    64    29    32    1
    65    29    30    1
    66    32    33    1
    67    57    56    1
    68   123   124    1
    69    34    33   ar
    70    34    36   ar
    71    33    35   ar
    72    36    38   ar
    73   124   125    2
    74    55    56    1
    75    55    54    1
    76   126   127    1
    77    35    37   ar
    78    38    37   ar
    79    38    39    1
    80    30    31    2
    81   130   127    1
    82   130   131    1
    83    53    54    1
    84    53    50    1
    85   127   128    1
    86   132   131   ar
    87   132   134   ar
    88    64    62    1
    89   131   133   ar
    90    52    51    2
    91    51    50    1
    92    51    58   am
    93   134   136   ar
    94    59    62    1
    95    59    58    1
    96    59    60    1
    97    50    49    1
    98    62    63    1
    99   128   137   am
   100   128   129    2
   101   144   142   am
   102   137   138    1
   103    61    60    2
   104    86    85    2
   105    60    66   am
   106   133   135   ar
   107    80    81    1
   108    87    85   am
   109   142   141    1
   110   142   143    2
   111   136   135   ar
   112    85    84    1
   113   141   138    1
   114   138   139    1
   115    63    65    1
   116    66    67    1
   117    95    93    1
   118    81    84    1
   119    81    82    1
   120   139   140    2
   121    68    67    1
   122    68    69    2
   123    67    70    1
   124    94    93    1
   125    93    92    1
   126    82    83    2
   127    70    71    1
   128    92    89    1
   129    72    71   ar
   130    72    74   ar
   131    71    73   ar
   132    47    46   ar
   133    48    46   ar
   134    74    75   ar
   135    46    45    1
   136   103   105   ar
   137   103   101   ar
   138    73    75   ar
   139    73    76   ar
   140    89    88    1
   141    89    90    1
   142    75    77   ar
   143    96    97    1
   144    76    78   ar
   145   105   104   ar
   146    44    45    1
   147    44    41    1
   148    77    79   ar
   149    78    79   ar
   150    90    91    2
   151   101   100    1
   152   101   102   ar
   153    97   100    1
   154    97    98    1
   155    40    41    1
   156    41    42    1
   157   104   102   ar
   158    98    99    2
   159    42    43    2
