@<TRIPOS>MOLECULE
tmp/4iqtA00.pdb
 204 197 0 0 0
SMALL
GASTEIGER

@<TRIPOS>ATOM
      1  N         26.5230   15.3860   10.8410 N.3    25  ASP25      -0.1239
      2  CA        25.5560   15.5180   11.9390 C.3    25  ASP25       0.1674
      3  C         25.5210   16.9790   12.4700 C.2    25  ASP25       0.2266
      4  O         24.4530   17.4570   12.8460 O.2    25  ASP25      -0.2867
      5  CB        25.8530   14.5360   13.0920 C.3    25  ASP25       0.1410
      6  CG        25.6500   13.0370   12.7790 C.2    25  ASP25       0.3668
      7  OD1       24.9970   12.7250   11.7630 O.co2  25  ASP25      -0.2456
      8  OD2       26.1600   12.1750   13.5610 O.co2  25  ASP25      -0.2456
      9  N         21.2820   14.4380    6.8700 N.3    44  MET44      -0.1245
     10  CA        20.9420   13.2930    7.7210 C.3    44  MET44       0.1570
     11  C         21.0140   11.9600    6.9680 C.2    44  MET44       0.2261
     12  O         21.4980   10.9770    7.5220 O.2    44  MET44      -0.2867
     13  CB        19.5650   13.4530    8.3490 C.3    44  MET44       0.0387
     14  CG        19.5600   14.3610    9.5540 C.3    44  MET44       0.0595
     15  SD        17.9690   14.3080   10.4340 S.3    44  MET44      -0.1393
     16  CE        16.8400   14.8620    9.1520 C.3    44  MET44       0.0692
     17  N         23.7310    8.9270    7.5860 N.3    48  SER48      -0.1217
     18  CA        23.1420    7.6180    7.7970 C.3    48  SER48       0.1889
     19  C         23.7740    6.5680    6.8990 C.2    48  SER48       0.2288
     20  O         24.2460    5.5470    7.4060 O.2    48  SER48      -0.2866
     21  CB        21.6360    7.6810    7.5400 C.3    48  SER48       0.2089
     22  OG        20.9890    6.4710    7.8680 O.3    48  SER48      -0.2183
     23  N         27.3440    5.7520    7.8930 N.3    51  LYS51      -0.1245
     24  CA        27.3440    4.9860    9.1490 C.3    51  LYS51       0.1561
     25  C         27.2230    3.4680    8.8830 C.2    51  LYS51       0.2260
     26  O         27.7060    2.6650    9.6910 O.2    51  LYS51      -0.2867
     27  CB        26.2080    5.4560   10.0850 C.3    51  LYS51       0.0271
     28  CG        26.5210    6.7680   10.7500 C.3    51  LYS51       0.0035
     29  CD        25.4440    7.2860   11.6830 C.3    51  LYS51       0.0206
     30  CE        25.8940    8.6350   12.2310 C.3    51  LYS51       0.1093
     31  NZ        24.7810    9.4420   12.7720 N.3    51  LYS51      -0.1314
     32  N         13.0800   -2.3890   27.9720 N.3   182  MET182     -0.1230
     33  CA        13.9230   -1.2320   27.7510 C.3   182  MET182      0.1702
     34  C         14.0480   -1.0280   26.2290 C.2   182  MET182      0.2593
     35  O         14.3340   -1.9840   25.4950 O.2   182  MET182     -0.2718
     36  CB        15.2860   -1.4150   28.4040 C.3   182  MET182      0.0401
     37  CG        16.0870   -0.1200   28.4770 C.3   182  MET182      0.0596
     38  SD        17.7750   -0.4470   29.0240 S.3   182  MET182     -0.1393
     39  CE        17.4920   -0.8530   30.7630 C.3   182  MET182      0.0692
     40  N         13.7610    0.2010   25.7530 N.am  183  THR183     -0.1939
     41  CA        13.7750    0.5020   24.3240 C.3   183  THR183      0.2028
     42  C         14.8930    1.5230   24.0540 C.2   183  THR183      0.2643
     43  O         15.8620    1.5930   24.8200 O.2   183  THR183     -0.2714
     44  CB        12.3750    0.9690   23.8630 C.3   183  THR183      0.1808
     45  OG1       12.0290    2.1730   24.5470 O.3   183  THR183     -0.2208
     46  CG2       11.2830   -0.0710   24.0910 C.3   183  THR183      0.0379
     47  N         14.7430    2.3120   22.9860 N.am  184  GLY184     -0.1939
     48  CA        15.6910    3.3460   22.5910 C.3   184  GLY184      0.2014
     49  C         17.0740    2.8260   22.3020 C.2   184  GLY184      0.2639
     50  O         17.2360    1.6450   21.9590 O.2   184  GLY184     -0.2714
     51  N         18.0590    3.7100   22.4870 N.am  185  GLY185     -0.1939
     52  CA        19.4810    3.4710   22.2430 C.3   185  GLY185      0.2014
     53  C         20.0710    2.2630   22.9250 C.2   185  GLY185      0.2638
     54  O         20.8210    1.5240   22.2890 O.2   185  GLY185     -0.2714
     55  N         19.7110    2.0270   24.2060 N.am  186  PHE186     -0.1973
     56  CA        20.1980    0.8960   25.0030 C.3   186  PHE186      0.1639
     57  C         19.7810   -0.4370   24.3870 C.2   186  PHE186      0.2290
     58  O         20.5790   -1.3760   24.3890 O.2   186  PHE186     -0.2864
     59  CB        19.7580    0.9960   26.4800 C.3   186  PHE186      0.0560
     60  CG        20.5190    2.0740   27.2560 C.ar  186  PHE186     -0.0200
     61  CD1       19.8660    3.2180   27.7180 C.ar  186  PHE186     -0.0042
     62  CD2       21.9000    1.9680   27.4700 C.ar  186  PHE186     -0.0042
     63  CE1       20.5560    4.2100   28.4010 C.ar  186  PHE186     -0.0003
     64  CE2       22.6030    2.9940   28.1320 C.ar  186  PHE186     -0.0003
     65  CZ        21.9240    4.1110   28.5870 C.ar  186  PHE186     -0.0000
     66  N         19.4360   -0.8390   21.2170 N.3   188  ARG188     -0.1245
     67  CA        20.2380   -0.9070   19.9890 C.3   188  ARG188      0.1563
     68  C         21.7350   -1.2070   20.2770 C.2   188  ARG188      0.2260
     69  O         22.5490   -1.2570   19.3450 O.2   188  ARG188     -0.2867
     70  CB        20.0980    0.3860   19.1690 C.3   188  ARG188      0.0307
     71  CG        18.6770    0.6580   18.6360 C.3   188  ARG188      0.0489
     72  CD        18.6450    1.7540   17.5560 C.3   188  ARG188      0.2205
     73  NE        19.4210    2.9570   17.8930 N.pl3 188  ARG188     -0.0865
     74  CZ        18.9320    4.0030   18.5570 C.cat 188  ARG188      0.5346
     75  NH1       19.6990    5.0480   18.8210 N.pl3 188  ARG188      0.1354
     76  NH2       17.6800    4.0110   18.9610 N.pl3 188  ARG188      0.1354
     77  N         23.7480    0.6000   22.5990 N.3   190  LYS190     -0.1245
     78  CA        24.5280    1.7710   23.0270 C.3   190  LYS190      0.1561
     79  C         25.0190    1.6240   24.4560 C.2   190  LYS190      0.2260
     80  O         24.3330    1.0470   25.2990 O.2   190  LYS190     -0.2867
     81  CB        23.7380    3.0780   22.8720 C.3   190  LYS190      0.0271
     82  CG        23.6220    3.5100   21.4180 C.3   190  LYS190      0.0035
     83  CD        22.8210    4.7990   21.2590 C.3   190  LYS190      0.0206
     84  CE        23.5390    6.0780   21.6870 C.3   190  LYS190      0.1093
     85  NZ        24.5970    6.4360   20.7210 N.3   190  LYS190     -0.1314
     86  N         25.9020    4.3030   26.2700 N.3   192  THR192     -0.1203
     87  CA        25.3930    5.4790   26.9750 C.3   192  THR192      0.1994
     88  C         24.1090    6.0090   26.3310 C.2   192  THR192      0.2618
     89  O         23.7430    5.6020   25.2210 O.2   192  THR192     -0.2717
     90  CB        26.4540    6.5940   27.0400 C.3   192  THR192      0.1784
     91  OG1       26.8170    6.9760   25.7110 O.3   192  THR192     -0.2211
     92  CG2       27.6890    6.2050   27.8530 C.3   192  THR192      0.0376
     93  N         23.4420    6.9030   27.0560 N.am  193  GLY193     -0.1942
     94  CA        22.2340    7.5760   26.6100 C.3   193  GLY193      0.2014
     95  C         21.9180    8.8010   27.4340 C.2   193  GLY193      0.2639
     96  O         22.4390    8.9510   28.5370 O.2   193  GLY193     -0.2714
     97  N         21.0470    9.6670   26.9240 N.am  194  HIS194     -0.1959
     98  CA        20.6140   10.8720   27.6480 C.3   194  HIS194      0.1787
     99  C         19.4320   10.5520   28.5730 C.2   194  HIS194      0.2620
    100  O         19.1590   11.2840   29.5290 O.2   194  HIS194     -0.2715
    101  CB        20.2550   12.0010   26.6720 C.3   194  HIS194      0.0785
    102  CG        21.4280   12.4770   25.8540 C.ar  194  HIS194      0.0821
    103  ND1       21.2830   12.7760   24.5150 N.ar  194  HIS194     -0.2267
    104  CD2       22.7310   12.6740   26.2040 C.ar  194  HIS194      0.1154
    105  CE1       22.4880   13.1450   24.0910 C.ar  194  HIS194      0.1986
    106  NE2       23.3970   13.0720   25.0660 N.ar  194  HIS194     -0.2212
    107  N         18.7490    9.4420   28.2770 N.am  195  ASP195     -0.1957
    108  CA        17.6020    8.9310   29.0170 C.3   195  ASP195      0.1840
    109  C         17.4960    7.3970   28.9090 C.2   195  ASP195      0.2622
    110  O         18.2490    6.7570   28.1560 O.2   195  ASP195     -0.2715
    111  CB        16.3000    9.5890   28.5180 C.3   195  ASP195      0.1450
    112  CG        16.0520    9.5410   27.0110 C.2   195  ASP195      0.3671
    113  OD1       16.1050    8.4380   26.4300 O.co2 195  ASP195     -0.2456
    114  OD2       15.7460   10.6030   26.4260 O.co2 195  ASP195     -0.2456
    115  N         16.5490    6.8230   29.6810 N.am  196  VAL196     -0.1963
    116  CA        16.2140    5.4010   29.6790 C.3   196  VAL196      0.1727
    117  C         14.7150    5.3120   29.3950 C.2   196  VAL196      0.2616
    118  O         13.9170    5.9010   30.1140 O.2   196  VAL196     -0.2715
    119  CB        16.6070    4.6070   30.9490 C.3   196  VAL196      0.0290
    120  CG1       16.7410    3.1110   30.6230 C.3   196  VAL196      0.0023
    121  CG2       17.8780    5.1390   31.5920 C.3   196  VAL196      0.0023
    122  N         14.3490    4.6070   28.3170 N.am  197  ASP197     -0.1971
    123  CA        12.9820    4.4570   27.8370 C.3   197  ASP197      0.1709
    124  C         12.5150    3.0500   28.0120 C.2   197  ASP197      0.2293
    125  O         13.3030    2.1070   27.8450 O.2   197  ASP197     -0.2864
    126  CB        12.8690    4.8610   26.3600 C.3   197  ASP197      0.1436
    127  CG        13.4150    6.2430   26.0220 C.2   197  ASP197      0.3671
    128  OD1       13.3540    7.1480   26.9010 O.co2 197  ASP197     -0.2456
    129  OD2       13.8700    6.4320   24.8710 O.co2 197  ASP197     -0.2456
    130  N          9.5990    2.6060   19.2090 N.3   296  TRP296     -0.1227
    131  CA        10.3860    3.1290   20.3320 C.3   296  TRP296      0.1737
    132  C         11.8390    2.6240   20.3520 C.2   296  TRP296      0.2596
    133  O         12.6350    3.1440   21.1290 O.2   296  TRP296     -0.2718
    134  CB         9.7030    2.8310   21.6790 C.3   296  TRP296      0.0564
    135  CG         8.5910    3.8030   21.9130 C.ar  296  TRP296      0.0003
    136  CD1        7.3030    3.7000   21.4590 C.ar  296  TRP296      0.0946
    137  CD2        8.7310    5.1340   22.4290 C.ar  296  TRP296      0.0152
    138  NE1        6.6230    4.8670   21.7140 N.ar  296  TRP296     -0.2442
    139  CE2        7.4730    5.7630   22.3100 C.ar  296  TRP296      0.0810
    140  CE3        9.7840    5.8340   23.0430 C.ar  296  TRP296      0.0012
    141  CZ2        7.2370    7.0560   22.7740 C.ar  296  TRP296      0.0191
    142  CZ3        9.5450    7.1120   23.5120 C.ar  296  TRP296      0.0001
    143  CH2        8.2790    7.7070   23.3890 C.ar  296  TRP296      0.0015
    144  N         12.1840    1.6300   19.5340 N.am  297  THR297     -0.1939
    145  CA        13.5460    1.1390   19.5060 C.3   297  THR297      0.2028
    146  C         14.4200    2.0960   18.6880 C.2   297  THR297      0.2643
    147  O         15.6020    2.2110   18.9780 O.2   297  THR297     -0.2714
    148  CB        13.5910   -0.3050   18.9830 C.3   297  THR297      0.1808
    149  OG1       12.9020   -1.1000   19.9330 O.3   297  THR297     -0.2208
    150  CG2       15.0280   -0.8530   18.8100 C.3   297  THR297      0.0379
    151  N         13.8530    2.7530   17.6820 N.am  298  GLY298     -0.1939
    152  CA        14.6110    3.6610   16.8180 C.3   298  GLY298      0.2014
    153  C         15.5950    2.9670   15.8760 C.2   298  GLY298      0.2640
    154  O         15.4490    1.7780   15.6200 O.2   298  GLY298     -0.2714
    155  N         16.6190    3.6620   15.3400 N.am  299  SER299     -0.1935
    156  CA        16.9580    5.0740   15.5540 C.3   299  SER299      0.2055
    157  C         15.9550    6.0020   14.8640 C.2   299  SER299      0.2643
    158  O         15.0890    5.5190   14.1380 O.2   299  SER299     -0.2714
    159  CB        18.3650    5.3470   15.0230 C.3   299  SER299      0.2130
    160  OG        18.3760    5.2620   13.6070 O.3   299  SER299     -0.2179
    161  N         16.1000    7.3330   15.0310 N.am  300  ARG300     -0.1963
    162  CA        15.1960    8.2860   14.3700 C.3   300  ARG300      0.1729
    163  C         15.2020    8.0890   12.8400 C.2   300  ARG300      0.2616
    164  O         14.1320    7.9570   12.2240 O.2   300  ARG300     -0.2715
    165  CB        15.5310    9.7490   14.7380 C.3   300  ARG300      0.0348
    166  CG        15.2290   10.0950   16.2020 C.3   300  ARG300      0.0492
    167  CD        15.3230   11.5800   16.4950 C.3   300  ARG300      0.2205
    168  NE        16.6880   12.0830   16.3000 N.pl3 300  ARG300     -0.0865
    169  CZ        16.9990   13.2200   15.6800 C.cat 300  ARG300      0.5346
    170  NH1       16.0450   13.9930   15.1680 N.pl3 300  ARG300      0.1354
    171  NH2       18.2670   13.5880   15.5580 N.pl3 300  ARG300      0.1354
    172  N         16.3940    7.9890   12.2550 N.am  301  GLN301     -0.1977
    173  CA        16.5610    7.7860   10.8100 C.3   301  GLN301      0.1601
    174  C         16.0180    6.4300   10.3180 C.2   301  GLN301      0.2287
    175  O         15.4230    6.3670    9.2300 O.2   301  GLN301     -0.2864
    176  CB        18.0270    7.9410   10.3870 C.3   301  GLN301      0.0394
    177  CG        18.1970    8.0970    8.8800 C.3   301  GLN301      0.0908
    178  CD        17.4940    9.3030    8.2680 C.2   301  GLN301      0.2608
    179  OE1       17.2520   10.3460    8.9200 O.2   301  GLN301     -0.2717
    180  NE2       17.1820    9.1880    6.9730 N.am  301  GLN301     -0.0878
    181  N         12.1660    6.8670   10.2170 N.3   304  ARG304     -0.1245
    182  CA        11.7950    7.7020    9.0750 C.3   304  ARG304      0.1563
    183  C         11.8160    6.8970    7.7820 C.2   304  ARG304      0.2260
    184  O         10.8350    6.9400    7.0340 O.2   304  ARG304     -0.2867
    185  CB        12.7030    8.9160    8.9320 C.3   304  ARG304      0.0307
    186  CG        12.3260   10.0790    9.8040 C.3   304  ARG304      0.0489
    187  CD        13.1590   11.3100    9.4560 C.3   304  ARG304      0.2205
    188  NE        14.5560   11.1410    9.8560 N.pl3 304  ARG304     -0.0865
    189  CZ        15.0840   11.6450   10.9650 C.cat 304  ARG304      0.5346
    190  NH1       14.3500   12.3940   11.7790 N.pl3 304  ARG304      0.1354
    191  NH2       16.3550   11.4190   11.2610 N.pl3 304  ARG304      0.1354
    192  N         21.1000    1.2670   14.0140 N.3   355  ASN355     -0.1225
    193  CA        21.7480    2.4990   14.4580 C.3   355  ASN355      0.1785
    194  C         22.0250    3.4870   13.2930 C.2   355  ASN355      0.2597
    195  O         23.0920    4.0860   13.2330 O.2   355  ASN355     -0.2718
    196  CB        23.0290    2.1430   15.2020 C.3   355  ASN355      0.1169
    197  CG        22.7360    1.5180   16.5160 C.2   355  ASN355      0.2627
    198  OD1       22.2110    2.1770   17.4320 O.2   355  ASN355     -0.2716
    199  ND2       23.0410    0.2300   16.6260 N.am  355  ASN355     -0.0877
    200  N         21.0500    3.6710   12.4100 N.am  356  ALA356     -0.1979
    201  CA        21.1120    4.5170   11.2130 C.3   356  ALA356      0.1597
    202  C         21.1990    6.0260   11.5540 C.2   356  ALA356      0.2287
    203  O         20.6850    6.4470   12.6100 O.2   356  ALA356     -0.2864
    204  CB        19.8780    4.2440   10.3450 C.3   356  ALA356      0.0319
@<TRIPOS>BOND
     1     9    10    1
     2    19    20    2
     3    19    18    1
     4    11    12    2
     5    11    10    1
     6   180   178   am
     7   184   183    2
     8    21    18    1
     9    21    22    1
    10    17    18    1
    11    10    13    1
    12   183   182    1
    13    23    24    1
    14   178   177    1
    15   178   179    2
    16    13    14    1
    17   177   176    1
    18    25    24    1
    19    25    26    2
    20   185   182    1
    21   185   186    1
    22   182   181    1
    23    24    27    1
    24    16    15    1
    25   175   174    2
    26   187   186    1
    27   187   188    1
    28    14    15    1
    29   188   189    2
    30    27    28    1
    31   174   173    1
    32   204   201    1
    33   176   173    1
    34    28    29    1
    35   173   172    1
    36     1     2    1
    37   189   191    1
    38   189   190    1
    39   201   202    1
    40   201   200    1
    41   202   203    2
    42    29    30    1
    43     7     6   ar
    44     2     3    1
    45     2     5    1
    46   164   163    2
    47    30    31    1
    48   172   163   am
    49   200   194   am
    50     3     4    2
    51     6     5    1
    52     6     8   ar
    53   163   162    1
    54   195   194    2
    55   194   193    1
    56   160   159    1
    57   192   193    1
    58   158   157    2
    59   162   165    1
    60   162   161    1
    61   193   196    1
    62   165   166    1
    63   157   161   am
    64   157   156    1
    65   159   156    1
    66   170   169    1
    67   196   197    1
    68   155   156    1
    69   155   153   am
    70   171   169    1
    71   154   153    2
    72   169   168    2
    73   153   152    1
    74   166   167    1
    75   168   167    1
    76   197   199   am
    77   197   198    2
    78   152   151    1
    79    72    73    1
    80    72    71    1
    81   151   146   am
    82    73    74    2
    83    74    75    1
    84    74    76    1
    85    71    70    1
    86   146   147    2
    87   146   145    1
    88   150   148    1
    89   148   145    1
    90   148   149    1
    91    70    67    1
    92   130   131    1
    93    69    68    2
    94   145   144    1
    95   144   132   am
    96    67    68    1
    97    67    66    1
    98   131   132    1
    99   131   134    1
   100   132   133    2
   101    85    84    1
   102    83    82    1
   103    83    84    1
   104    82    81    1
   105   136   138   ar
   106   136   135   ar
   107   134   135    1
   108   138   139   ar
   109   135   137   ar
   110    50    49    2
   111    52    51    1
   112    52    53    1
   113    54    53    2
   114    49    51   am
   115    49    48    1
   116   139   137   ar
   117   139   141   ar
   118   137   140   ar
   119    48    47    1
   120    77    78    1
   121   141   143   ar
   122    81    78    1
   123    53    55   am
   124    47    42   am
   125    78    79    1
   126   140   142   ar
   127   143   142   ar
   128    44    46    1
   129    44    41    1
   130    44    45    1
   131    42    41    1
   132    42    43    2
   133   105   103   ar
   134   105   106   ar
   135    55    56    1
   136    41    40    1
   137    57    58    2
   138    57    56    1
   139    79    80    2
   140   103   102   ar
   141   129   127   ar
   142    56    59    1
   143   106   104   ar
   144    89    88    2
   145    35    34    2
   146    91    90    1
   147    40    34   am
   148   102   104   ar
   149   102   101    1
   150   127   126    1
   151   127   128   ar
   152    34    33    1
   153    86    87    1
   154    88    87    1
   155    88    93   am
   156   126   123    1
   157   114   112   ar
   158   113   112   ar
   159    59    60    1
   160    94    93    1
   161    94    95    1
   162   101    98    1
   163    97    95   am
   164    97    98    1
   165    87    90    1
   166   112   111    1
   167    90    92    1
   168    60    62   ar
   169    60    61   ar
   170    95    96    2
   171    62    64   ar
   172    98    99    1
   173    61    63   ar
   174    33    32    1
   175    33    36    1
   176   123   124    1
   177   123   122    1
   178   125   124    2
   179    64    65   ar
   180   110   109    2
   181   107    99   am
   182   107   108    1
   183   122   117   am
   184    63    65   ar
   185    36    37    1
   186    37    38    1
   187   111   108    1
   188    99   100    2
   189   109   108    1
   190   109   115   am
   191    38    39    1
   192   117   116    1
   193   117   118    2
   194   116   115    1
   195   116   119    1
   196   120   119    1
   197   119   121    1
