@<TRIPOS>MOLECULE
tmp/4iqvA00.pdb
 135 128 0 0 0
SMALL
GASTEIGER

@<TRIPOS>ATOM
      1  N         19.3940   29.5560   26.6490 N.3   106  THR106     -0.1218
      2  CA        18.5010   28.3960   26.5430 C.3   106  THR106      0.1862
      3  C         19.0260   27.1950   27.3320 C.2   106  THR106      0.2287
      4  O         18.2570   26.2450   27.5420 O.2   106  THR106     -0.2866
      5  CB        18.1940   28.0320   25.0950 C.3   106  THR106      0.1770
      6  OG1       19.4130   27.7230   24.4360 O.3   106  THR106     -0.2211
      7  CG2       17.4380   29.1360   24.3560 C.3   106  THR106      0.0375
      8  N         19.3440   27.2110   30.3820 N.3   108  VAL108     -0.1231
      9  CA        18.5220   27.3250   31.5900 C.3   108  VAL108      0.1692
     10  C         17.1670   26.6590   31.3320 C.2   108  VAL108      0.2592
     11  O         16.5200   26.9490   30.3210 O.2   108  VAL108     -0.2718
     12  CB        18.3360   28.8060   32.0160 C.3   108  VAL108      0.0266
     13  CG1       17.4860   28.9190   33.2890 C.3   108  VAL108      0.0020
     14  CG2       19.6910   29.5070   32.1780 C.3   108  VAL108      0.0020
     15  N         16.7260   25.7850   32.2450 N.am  109  PHE109     -0.1962
     16  CA        15.4240   25.1090   32.1250 C.3   109  PHE109      0.1771
     17  C         14.3520   26.1790   32.2660 C.2   109  PHE109      0.2620
     18  O         14.3910   26.9730   33.2050 O.2   109  PHE109     -0.2715
     19  CB        15.3020   23.9790   33.1860 C.3   109  PHE109      0.0574
     20  CG        13.9630   23.2980   33.3620 C.ar  109  PHE109     -0.0200
     21  CD1       13.4470   22.4780   32.3740 C.ar  109  PHE109     -0.0042
     22  CD2       13.2460   23.4280   34.5470 C.ar  109  PHE109     -0.0042
     23  CE1       12.2290   21.8240   32.5560 C.ar  109  PHE109     -0.0003
     24  CE2       12.0330   22.7560   34.7310 C.ar  109  PHE109     -0.0003
     25  CZ        11.5330   21.9700   33.7340 C.ar  109  PHE109     -0.0000
     26  N         13.4650   26.2550   31.2860 N.am  110  GLY110     -0.1940
     27  CA        12.3810   27.2360   31.2700 C.3   110  GLY110      0.2014
     28  C         12.6030   28.4000   30.3210 C.2   110  GLY110      0.2639
     29  O         11.7070   29.2270   30.1470 O.2   110  GLY110     -0.2714
     30  N         13.7980   28.4780   29.7090 N.am  111  VAL111     -0.1963
     31  CA        14.1690   29.5170   28.7580 C.3   111  VAL111      0.1727
     32  C         14.2620   28.9140   27.3510 C.2   111  VAL111      0.2617
     33  O         15.1060   28.0400   27.0840 O.2   111  VAL111     -0.2715
     34  CB        15.4930   30.2260   29.1440 C.3   111  VAL111      0.0290
     35  CG1       15.8390   31.3360   28.1470 C.3   111  VAL111      0.0023
     36  CG2       15.4160   30.7710   30.5480 C.3   111  VAL111      0.0023
     37  N         13.4130   29.4170   26.4690 N.am  112  GLY112     -0.1940
     38  CA        13.3960   29.0100   25.0780 C.3   112  GLY112      0.2014
     39  C         13.8530   30.1230   24.1750 C.2   112  GLY112      0.2639
     40  O         14.3970   31.1310   24.6520 O.2   112  GLY112     -0.2714
     41  N         13.6000   29.9580   22.8600 N.am  113  LEU113     -0.1963
     42  CA        14.0010   30.9220   21.8380 C.3   113  LEU113      0.1728
     43  C         13.4610   32.3490   22.0720 C.2   113  LEU113      0.2616
     44  O         14.2350   33.2980   21.9250 O.2   113  LEU113     -0.2715
     45  CB        13.5760   30.4420   20.4580 C.3   113  LEU113      0.0311
     46  CG        14.5390   29.5360   19.7260 C.3   113  LEU113      0.0022
     47  CD1       13.8890   28.9990   18.4880 C.3   113  LEU113      0.0001
     48  CD2       15.7920   30.2830   19.2870 C.3   113  LEU113      0.0001
     49  N         12.1670   32.5060   22.4270 N.am  114  LYS114     -0.1963
     50  CA        11.5500   33.8280   22.6300 C.3   114  LYS114      0.1728
     51  C         12.1390   34.5860   23.8300 C.2   114  LYS114      0.2616
     52  O         12.4370   35.7780   23.6830 O.2   114  LYS114     -0.2715
     53  CB        10.0200   33.7390   22.7780 C.3   114  LYS114      0.0311
     54  CG         9.3010   35.0550   22.5960 C.3   114  LYS114      0.0038
     55  CD         9.6130   35.6240   21.2170 C.3   114  LYS114      0.0206
     56  CE         8.6770   36.7560   20.8530 C.3   114  LYS114      0.1093
     57  NZ         8.7690   37.8720   21.8300 N.3   114  LYS114     -0.1314
     58  N         12.3130   33.9240   24.9990 N.am  115  THR115     -0.1951
     59  CA        12.8840   34.5840   26.1860 C.3   115  THR115      0.1897
     60  C         14.3870   34.8990   25.9590 C.2   115  THR115      0.2313
     61  O         14.8330   35.9870   26.3290 O.2   115  THR115     -0.2863
     62  CB        12.6370   33.7620   27.4390 C.3   115  THR115      0.1794
     63  OG1       11.2340   33.5740   27.5740 O.3   115  THR115     -0.2208
     64  CG2       13.1420   34.4220   28.6800 C.3   115  THR115      0.0378
     65  N          9.0950   27.7700   36.1050 N.3   141  MET141     -0.1230
     66  CA        10.0120   26.8700   35.3990 C.3   141  MET141      0.1702
     67  C         11.4400   27.4500   35.3760 C.2   141  MET141      0.2592
     68  O         12.3850   26.7250   35.7060 O.2   141  MET141     -0.2718
     69  CB         9.5080   26.6440   33.9830 C.3   141  MET141      0.0401
     70  CG         9.9340   25.3390   33.3870 C.3   141  MET141      0.0596
     71  SD         9.3920   25.1860   31.6690 S.3   141  MET141     -0.1393
     72  CE         8.5090   23.6820   31.7670 C.3   141  MET141      0.0692
     73  N         11.5870   28.7750   35.0610 N.am  142  GLN142     -0.1979
     74  CA        12.8740   29.4900   35.0210 C.3   142  GLN142      0.1601
     75  C         13.5090   29.6170   36.4050 C.2   142  GLN142      0.2287
     76  O         14.7300   29.5320   36.5020 O.2   142  GLN142     -0.2864
     77  CB        12.6980   30.8850   34.4200 C.3   142  GLN142      0.0394
     78  CG        12.4190   30.8820   32.9230 C.3   142  GLN142      0.0908
     79  CD        11.7500   32.1510   32.4490 C.2   142  GLN142      0.2608
     80  OE1       11.5300   33.1010   33.2030 O.2   142  GLN142     -0.2717
     81  NE2       11.4220   32.2080   31.1730 N.am  142  GLN142     -0.0878
     82  N         18.5170   14.6930   30.5210 N.3   196  ASP196     -0.1239
     83  CA        17.3570   14.2360   31.2740 C.3   196  ASP196      0.1674
     84  C         17.2230   12.7270   31.1750 C.2   196  ASP196      0.2266
     85  O         17.9510   12.1050   30.4100 O.2   196  ASP196     -0.2867
     86  CB        16.0700   14.9250   30.7500 C.3   196  ASP196      0.1410
     87  CG        15.8010   14.8340   29.2380 C.2   196  ASP196      0.3668
     88  OD1       15.8370   13.7070   28.6840 O.co2 196  ASP196     -0.2456
     89  OD2       15.4710   15.8730   28.6300 O.co2 196  ASP196     -0.2456
     90  N          5.2810   19.6790   36.4940 N.3   232  ASP232     -0.1239
     91  CA         4.3080   20.2120   35.5520 C.3   232  ASP232      0.1674
     92  C          3.6890   19.0220   34.8510 C.2   232  ASP232      0.2266
     93  O          4.4060   18.3160   34.1320 O.2   232  ASP232     -0.2867
     94  CB         4.9670   21.1830   34.5570 C.3   232  ASP232      0.1410
     95  CG         4.0240   21.8600   33.5530 C.2   232  ASP232      0.3668
     96  OD1        2.7880   21.9360   33.8350 O.co2 232  ASP232     -0.2456
     97  OD2        4.5250   22.3510   32.5010 O.co2 232  ASP232     -0.2456
     98  N          1.0380   17.6720   32.1530 N.3   234  LEU234     -0.1245
     99  CA         0.2210   18.0000   30.9950 C.3   234  LEU234      0.1561
    100  C         -0.7840   16.8920   30.7920 C.2   234  LEU234      0.2260
    101  O         -0.4010   15.7460   30.5390 O.2   234  LEU234     -0.2867
    102  CB         1.0660   18.1750   29.7320 C.3   234  LEU234      0.0270
    103  CG         2.0230   19.3490   29.6520 C.3   234  LEU234      0.0019
    104  CD1        2.6220   19.4120   28.2620 C.3   234  LEU234      0.0001
    105  CD2        1.3110   20.6850   29.9280 C.3   234  LEU234      0.0001
    106  N          6.8530   16.8670   33.2830 N.3   258  PHE258     -0.1241
    107  CA         8.1990   17.4130   33.2500 C.3   258  PHE258      0.1605
    108  C          8.5680   17.6760   34.6860 C.2   258  PHE258      0.2264
    109  O          7.8920   18.4510   35.3720 O.2   258  PHE258     -0.2867
    110  CB         8.2580   18.6820   32.3640 C.3   258  PHE258      0.0534
    111  CG         7.6800   18.4710   30.9830 C.ar  258  PHE258     -0.0203
    112  CD1        6.4680   19.0480   30.6240 C.ar  258  PHE258     -0.0042
    113  CD2        8.3030   17.6240   30.0690 C.ar  258  PHE258     -0.0042
    114  CE1        5.9040   18.8080   29.3600 C.ar  258  PHE258     -0.0003
    115  CE2        7.7350   17.3790   28.8110 C.ar  258  PHE258     -0.0003
    116  CZ         6.5430   17.9810   28.4640 C.ar  258  PHE258     -0.0000
    117  N         16.5740   16.1650   35.8160 N.3   281  ARG281     -0.1245
    118  CA        15.4070   16.3890   34.9560 C.3   281  ARG281      0.1563
    119  C         14.8740   15.0350   34.5440 C.2   281  ARG281      0.2260
    120  O         15.6420   14.1970   34.0720 O.2   281  ARG281     -0.2867
    121  CB        15.7630   17.2280   33.7270 C.3   281  ARG281      0.0307
    122  CG        15.6780   18.7140   33.9470 C.3   281  ARG281      0.0489
    123  CD        14.2530   19.1820   33.7880 C.3   281  ARG281      0.2205
    124  NE        13.7430   18.9830   32.4220 N.pl3 281  ARG281     -0.0865
    125  CZ        12.7460   18.1610   32.0990 C.cat 281  ARG281      0.5346
    126  NH1       12.1240   17.4540   33.0380 N.pl3 281  ARG281      0.1354
    127  NH2       12.3760   18.0240   30.8330 N.pl3 281  ARG281      0.1354
    128  N         11.3630   13.0500   32.6700 N.3   283  ASP283     -0.1239
    129  CA        10.0720   13.1340   31.9910 C.3   283  ASP283      0.1674
    130  C          9.3820   11.7860   32.0450 C.2   283  ASP283      0.2266
    131  O         10.0210   10.7660   31.8040 O.2   283  ASP283     -0.2867
    132  CB        10.1840   13.6040   30.5420 C.3   283  ASP283      0.1410
    133  CG        10.9240   14.9020   30.3570 C.2   283  ASP283      0.3668
    134  OD1       10.7680   15.8040   31.2060 O.co2 283  ASP283     -0.2456
    135  OD2       11.6610   15.0180   29.3650 O.co2 283  ASP283     -0.2456
@<TRIPOS>BOND
     1    47    46    1
     2    48    46    1
     3    46    45    1
     4    45    42    1
     5    56    55    1
     6    56    57    1
     7    55    54    1
     8    42    43    1
     9    42    41    1
    10    44    43    2
    11    43    49   am
    12    49    50    1
    13    54    53    1
    14    50    53    1
    15    50    51    1
    16    41    39   am
    17    52    51    2
    18    51    58   am
    19    39    40    2
    20    39    38    1
    21     7     5    1
    22     6     5    1
    23    58    59    1
    24    38    37    1
    25     5     2    1
    26    60    59    1
    27    60    61    2
    28    59    62    1
    29    37    32   am
    30     2     1    1
    31     2     3    1
    32    33    32    2
    33     3     4    2
    34    32    31    1
    35    62    63    1
    36    62    64    1
    37    35    34    1
    38   104   103    1
    39   116   115   ar
    40   116   114   ar
    41    89    87   ar
    42    88    87   ar
    43    31    34    1
    44    31    30    1
    45   115   113   ar
    46    34    36    1
    47    87    86    1
    48   114   112   ar
    49   135   133   ar
    50   103   102    1
    51   103   105    1
    52    30    28   am
    53   102    99    1
    54   113   111   ar
    55    29    28    2
    56    28    27    1
    57    11    10    2
    58   133   132    1
    59   133   134   ar
    60     8     9    1
    61    85    84    2
    62    82    83    1
    63   101   100    2
    64   132   129    1
    65   112   111   ar
    66    86    83    1
    67   100    99    1
    68   127   125    1
    69   111   110    1
    70    99    98    1
    71    81    79   am
    72    84    83    1
    73    27    26    1
    74    26    17   am
    75    10     9    1
    76    10    15   am
    77     9    12    1
    78    71    72    1
    79    71    70    1
    80   131   130    2
    81   129   130    1
    82   129   128    1
    83    12    14    1
    84    12    13    1
    85   125   124    2
    86   125   126    1
    87    16    15    1
    88    16    17    1
    89    16    19    1
    90    17    18    2
    91   110   107    1
    92    21    23   ar
    93    21    20   ar
    94   124   123    1
    95    79    78    1
    96    79    80    2
    97    97    95   ar
    98    23    25   ar
    99    78    77    1
   100    19    20    1
   101   107   106    1
   102   107   108    1
   103    20    22   ar
   104    70    69    1
   105    95    96   ar
   106    95    94    1
   107   121   122    1
   108   121   118    1
   109    25    24   ar
   110   123   122    1
   111    69    66    1
   112   120   119    2
   113    93    92    2
   114    77    74    1
   115   119   118    1
   116    22    24   ar
   117    94    91    1
   118   108   109    2
   119    92    91    1
   120   118   117    1
   121    74    73    1
   122    74    75    1
   123    73    67   am
   124    67    66    1
   125    67    68    2
   126    66    65    1
   127    91    90    1
   128    75    76    2
