@<TRIPOS>MOLECULE
tmp/4iqwA00.pdb
 127 121 0 0 0
SMALL
GASTEIGER

@<TRIPOS>ATOM
      1  N         19.2680   24.5340   24.5630 N.3   105  THR105     -0.1218
      2  CA        18.4380   23.3250   24.3900 C.3   105  THR105      0.1862
      3  C         19.0170   22.1220   25.2130 C.2   105  THR105      0.2287
      4  O         18.3100   21.1290   25.4230 O.2   105  THR105     -0.2866
      5  CB        18.2380   23.0120   22.9060 C.3   105  THR105      0.1770
      6  OG1       17.5290   24.0800   22.3020 O.3   105  THR105     -0.2211
      7  CG2       17.4330   21.7550   22.6600 C.3   105  THR105      0.0375
      8  N         19.2660   22.1860   28.2580 N.3   107  VAL107     -0.1231
      9  CA        18.4370   22.3070   29.4530 C.3   107  VAL107      0.1692
     10  C         17.1040   21.6100   29.1690 C.2   107  VAL107      0.2592
     11  O         16.4530   21.9010   28.1590 O.2   107  VAL107     -0.2718
     12  CB        18.2130   23.7900   29.8970 C.3   107  VAL107      0.0266
     13  CG1       17.3670   23.8690   31.1740 C.3   107  VAL107      0.0020
     14  CG2       19.5310   24.5470   30.0820 C.3   107  VAL107      0.0020
     15  N         16.6790   20.7250   30.0690 N.am  108  PHE108     -0.1962
     16  CA        15.3830   20.0610   29.9650 C.3   108  PHE108      0.1771
     17  C         14.2880   21.1310   30.0980 C.2   108  PHE108      0.2620
     18  O         14.3090   21.9420   31.0380 O.2   108  PHE108     -0.2715
     19  CB        15.2740   18.9720   31.0340 C.3   108  PHE108      0.0574
     20  CG        13.9450   18.2840   31.1690 C.ar  108  PHE108     -0.0200
     21  CD1       13.4750   17.4370   30.1700 C.ar  108  PHE108     -0.0042
     22  CD2       13.1860   18.4250   32.3260 C.ar  108  PHE108     -0.0042
     23  CE1       12.2600   16.7680   30.3160 C.ar  108  PHE108     -0.0003
     24  CE2       11.9810   17.7340   32.4790 C.ar  108  PHE108     -0.0003
     25  CZ        11.5260   16.9200   31.4680 C.ar  108  PHE108     -0.0000
     26  N         13.3930   21.1700   29.1120 N.am  109  GLY109     -0.1940
     27  CA        12.2950   22.1270   29.0600 C.3   109  GLY109      0.2014
     28  C         12.5320   23.2750   28.1060 C.2   109  GLY109      0.2639
     29  O         11.6800   24.1500   27.9710 O.2   109  GLY109     -0.2714
     30  N         13.7110   23.3080   27.4690 N.am  110  VAL110     -0.1963
     31  CA        14.0670   24.3810   26.5550 C.3   110  VAL110      0.1727
     32  C         14.1450   23.8230   25.1440 C.2   110  VAL110      0.2617
     33  O         15.0010   22.9710   24.8540 O.2   110  VAL110     -0.2715
     34  CB        15.3810   25.1160   26.9690 C.3   110  VAL110      0.0290
     35  CG1       15.7220   26.2240   25.9810 C.3   110  VAL110      0.0023
     36  CG2       15.2770   25.6730   28.3910 C.3   110  VAL110      0.0023
     37  N         13.2730   24.3630   24.2900 N.am  111  GLY111     -0.1940
     38  CA        13.2190   24.0540   22.8710 C.3   111  GLY111      0.2014
     39  C         13.6720   25.2190   22.0190 C.2   111  GLY111      0.2639
     40  O         14.1540   26.2290   22.5510 O.2   111  GLY111     -0.2714
     41  N         13.5160   25.0820   20.6810 N.am  112  LEU112     -0.1963
     42  CA        13.9680   26.0760   19.6900 C.3   112  LEU112      0.1728
     43  C         13.4240   27.4910   19.9160 C.2   112  LEU112      0.2616
     44  O         14.1990   28.4340   19.8150 O.2   112  LEU112     -0.2715
     45  CB        13.6740   25.6400   18.2510 C.3   112  LEU112      0.0311
     46  CG        14.5580   24.5070   17.6870 C.3   112  LEU112      0.0022
     47  CD1       14.3890   24.3820   16.2180 C.3   112  LEU112      0.0001
     48  CD2       16.0200   24.8010   17.8550 C.3   112  LEU112      0.0001
     49  N         12.1410   27.6480   20.2350 N.am  113  LYS113     -0.1963
     50  CA        11.5020   28.9440   20.4680 C.3   113  LYS113      0.1728
     51  C         12.0660   29.6660   21.6970 C.2   113  LYS113      0.2616
     52  O         12.4020   30.8430   21.5730 O.2   113  LYS113     -0.2715
     53  CB         9.9990   28.7920   20.6160 C.3   113  LYS113      0.0311
     54  CG         9.2660   28.4420   19.3260 C.3   113  LYS113      0.0038
     55  CD         9.1140   29.6530   18.4120 C.3   113  LYS113      0.0206
     56  CE         9.9660   29.5350   17.1520 C.3   113  LYS113      0.1093
     57  NZ         9.5090   28.4570   16.2210 N.3   113  LYS113     -0.1314
     58  N         12.2090   28.9900   22.8580 N.am  114  THR114     -0.1951
     59  CA        12.7660   29.6230   24.0690 C.3   114  THR114      0.1897
     60  C         14.2540   29.9610   23.8700 C.2   114  THR114      0.2313
     61  O         14.6750   31.0540   24.2580 O.2   114  THR114     -0.2863
     62  CB        12.5390   28.7490   25.2990 C.3   114  THR114      0.1794
     63  OG1       11.1270   28.5500   25.4520 O.3   114  THR114     -0.2208
     64  CG2       13.0980   29.3630   26.5630 C.3   114  THR114      0.0378
     65  N          9.0340   22.6730   33.8950 N.3   140  MET140     -0.1230
     66  CA         9.9560   21.7880   33.1700 C.3   140  MET140      0.1702
     67  C         11.3850   22.3820   33.1800 C.2   140  MET140      0.2592
     68  O         12.3360   21.6810   33.5270 O.2   140  MET140     -0.2718
     69  CB         9.4530   21.5670   31.7320 C.3   140  MET140      0.0401
     70  CG         9.9090   20.2490   31.1200 C.3   140  MET140      0.0596
     71  SD         9.4790   19.9070   29.3840 S.3   140  MET140     -0.1393
     72  CE         7.7100   19.9350   29.4750 C.3   140  MET140      0.0692
     73  N         11.5200   23.7020   32.8850 N.am  141  GLN141     -0.1979
     74  CA        12.7880   24.4360   32.8620 C.3   141  GLN141      0.1601
     75  C         13.4060   24.5560   34.2530 C.2   141  GLN141      0.2287
     76  O         14.6220   24.3900   34.3830 O.2   141  GLN141     -0.2864
     77  CB        12.5990   25.8110   32.2470 C.3   141  GLN141      0.0394
     78  CG        12.3270   25.7790   30.7530 C.3   141  GLN141      0.0908
     79  CD        11.6720   27.0330   30.2650 C.2   141  GLN141      0.2608
     80  OE1       11.4560   27.9940   31.0100 O.2   141  GLN141     -0.2717
     81  NE2       11.3420   27.0530   28.9860 N.am  141  GLN141     -0.0878
     82  N          5.3130   14.5600   34.1350 N.3   231  ASP231     -0.1239
     83  CA         4.3670   15.0870   33.1660 C.3   231  ASP231      0.1674
     84  C          3.7690   13.8960   32.4670 C.2   231  ASP231      0.2266
     85  O          4.4880   13.1760   31.7800 O.2   231  ASP231     -0.2867
     86  CB         5.0520   16.0490   32.1700 C.3   231  ASP231      0.1410
     87  CG         4.1360   16.7310   31.1450 C.2   231  ASP231      0.3668
     88  OD1        2.9230   16.9090   31.4420 O.co2 231  ASP231     -0.2456
     89  OD2        4.6430   17.1320   30.0690 O.co2 231  ASP231     -0.2456
     90  N          1.1710   12.4900   29.7550 N.3   233  LEU233     -0.1245
     91  CA         0.3950   12.8210   28.5680 C.3   233  LEU233      0.1561
     92  C         -0.6190   11.7260   28.3600 C.2   233  LEU233      0.2260
     93  O         -0.2510   10.5630   28.1340 O.2   233  LEU233     -0.2867
     94  CB         1.2770   13.0140   27.3080 C.3   233  LEU233      0.0270
     95  CG         2.2310   14.1980   27.2690 C.3   233  LEU233      0.0019
     96  CD1        2.8240   14.3190   25.9000 C.3   233  LEU233      0.0001
     97  CD2        1.5170   15.5040   27.5570 C.3   233  LEU233      0.0001
     98  N          6.9330   11.7830   30.9450 N.3   256  PHE256     -0.1241
     99  CA         8.2860   12.3230   30.9260 C.3   256  PHE256      0.1605
    100  C          8.6240   12.5760   32.3670 C.2   256  PHE256      0.2264
    101  O          7.9150   13.2870   33.0680 O.2   256  PHE256     -0.2867
    102  CB         8.3840   13.5780   30.0400 C.3   256  PHE256      0.0534
    103  CG         7.8420   13.3890   28.6420 C.ar  256  PHE256     -0.0203
    104  CD1        6.6280   13.9520   28.2680 C.ar  256  PHE256     -0.0042
    105  CD2        8.4900   12.5670   27.7320 C.ar  256  PHE256     -0.0042
    106  CE1        6.1040   13.7370   26.9890 C.ar  256  PHE256     -0.0003
    107  CE2        7.9540   12.3360   26.4620 C.ar  256  PHE256     -0.0003
    108  CZ         6.7710   12.9290   26.0950 C.ar  256  PHE256     -0.0000
    109  N         16.5980   11.1460   33.5400 N.3   279  ARG279     -0.1245
    110  CA        15.4380   11.3630   32.6720 C.3   279  ARG279      0.1563
    111  C         14.9220   10.0080   32.2490 C.2   279  ARG279      0.2260
    112  O         15.6920    9.1650   31.7840 O.2   279  ARG279     -0.2867
    113  CB        15.8150   12.2110   31.4510 C.3   279  ARG279      0.0307
    114  CG        15.7240   13.7210   31.6860 C.3   279  ARG279      0.0489
    115  CD        14.2850   14.2120   31.5400 C.3   279  ARG279      0.2205
    116  NE        13.7920   13.9880   30.1760 N.pl3 279  ARG279     -0.0865
    117  CZ        12.8370   13.1190   29.8480 C.cat 279  ARG279      0.5346
    118  NH1       12.2260   12.4090   30.7850 N.pl3 279  ARG279      0.1354
    119  NH2       12.4930   12.9480   28.5790 N.pl3 279  ARG279      0.1354
    120  N         11.4390    7.9770   30.3790 N.3   281  ASP281     -0.1239
    121  CA        10.1580    8.0710   29.6790 C.3   281  ASP281      0.1674
    122  C          9.4630    6.7260   29.7250 C.2   281  ASP281      0.2266
    123  O         10.0840    5.6930   29.4660 O.2   281  ASP281     -0.2867
    124  CB        10.3020    8.5500   28.2280 C.3   281  ASP281      0.1410
    125  CG        11.0200    9.8550   28.0370 C.2   281  ASP281      0.3668
    126  OD1       10.8900   10.7360   28.8980 O.co2 281  ASP281     -0.2456
    127  OD2       11.7360    9.9810   27.0530 O.co2 281  ASP281     -0.2456
@<TRIPOS>BOND
     1    47    46    1
     2    57    56    1
     3    56    55    1
     4    46    48    1
     5    46    45    1
     6    45    42    1
     7    55    54    1
     8    54    53    1
     9    42    43    1
    10    42    41    1
    11    44    43    2
    12    43    49   am
    13    49    50    1
    14    50    53    1
    15    50    51    1
    16    41    39   am
    17    52    51    2
    18    51    58   am
    19    39    40    2
    20    39    38    1
    21     6     5    1
    22     7     5    1
    23    58    59    1
    24    38    37    1
    25     5     2    1
    26    60    59    1
    27    60    61    2
    28    59    62    1
    29    37    32   am
    30     2     1    1
    31     2     3    1
    32    33    32    2
    33    32    31    1
    34     3     4    2
    35    62    63    1
    36    62    64    1
    37    96    95    1
    38    35    34    1
    39   108   107   ar
    40   108   106   ar
    41   107   105   ar
    42    31    34    1
    43    31    30    1
    44    34    36    1
    45   106   104   ar
    46   127   125   ar
    47    95    94    1
    48    95    97    1
    49    94    91    1
    50    30    28   am
    51   105   103   ar
    52    29    28    2
    53   125   124    1
    54   125   126   ar
    55    28    27    1
    56    93    92    2
    57    11    10    2
    58   124   121    1
    59     8     9    1
    60   104   103   ar
    61    92    91    1
    62    91    90    1
    63   119   117    1
    64   103   102    1
    65    81    79   am
    66    27    26    1
    67    26    17   am
    68    10     9    1
    69    10    15   am
    70    71    72    1
    71    71    70    1
    72     9    12    1
    73   123   122    2
    74   121   122    1
    75   121   120    1
    76   117   116    2
    77   117   118    1
    78    12    14    1
    79    12    13    1
    80    16    15    1
    81    16    17    1
    82    16    19    1
    83   102    99    1
    84    89    87   ar
    85    17    18    2
    86    21    23   ar
    87    21    20   ar
    88   116   115    1
    89    79    78    1
    90    79    80    2
    91    23    25   ar
    92    78    77    1
    93    99    98    1
    94    99   100    1
    95    19    20    1
    96    70    69    1
    97    87    88   ar
    98    87    86    1
    99    20    22   ar
   100   113   114    1
   101   113   110    1
   102    25    24   ar
   103   115   114    1
   104    69    66    1
   105    85    84    2
   106   112   111    2
   107    86    83    1
   108    77    74    1
   109   111   110    1
   110    22    24   ar
   111   100   101    2
   112    84    83    1
   113   110   109    1
   114    74    73    1
   115    74    75    1
   116    73    67   am
   117    83    82    1
   118    66    67    1
   119    66    65    1
   120    67    68    2
   121    75    76    2
