@<TRIPOS>MOLECULE
tmp/4iqwA01.pdb
 180 168 0 0 0
SMALL
GASTEIGER

@<TRIPOS>ATOM
      1  N         21.2860   14.5140    6.8600 N.3    44  MET44      -0.1245
      2  CA        20.9420   13.3650    7.7200 C.3    44  MET44       0.1570
      3  C         21.0140   12.0420    6.9580 C.2    44  MET44       0.2261
      4  O         21.5150   11.0530    7.5020 O.2    44  MET44      -0.2867
      5  CB        19.5470   13.5140    8.3430 C.3    44  MET44       0.0387
      6  CG        19.5030   14.4170    9.5340 C.3    44  MET44       0.0595
      7  SD        17.8360   14.5190   10.2350 S.3    44  MET44      -0.1393
      8  CE        18.2500   14.3700   11.9830 C.3    44  MET44       0.0692
      9  N         27.3310    5.9000    7.9860 N.3    51  LYS51      -0.1245
     10  CA        27.3360    5.1490    9.2440 C.3    51  LYS51       0.1561
     11  C         27.2130    3.6280    8.9960 C.2    51  LYS51       0.2260
     12  O         27.7200    2.8420    9.8120 O.2    51  LYS51      -0.2867
     13  CB        26.2010    5.6200   10.1780 C.3    51  LYS51       0.0271
     14  CG        26.4680    6.9860   10.7730 C.3    51  LYS51       0.0035
     15  CD        25.4030    7.4660   11.7310 C.3    51  LYS51       0.0206
     16  CE        25.8410    8.8400   12.2330 C.3    51  LYS51       0.1093
     17  NZ        24.7410    9.6510   12.8140 N.3    51  LYS51      -0.1314
     18  N         14.7050    2.6280   22.9440 N.3   184  GLY184     -0.1210
     19  CA        15.6800    3.6360   22.5500 C.3   184  GLY184      0.1956
     20  C         17.0560    3.0640   22.2980 C.2   184  GLY184      0.2612
     21  O         17.1980    1.8620   22.0270 O.2   184  GLY184     -0.2717
     22  N         18.0680    3.9340   22.4470 N.am  185  GLY185     -0.1956
     23  CA        19.4800    3.6380   22.2080 C.3   185  GLY185      0.1869
     24  C         20.0430    2.4140   22.9110 C.2   185  GLY185      0.2309
     25  O         20.8120    1.6570   22.3140 O.2   185  GLY185     -0.2863
     26  N         19.4390   -0.6870   21.2440 N.3   188  ARG188     -0.1245
     27  CA        20.2450   -0.7780   20.0270 C.3   188  ARG188      0.1563
     28  C         21.7440   -1.0400   20.3280 C.2   188  ARG188      0.2260
     29  O         22.5580   -1.0470   19.4000 O.2   188  ARG188     -0.2867
     30  CB        20.0920    0.4920   19.1720 C.3   188  ARG188      0.0307
     31  CG        18.6580    0.7920   18.6690 C.3   188  ARG188      0.0489
     32  CD        18.6460    1.8760   17.5930 C.3   188  ARG188      0.2205
     33  NE        19.4520    3.0650   17.9240 N.pl3 188  ARG188     -0.0865
     34  CZ        18.9840    4.1300   18.5590 C.cat 188  ARG188      0.5346
     35  NH1       19.7710    5.1620   18.8030 N.pl3 188  ARG188      0.1354
     36  NH2       17.7290    4.1700   18.9530 N.pl3 188  ARG188      0.1354
     37  N         23.7410    0.7880   22.6780 N.3   190  LYS190     -0.1245
     38  CA        24.5250    1.9380   23.1210 C.3   190  LYS190      0.1561
     39  C         24.9720    1.8070   24.5750 C.2   190  LYS190      0.2260
     40  O         24.2380    1.3220   25.4200 O.2   190  LYS190     -0.2867
     41  CB        23.7580    3.2450   22.9270 C.3   190  LYS190      0.0271
     42  CG        23.6430    3.6460   21.4770 C.3   190  LYS190      0.0035
     43  CD        22.8370    4.9100   21.2980 C.3   190  LYS190      0.0206
     44  CE        23.5890    6.1490   21.6730 C.3   190  LYS190      0.1093
     45  NZ        23.7170    7.0700   20.5190 N.3   190  LYS190     -0.1314
     46  N         14.2220    4.8940   28.2880 N.3   197  ASP197     -0.1239
     47  CA        12.8650    4.7440   27.7950 C.3   197  ASP197      0.1674
     48  C         12.3820    3.3450   27.9540 C.2   197  ASP197      0.2266
     49  O         13.1410    2.4070   27.7650 O.2   197  ASP197     -0.2867
     50  CB        12.8030    5.1470   26.3120 C.3   197  ASP197      0.1410
     51  CG        13.3110    6.5380   26.0030 C.2   197  ASP197      0.3668
     52  OD1       13.2570    7.4030   26.9000 O.co2 197  ASP197     -0.2456
     53  OD2       13.7300    6.7680   24.8550 O.co2 197  ASP197     -0.2456
     54  N          6.1230   10.7190   12.1020 N.3   248  ALA248     -0.1231
     55  CA         4.8800   10.3690   12.7910 C.3   248  ALA248      0.1694
     56  C          4.9310   10.6140   14.2920 C.2   248  ALA248      0.2592
     57  O          5.9300   10.2800   14.9500 O.2   248  ALA248     -0.2718
     58  CB         4.5390    8.9100   12.5430 C.3   248  ALA248      0.0304
     59  N          3.8110   11.1610   14.8330 N.am  249  ALA249     -0.1966
     60  CA         3.5970   11.4170   16.2620 C.3   249  ALA249      0.1728
     61  C          3.0470   10.1460   16.9590 C.2   249  ALA249      0.2616
     62  O          2.3350    9.3430   16.3410 O.2   249  ALA249     -0.2715
     63  CB         2.6340   12.5880   16.4560 C.3   249  ALA249      0.0334
     64  N          3.4010    9.9610   18.2390 N.am  250  ASP250     -0.1971
     65  CA         2.9410    8.8370   19.0560 C.3   250  ASP250      0.1709
     66  C          1.7810    9.3170   19.9440 C.2   250  ASP250      0.2293
     67  O          1.9240   10.2780   20.7160 O.2   250  ASP250     -0.2864
     68  CB         4.0960    8.2770   19.8840 C.3   250  ASP250      0.1436
     69  CG         3.7580    7.0730   20.7250 C.2   250  ASP250      0.3671
     70  OD1        4.3030    6.0000   20.4580 O.co2 250  ASP250     -0.2456
     71  OD2        3.0390    7.2280   21.7150 O.co2 250  ASP250     -0.2456
     72  N          1.8040    8.3930   27.8180 N.3   254  LYS254     -0.1245
     73  CA         3.2200    8.4100   28.1570 C.3   254  LYS254      0.1561
     74  C          3.5180    9.3980   29.2460 C.2   254  LYS254      0.2260
     75  O          2.6980   10.2710   29.5260 O.2   254  LYS254     -0.2867
     76  CB         4.0770    8.7320   26.9170 C.3   254  LYS254      0.0271
     77  CG         3.7750   10.0740   26.2600 C.3   254  LYS254      0.0035
     78  CD         4.6140   10.2910   25.0050 C.3   254  LYS254      0.0206
     79  CE         4.3650    9.2760   23.9220 C.3   254  LYS254      0.1093
     80  NZ         3.0440    9.4760   23.2870 N.3   254  LYS254     -0.1314
     81  N          6.9330   11.7830   30.9450 N.3   256  PHE256     -0.1241
     82  CA         8.2860   12.3230   30.9260 C.3   256  PHE256      0.1605
     83  C          8.6240   12.5760   32.3670 C.2   256  PHE256      0.2264
     84  O          7.9150   13.2870   33.0680 O.2   256  PHE256     -0.2867
     85  CB         8.3840   13.5780   30.0400 C.3   256  PHE256      0.0534
     86  CG         7.8420   13.3890   28.6420 C.ar  256  PHE256     -0.0203
     87  CD1        6.6280   13.9520   28.2680 C.ar  256  PHE256     -0.0042
     88  CD2        8.4900   12.5670   27.7320 C.ar  256  PHE256     -0.0042
     89  CE1        6.1040   13.7370   26.9890 C.ar  256  PHE256     -0.0003
     90  CE2        7.9540   12.3360   26.4620 C.ar  256  PHE256     -0.0003
     91  CZ         6.7710   12.9290   26.0950 C.ar  256  PHE256     -0.0000
     92  N         11.4390    7.9770   30.3790 N.3   281  ASP281     -0.1239
     93  CA        10.1580    8.0710   29.6790 C.3   281  ASP281      0.1674
     94  C          9.4630    6.7260   29.7250 C.2   281  ASP281      0.2266
     95  O         10.0840    5.6930   29.4660 O.2   281  ASP281     -0.2867
     96  CB        10.3020    8.5500   28.2280 C.3   281  ASP281      0.1410
     97  CG        11.0200    9.8550   28.0370 C.2   281  ASP281      0.3668
     98  OD1       10.8900   10.7360   28.8980 O.co2 281  ASP281     -0.2456
     99  OD2       11.7360    9.9810   27.0530 O.co2 281  ASP281     -0.2456
    100  N          8.6560    1.3540   16.8500 N.3   296  GLY296     -0.1210
    101  CA         8.7370    2.8110   16.8220 C.3   296  GLY296      0.1956
    102  C          9.6480    3.3940   17.8860 C.2   296  GLY296      0.2611
    103  O         10.4230    4.2980   17.6010 O.2   296  GLY296     -0.2717
    104  N          9.5870    2.8750   19.1090 N.am  297  TRP297     -0.1976
    105  CA        10.3880    3.3940   20.2170 C.3   297  TRP297      0.1640
    106  C         11.8080    2.8640   20.2640 C.2   297  TRP297      0.2290
    107  O         12.5780    3.3680   21.0690 O.2   297  TRP297     -0.2864
    108  CB         9.6820    3.1160   21.5570 C.3   297  TRP297      0.0576
    109  CG         8.5890    4.1190   21.7920 C.ar  297  TRP297      0.0006
    110  CD1        7.3170    4.0630   21.3130 C.ar  297  TRP297      0.0946
    111  CD2        8.7310    5.4040   22.3960 C.ar  297  TRP297      0.0152
    112  NE1        6.6610    5.2310   21.5860 N.ar  297  TRP297     -0.2442
    113  CE2        7.5000    6.0690   22.2590 C.ar  297  TRP297      0.0810
    114  CE3        9.7780    6.0530   23.0690 C.ar  297  TRP297      0.0012
    115  CZ2        7.2800    7.3580   22.7590 C.ar  297  TRP297      0.0191
    116  CZ3        9.5600    7.3350   23.5630 C.ar  297  TRP297      0.0001
    117  CH2        8.3160    7.9630   23.4360 C.ar  297  TRP297      0.0015
    118  N         13.8500    2.8710   17.6230 N.3   299  GLY299     -0.1210
    119  CA        14.5840    3.7950   16.7680 C.3   299  GLY299      0.1956
    120  C         15.5980    3.1020   15.8630 C.2   299  GLY299      0.2613
    121  O         15.4680    1.9000   15.5770 O.2   299  GLY299     -0.2717
    122  N         16.6320    3.8160   15.3950 N.am  300  SER300     -0.1938
    123  CA        16.9400    5.2290   15.6200 C.3   300  SER300      0.2055
    124  C         15.9230    6.1280   14.9180 C.2   300  SER300      0.2643
    125  O         15.0700    5.6260   14.1820 O.2   300  SER300     -0.2714
    126  CB        18.3300    5.5300   15.0860 C.3   300  SER300      0.2130
    127  OG        18.3210    5.4310   13.6710 O.3   300  SER300     -0.2179
    128  N         15.9910    7.4470   15.1290 N.am  301  ARG301     -0.1963
    129  CA        15.0450    8.3650   14.4700 C.3   301  ARG301      0.1729
    130  C         15.1090    8.2100   12.9170 C.2   301  ARG301      0.2616
    131  O         14.0610    8.1240   12.2680 O.2   301  ARG301     -0.2715
    132  CB        15.2820    9.8080   14.9160 C.3   301  ARG301      0.0348
    133  CG        14.7820   10.0510   16.3470 C.3   301  ARG301      0.0492
    134  CD        14.6050   11.5300   16.6350 C.3   301  ARG301      0.2205
    135  NE        15.0800   11.9180   17.9620 N.pl3 301  ARG301     -0.0865
    136  CZ        16.3040   12.3730   18.2220 C.cat 301  ARG301      0.5346
    137  NH1       17.2050   12.4730   17.2510 N.pl3 301  ARG301      0.1354
    138  NH2       16.6360   12.7340   19.4570 N.pl3 301  ARG301      0.1354
    139  N         16.3150    8.0930   12.3490 N.am  302  GLN302     -0.1977
    140  CA        16.5180    7.8950   10.9060 C.3   302  GLN302      0.1601
    141  C         15.9950    6.5580   10.4260 C.2   302  GLN302      0.2287
    142  O         15.4020    6.4940    9.3480 O.2   302  GLN302     -0.2864
    143  CB        17.9770    8.0620   10.4830 C.3   302  GLN302      0.0394
    144  CG        18.1190    8.1680    8.9670 C.3   302  GLN302      0.0908
    145  CD        17.4890    9.4050    8.3830 C.2   302  GLN302      0.2608
    146  OE1       17.3130   10.4250    9.0680 O.2   302  GLN302     -0.2717
    147  NE2       17.1410    9.3450    7.0990 N.am  302  GLN302     -0.0878
    148  N         13.4700    4.9370   11.7540 N.3   304  GLU304     -0.1231
    149  CA        11.9960    5.0970   11.7840 C.3   304  GLU304      0.1699
    150  C         11.4880    5.8840   10.5930 C.2   304  GLU304      0.2592
    151  O         10.5280    5.4470    9.9810 O.2   304  GLU304     -0.2718
    152  CB        11.5010    5.7750   13.0680 C.3   304  GLU304      0.0402
    153  CG        11.8750    5.0580   14.3540 C.3   304  GLU304      0.1161
    154  CD        11.3430    3.6500   14.4280 C.2   304  GLU304      0.3649
    155  OE1       10.2080    3.4380   13.9560 O.co2 304  GLU304     -0.2457
    156  OE2       12.1270    2.7420   14.7790 O.co2 304  GLU304     -0.2457
    157  N         12.1340    7.0260   10.2570 N.am  305  ARG305     -0.1980
    158  CA        11.7730    7.8500    9.0910 C.3   305  ARG305      0.1597
    159  C         11.8150    7.0300    7.8050 C.2   305  ARG305      0.2287
    160  O         10.8360    7.0390    7.0500 O.2   305  ARG305     -0.2864
    161  CB        12.6960    9.0560    8.9380 C.3   305  ARG305      0.0334
    162  CG        12.3600   10.2270    9.8120 C.3   305  ARG305      0.0492
    163  CD        13.2810   11.3930    9.4760 C.3   305  ARG305      0.2205
    164  NE        13.7750   12.0630   10.6740 N.pl3 305  ARG305     -0.0865
    165  CZ        14.9610   11.8370   11.2340 C.cat 305  ARG305      0.5346
    166  NH1       15.7890   10.9490   10.7140 N.pl3 305  ARG305      0.1354
    167  NH2       15.3130   12.4820   12.3380 N.pl3 305  ARG305      0.1354
    168  N          3.6360    4.0610   14.9430 N.3   321  ASN321     -0.1240
    169  CA         3.8340    3.3600   16.2070 C.3   321  ASN321      0.1653
    170  C          2.6430    2.5560   16.6730 C.2   321  ASN321      0.2266
    171  O          2.7750    1.8100   17.6270 O.2   321  ASN321     -0.2867
    172  CB         4.1610    4.3820   17.2880 C.3   321  ASN321      0.1155
    173  CG         5.5350    4.9910   17.1550 C.2   321  ASN321      0.2627
    174  OD1        6.2430    4.8590   16.1320 O.2   321  ASN321     -0.2716
    175  ND2        5.9610    5.6330   18.2130 N.am  321  ASN321     -0.0877
    176  N         20.9860    3.8060   12.4750 N.3   357  ALA357     -0.1245
    177  CA        21.0700    4.6430   11.2790 C.3   357  ALA357      0.1562
    178  C         21.1120    6.1610   11.5990 C.2   357  ALA357      0.2260
    179  O         20.6630    6.5650   12.6900 O.2   357  ALA357     -0.2867
    180  CB        19.8760    4.3400   10.3890 C.3   357  ALA357      0.0290
@<TRIPOS>BOND
     1     1     2    1
     2     3     4    2
     3     3     2    1
     4   160   159    2
     5   147   145   am
     6     2     5    1
     7   159   158    1
     8     9    10    1
     9     5     6    1
    10   145   144    1
    11   145   146    2
    12   161   158    1
    13   161   162    1
    14   144   143    1
    15    11    10    1
    16    11    12    2
    17   158   157    1
    18    10    13    1
    19   142   141    2
    20   163   162    1
    21   163   164    1
    22     6     7    1
    23   151   150    2
    24    13    14    1
    25     7     8    1
    26   157   150   am
    27   180   177    1
    28   141   140    1
    29   143   140    1
    30   150   149    1
    31   164   165    2
    32   166   165    1
    33    14    15    1
    34   140   139    1
    35   165   167    1
    36   177   178    1
    37   177   176    1
    38   178   179    2
    39    15    16    1
    40   148   149    1
    41   149   152    1
    42    54    55    1
    43    16    17    1
    44   131   130    2
    45   139   130   am
    46    58    55    1
    47    55    56    1
    48   130   129    1
    49   152   153    1
    50   127   126    1
    51   155   154   ar
    52   125   124    2
    53    56    59   am
    54    56    57    2
    55   153   154    1
    56   154   156   ar
    57   129   132    1
    58   129   128    1
    59    59    60    1
    60   132   133    1
    61   124   128   am
    62   124   123    1
    63   168   169    1
    64   126   123    1
    65   122   123    1
    66   122   120   am
    67   121   120    2
    68   120   119    1
    69   174   173    2
    70   169   170    1
    71   169   172    1
    72    60    63    1
    73    60    61    1
    74    62    61    2
    75   133   134    1
    76   134   135    1
    77   170   171    2
    78   119   118    1
    79   101   100    1
    80   101   102    1
    81    61    64   am
    82   173   172    1
    83   173   175   am
    84   137   136    1
    85    32    33    1
    86    32    31    1
    87   103   102    2
    88   102   104   am
    89    33    34    2
    90   135   136    2
    91   136   138    1
    92    64    65    1
    93    34    35    1
    94    34    36    1
    95    31    30    1
    96    65    68    1
    97    65    66    1
    98   104   105    1
    99    30    27    1
   100    29    28    2
   101    68    69    1
   102    66    67    2
   103    27    28    1
   104    27    26    1
   105   105   106    1
   106   105   108    1
   107   106   107    2
   108    70    69   ar
   109    45    44    1
   110    69    71   ar
   111    43    42    1
   112    43    44    1
   113   110   112   ar
   114   110   109   ar
   115    42    41    1
   116   108   109    1
   117   112   113   ar
   118   109   111   ar
   119    21    20    2
   120    23    22    1
   121    23    24    1
   122   113   111   ar
   123   113   115   ar
   124    20    22   am
   125    20    19    1
   126    25    24    2
   127   111   114   ar
   128    19    18    1
   129    37    38    1
   130   115   117   ar
   131    41    38    1
   132   114   116   ar
   133    38    39    1
   134    80    79    1
   135   117   116   ar
   136    79    78    1
   137    39    40    2
   138    53    51   ar
   139    78    77    1
   140    51    50    1
   141    51    52   ar
   142    91    90   ar
   143    91    89   ar
   144    77    76    1
   145    50    47    1
   146    90    88   ar
   147    76    73    1
   148    89    87   ar
   149    99    97   ar
   150    88    86   ar
   151    49    48    2
   152    47    48    1
   153    47    46    1
   154    72    73    1
   155    97    96    1
   156    97    98   ar
   157    73    74    1
   158    96    93    1
   159    87    86   ar
   160    86    85    1
   161    74    75    2
   162    95    94    2
   163    93    94    1
   164    93    92    1
   165    85    82    1
   166    82    81    1
   167    82    83    1
   168    83    84    2
