@<TRIPOS>MOLECULE
tmp/4iqyA00.pdb
 170 164 0 0 0
SMALL
GASTEIGER

@<TRIPOS>ATOM
      1  N         -0.8100   16.4310   -2.6540 N.3    57  GLY57      -0.1210
      2  CA        -0.4930   17.8330   -2.4690 C.3    57  GLY57       0.1956
      3  C          0.9930   18.1220   -2.3780 C.2    57  GLY57       0.2612
      4  O          1.8310   17.2600   -2.6510 O.2    57  GLY57      -0.2717
      5  N          1.3050   19.3550   -1.9850 N.am   58  ASP58      -0.1959
      6  CA         2.6730   19.8410   -1.8210 C.3    58  ASP58       0.1840
      7  C          3.3070   19.2490   -0.5690 C.2    58  ASP58       0.2621
      8  O          2.8400   19.4820    0.5510 O.2    58  ASP58      -0.2715
      9  CB         2.6060   21.3740   -1.7240 C.3    58  ASP58       0.1450
     10  CG         3.9610   22.0390   -1.6380 C.2    58  ASP58       0.3671
     11  OD1        4.9930   21.3450   -1.5690 O.co2  58  ASP58      -0.2456
     12  OD2        3.9900   23.2890   -1.6320 O.co2  58  ASP58      -0.2456
     13  N          4.3820   18.4860   -0.7500 N.am   59  ILE59      -0.1977
     14  CA         5.0140   17.7820    0.3520 C.3    59  ILE59       0.1596
     15  C          5.6100   18.7560    1.3640 C.2    59  ILE59       0.2287
     16  O          5.7500   18.4330    2.5460 O.2    59  ILE59      -0.2864
     17  CB         6.0890   16.8040   -0.1730 C.3    59  ILE59       0.0276
     18  CG1        6.4470   15.7610    0.8920 C.3    59  ILE59       0.0022
     19  CG2        7.3480   17.5500   -0.6390 C.3    59  ILE59       0.0022
     20  CD1        7.2970   14.6340    0.3540 C.3    59  ILE59       0.0001
     21  N         13.3490   13.7710   -3.5880 N.3    70  ALA70      -0.1231
     22  CA        13.8350   13.1300   -4.8150 C.3    70  ALA70       0.1694
     23  C         15.0010   13.9540   -5.3790 C.2    70  ALA70       0.2592
     24  O         14.8400   14.8120   -6.2760 O.2    70  ALA70      -0.2718
     25  CB        12.7050   12.9970   -5.8310 C.3    70  ALA70       0.0304
     26  N         16.1860   13.6860   -4.8480 N.am   71  ALA71      -0.1966
     27  CA        17.3380   14.5520   -5.0790 C.3    71  ALA71       0.1728
     28  C         18.1520   14.0860   -6.2750 C.2    71  ALA71       0.2616
     29  O         17.8120   13.1200   -6.9440 O.2    71  ALA71      -0.2715
     30  CB        18.2090   14.5910   -3.8340 C.3    71  ALA71       0.0334
     31  N         19.2460   14.7830   -6.5380 N.am   72  ASN72      -0.1972
     32  CA        20.2190   14.2710   -7.4830 C.3    72  ASN72       0.1688
     33  C         21.5150   13.9740   -6.7550 C.2    72  ASN72       0.2292
     34  O         21.6540   14.2890   -5.5710 O.2    72  ASN72      -0.2864
     35  CB        20.4530   15.2580   -8.6170 C.3    72  ASN72       0.1181
     36  CG        21.0240   16.5590   -8.1290 C.2    72  ASN72       0.2629
     37  OD1       22.2270   16.6590   -7.8710 O.2    72  ASN72      -0.2716
     38  ND2       20.1780   17.5720   -8.0040 N.am   72  ASN72      -0.0877
     39  N         20.3920   20.5650   -4.9630 N.3    77  GLY77      -0.1210
     40  CA        19.1230   21.1400   -5.3780 C.3    77  GLY77       0.1956
     41  C         18.8560   20.9490   -6.8530 C.2    77  GLY77       0.2612
     42  O         19.6030   20.2650   -7.5570 O.2    77  GLY77      -0.2717
     43  N         17.7670   21.5420   -7.3230 N.am   78  GLY78      -0.1942
     44  CA        17.3930   21.4060   -8.7110 C.3    78  GLY78       0.2014
     45  C         15.9790   21.8810   -8.9450 C.2    78  GLY78       0.2639
     46  O         15.5520   22.9250   -8.4220 O.2    78  GLY78      -0.2714
     47  N         15.2460   21.1110   -9.7300 N.am   79  GLY79      -0.1939
     48  CA        13.8810   21.4490  -10.0680 C.3    79  GLY79       0.2014
     49  C         12.9340   20.4890   -9.3960 C.2    79  GLY79       0.2639
     50  O         13.3390   19.7900   -8.4720 O.2    79  GLY79      -0.2714
     51  N         11.6840   20.4740   -9.8510 N.am   80  GLY80      -0.1939
     52  CA        10.6950   19.5410   -9.3300 C.3    80  GLY80       0.2014
     53  C         10.5860   19.6190   -7.8200 C.2    80  GLY80       0.2639
     54  O         10.6520   20.7010   -7.2240 O.2    80  GLY80      -0.2714
     55  N         10.4080   18.4660   -7.1850 N.am   81  VAL81      -0.1963
     56  CA        10.2050   18.4810   -5.7440 C.3    81  VAL81       0.1727
     57  C         11.4640   18.9450   -4.9810 C.2    81  VAL81       0.2616
     58  O         11.3720   19.6320   -3.9670 O.2    81  VAL81      -0.2715
     59  CB         9.6480   17.1320   -5.2480 C.3    81  VAL81       0.0290
     60  CG1       10.6780   16.0130   -5.3790 C.3    81  VAL81       0.0023
     61  CG2        9.1980   17.2590   -3.7880 C.3    81  VAL81       0.0023
     62  N         12.6360   18.6160   -5.5110 N.am   82  ASP82      -0.1971
     63  CA        13.9140   19.0650   -4.9550 C.3    82  ASP82       0.1709
     64  C         13.9540   20.5980   -4.8760 C.2    82  ASP82       0.2293
     65  O         14.2560   21.1770   -3.8330 O.2    82  ASP82      -0.2864
     66  CB        15.0260   18.4990   -5.8480 C.3    82  ASP82       0.1436
     67  CG        16.4230   18.5980   -5.2510 C.2    82  ASP82       0.3671
     68  OD1       16.6060   18.9530   -4.0590 O.co2  82  ASP82      -0.2456
     69  OD2       17.3730   18.2810   -6.0120 O.co2  82  ASP82      -0.2456
     70  N         11.4310   22.6650   -4.8900 N.3    84  CYS84      -0.1235
     71  CA        10.4060   23.0880   -3.9320 C.3    84  CYS84       0.1677
     72  C         10.9160   22.9550   -2.5060 C.2    84  CYS84       0.2270
     73  O         10.7560   23.8660   -1.6890 O.2    84  CYS84      -0.2867
     74  CB         9.1280   22.2580   -4.0900 C.3    84  CYS84       0.0956
     75  SG         8.1760   22.6120   -5.5720 S.3    84  CYS84      -0.0801
     76  N         17.0290    8.8010   -6.9260 N.3   126  GLY126     -0.1225
     77  CA        16.3820    7.7530   -7.6840 C.3   126  GLY126      0.1811
     78  C         17.1670    7.4010   -8.9270 C.2   126  GLY126      0.2280
     79  O         18.0340    8.1630   -9.3550 O.2   126  GLY126     -0.2866
     80  N          7.6000   11.4700   -1.8030 N.3   163  PRO163     -0.2102
     81  CA         7.1010   11.8710   -3.1190 C.3   163  PRO163      0.1504
     82  C          7.2820   10.7150   -4.0990 C.2   163  PRO163      0.2576
     83  O          7.8640    9.6790   -3.7370 O.2   163  PRO163     -0.2718
     84  CB         8.0290   13.0290   -3.4830 C.3   163  PRO163      0.0282
     85  CG         9.3540   12.6080   -2.8760 C.3   163  PRO163      0.0208
     86  CD         9.0100   11.8510   -1.6070 C.3   163  PRO163      0.0893
     87  N          6.7990   10.8910   -5.3250 N.am  164  CYS164     -0.1957
     88  CA         6.9160    9.8460   -6.3340 C.3   164  CYS164      0.1843
     89  C          8.2990    9.8540   -6.9910 C.2   164  CYS164      0.2625
     90  O          8.4620   10.2500   -8.1540 O.2   164  CYS164     -0.2714
     91  CB         5.7980    9.9870   -7.3720 C.3   164  CYS164      0.0997
     92  SG         4.1280    9.7640   -6.6750 S.3   164  CYS164     -0.0797
     93  N          9.2830    9.3800   -6.2350 N.am  165  ILE165     -0.1963
     94  CA        10.6880    9.3980   -6.6460 C.3   165  ILE165      0.1727
     95  C         10.8940    8.8080   -8.0370 C.2   165  ILE165      0.2617
     96  O         10.3270    7.7680   -8.3780 O.2   165  ILE165     -0.2715
     97  CB        11.5380    8.6090   -5.6320 C.3   165  ILE165      0.0290
     98  CG1       11.4510    9.2580   -4.2530 C.3   165  ILE165      0.0022
     99  CG2       12.9870    8.5280   -6.0920 C.3   165  ILE165      0.0023
    100  CD1       11.9170    8.3250   -3.1400 C.3   165  ILE165      0.0001
    101  N         11.7010    9.5100   -8.8300 N.am  166  SER166     -0.1936
    102  CA        12.1160    9.0940  -10.1760 C.3   166  SER166      0.2055
    103  C         11.0860    9.2220  -11.2760 C.2   166  SER166      0.2644
    104  O         11.4300    9.0200  -12.4430 O.2   166  SER166     -0.2714
    105  CB        12.7220    7.6780  -10.2050 C.3   166  SER166      0.2130
    106  OG        14.0280    7.6750   -9.6540 O.3   166  SER166     -0.2179
    107  N          9.8340    9.5560  -10.9540 N.am  167  THR167     -0.1936
    108  CA         8.7880    9.5570  -11.9860 C.3   167  THR167      0.2028
    109  C          8.6100   10.9020  -12.6850 C.2   167  THR167      0.2643
    110  O          7.7570   11.0490  -13.5730 O.2   167  THR167     -0.2714
    111  CB         7.4170    9.1420  -11.4320 C.3   167  THR167      0.1808
    112  OG1        6.9710   10.1410  -10.5100 O.3   167  THR167     -0.2208
    113  CG2        7.4850    7.7850  -10.7330 C.3   167  THR167      0.0379
    114  N          9.3960   11.8850  -12.2650 N.am  168  GLY168     -0.1939
    115  CA         9.4220   13.1860  -12.9320 C.3   168  GLY168      0.2014
    116  C         10.4350   13.2240  -14.0610 C.2   168  GLY168      0.2639
    117  O         10.3330   12.4570  -15.0210 O.2   168  GLY168     -0.2714
    118  N         11.4160   14.1140  -13.9710 N.am  169  ILE169     -0.1963
    119  CA        12.3770   14.1880  -15.0720 C.3   169  ILE169      0.1727
    120  C         13.2500   12.9340  -15.1610 C.2   169  ILE169      0.2616
    121  O         13.8340   12.6590  -16.2030 O.2   169  ILE169     -0.2715
    122  CB        13.2450   15.4760  -15.0580 C.3   169  ILE169      0.0290
    123  CG1       14.1550   15.5450  -13.8300 C.3   169  ILE169      0.0022
    124  CG2       12.3700   16.7040  -15.1450 C.3   169  ILE169      0.0023
    125  CD1       15.1430   16.7380  -13.8510 C.3   169  ILE169      0.0001
    126  N         13.3390   12.1530  -14.0880 N.am  170  TYR170     -0.1974
    127  CA        14.0980   10.8990  -14.1770 C.3   170  TYR170      0.1639
    128  C         13.3580    9.7880  -14.9290 C.2   170  TYR170      0.2290
    129  O         13.9170    8.7200  -15.1660 O.2   170  TYR170     -0.2864
    130  CB        14.5900   10.4270  -12.7970 C.3   170  TYR170      0.0560
    131  CG        15.8240   11.1600  -12.2850 C.ar  170  TYR170     -0.0198
    132  CD1       16.4060   12.1850  -13.0110 C.ar  170  TYR170     -0.0009
    133  CD2       16.4150   10.8030  -11.0710 C.ar  170  TYR170     -0.0009
    134  CE1       17.5340   12.8460  -12.5460 C.ar  170  TYR170      0.0417
    135  CE2       17.5360   11.4630  -10.5940 C.ar  170  TYR170      0.0417
    136  CZ        18.0920   12.4840  -11.3410 C.ar  170  TYR170      0.1957
    137  OH        19.2070   13.1640  -10.8990 O.3   170  TYR170     -0.2866
    138  N          2.8800   10.9050   -0.5760 N.3   202  CYS202     -0.1235
    139  CA         2.4790   12.2280   -1.0430 C.3   202  CYS202      0.1677
    140  C          2.6120   12.2710   -2.5580 C.2   202  CYS202      0.2270
    141  O          3.7010   12.4900   -3.0830 O.2   202  CYS202     -0.2867
    142  CB         3.3770   13.2870   -0.4030 C.3   202  CYS202      0.0956
    143  SG         2.8920   15.0010   -0.7130 S.3   202  CYS202     -0.0801
    144  N          1.6050   14.0350   -6.1870 N.3   204  PHE204     -0.1227
    145  CA         1.4630   15.4300   -6.5830 C.3   204  PHE204      0.1736
    146  C          0.5130   15.5170   -7.7610 C.2   204  PHE204      0.2595
    147  O         -0.4250   16.3140   -7.7670 O.2   204  PHE204     -0.2718
    148  CB         2.8350   15.9740   -6.9860 C.3   204  PHE204      0.0547
    149  CG         2.9090   17.4730   -7.0530 C.ar  204  PHE204     -0.0202
    150  CD1        2.7750   18.2400   -5.8990 C.ar  204  PHE204     -0.0042
    151  CD2        3.1520   18.1180   -8.2610 C.ar  204  PHE204     -0.0042
    152  CE1        2.8620   19.6250   -5.9490 C.ar  204  PHE204     -0.0003
    153  CE2        3.2480   19.5020   -8.3170 C.ar  204  PHE204     -0.0003
    154  CZ         3.1020   20.2550   -7.1600 C.ar  204  PHE204     -0.0000
    155  N          0.7500   14.6740   -8.7600 N.am  205  LEU205     -0.1980
    156  CA        -0.0470   14.6870   -9.9810 C.3   205  LEU205      0.1596
    157  C         -1.2880   13.8270   -9.8430 C.2   205  LEU205      0.2287
    158  O         -1.2940   12.8410   -9.1020 O.2   205  LEU205     -0.2864
    159  CB         0.7910   14.1870  -11.1490 C.3   205  LEU205      0.0297
    160  CG         2.0430   15.0130  -11.3950 C.3   205  LEU205      0.0022
    161  CD1        2.8010   14.4800  -12.6080 C.3   205  LEU205      0.0001
    162  CD2        1.6850   16.4880  -11.5690 C.3   205  LEU205      0.0001
    163  N         -0.6950   10.0710  -10.6730 N.3   208  ASP208     -0.1239
    164  CA        -0.1570    9.2440   -9.6050 C.3   208  ASP208      0.1674
    165  C         -1.1860    8.9600   -8.5250 C.2   208  ASP208      0.2266
    166  O         -1.2110    7.8660   -7.9780 O.2   208  ASP208     -0.2867
    167  CB         1.0840    9.8920   -9.0040 C.3   208  ASP208      0.1410
    168  CG         2.2000    9.9830   -9.9920 C.2   208  ASP208      0.3668
    169  OD1        2.5830    8.9210  -10.5270 O.co2 208  ASP208     -0.2456
    170  OD2        2.6690   11.1070  -10.2550 O.co2 208  ASP208     -0.2456
@<TRIPOS>BOND
     1   121   120    2
     2   129   128    2
     3   120   119    1
     4   120   126   am
     5   124   122    1
     6   119   122    1
     7   119   118    1
     8   122   123    1
     9   117   116    2
    10   128   127    1
    11   127   126    1
    12   127   130    1
    13   116   118   am
    14   116   115    1
    15   125   123    1
    16   110   109    2
    17   132   134   ar
    18   132   131   ar
    19   115   114    1
    20   130   131    1
    21   109   114   am
    22   109   108    1
    23   161   160    1
    24   134   136   ar
    25   104   103    2
    26   131   133   ar
    27   108   111    1
    28   108   107    1
    29   162   160    1
    30   111   113    1
    31   111   112    1
    32   160   159    1
    33   136   137    1
    34   136   135   ar
    35   103   107   am
    36   103   102    1
    37   159   156    1
    38   133   135   ar
    39   163   164    1
    40   169   168   ar
    41   170   168   ar
    42   105   102    1
    43   105   106    1
    44   102   101    1
    45    48    47    1
    46    48    49    1
    47   168   167    1
    48   156   157    1
    49   156   155    1
    50    51    49   am
    51    51    52    1
    52   157   158    2
    53    47    45   am
    54   164   167    1
    55   164   165    1
    56    49    50    2
    57    79    78    2
    58    52    53    1
    59    45    44    1
    60    45    46    2
    61    78    77    1
    62   101    95   am
    63   155   146   am
    64    44    43    1
    65    35    36    1
    66    35    32    1
    67   165   166    2
    68    96    95    2
    69   153   151   ar
    70   153   154   ar
    71   151   149   ar
    72    90    89    2
    73    36    38   am
    74    36    37    2
    75    95    94    1
    76    53    54    2
    77    53    55   am
    78   147   146    2
    79   146   145    1
    80    77    76    1
    81    42    41    2
    82    32    33    1
    83    32    31    1
    84    91    92    1
    85    91    88    1
    86    43    41   am
    87    55    56    1
    88   154   152   ar
    89   149   148    1
    90   149   150   ar
    91    89    88    1
    92    89    93   am
    93   148   145    1
    94    29    28    2
    95    41    40    1
    96    33    34    2
    97    94    93    1
    98    94    97    1
    99   145   144    1
   100    31    28   am
   101    88    87    1
   102    24    23    2
   103    28    27    1
   104    99    97    1
   105    69    67   ar
   106   152   150   ar
   107    66    67    1
   108    66    63    1
   109    25    22    1
   110    56    59    1
   111    56    57    1
   112    97    98    1
   113    75    74    1
   114    62    57   am
   115    62    63    1
   116    60    59    1
   117    23    26   am
   118    23    22    1
   119    40    39    1
   120    87    82   am
   121    67    68   ar
   122    59    61    1
   123    27    26    1
   124    27    30    1
   125    57    58    2
   126    63    64    1
   127    70    71    1
   128    64    65    2
   129    22    21    1
   130    98   100    1
   131    82    83    2
   132    82    81    1
   133    74    71    1
   134    71    72    1
   135    84    81    1
   136    84    85    1
   137    81    80    1
   138   141   140    2
   139    85    86    1
   140     1     2    1
   141     4     3    2
   142   140   139    1
   143    72    73    2
   144     2     3    1
   145     3     5   am
   146     5     6    1
   147     6     9    1
   148     6     7    1
   149    80    86    1
   150     9    10    1
   151    10    12   ar
   152    10    11   ar
   153   139   138    1
   154   139   142    1
   155    13     7   am
   156    13    14    1
   157   143   142    1
   158    19    17    1
   159     7     8    2
   160    17    14    1
   161    17    18    1
   162    14    15    1
   163    20    18    1
   164    15    16    2
