@<TRIPOS>MOLECULE
tmp/4ir3A00.pdb
 91 90 0 0 0
SMALL
GASTEIGER

@<TRIPOS>ATOM
      1  N         29.5340   18.3160    2.8130 N.3    32  TRP32      -0.1228
      2  CA        30.5280   17.5110    2.0470 C.3    32  TRP32       0.1722
      3  C         29.9840   16.2050    1.4990 C.2    32  TRP32       0.2437
      4  O         30.3710   15.7940    0.3900 O.2    32  TRP32      -0.2733
      5  CB        31.8090   17.2760    2.8390 C.3    32  TRP32       0.0563
      6  CG        31.5780   16.6290    4.1650 C.ar   32  TRP32       0.0003
      7  CD1       31.4090   17.2720    5.3760 C.ar   32  TRP32       0.0946
      8  CD2       31.4940   15.2210    4.4410 C.ar   32  TRP32       0.0152
      9  NE1       31.2120   16.3480    6.3650 N.ar   32  TRP32      -0.2442
     10  CE2       31.2310   15.0870    5.8260 C.ar   32  TRP32       0.0810
     11  CE3       31.6080   14.0630    3.6560 C.ar   32  TRP32       0.0012
     12  CZ2       31.0980   13.8350    6.4440 C.ar   32  TRP32       0.0191
     13  CZ3       31.4260   12.8250    4.2440 C.ar   32  TRP32       0.0001
     14  CH2       31.2010   12.7130    5.6400 C.ar   32  TRP32       0.0015
     15  N         29.0200   15.5850    2.1970 N.am   33  PRO33      -0.2718
     16  CA        28.5360   14.3660    1.5900 C.3    33  PRO33       0.1535
     17  C         27.6770   14.5560    0.3830 C.2    33  PRO33       0.2598
     18  O         27.3820   13.5550   -0.2760 O.2    33  PRO33      -0.2715
     19  CB        27.6760   13.7110    2.7200 C.3    33  PRO33       0.0310
     20  CG        28.0760   14.4040    3.9890 C.3    33  PRO33       0.0237
     21  CD        28.4160   15.7950    3.5470 C.3    33  PRO33       0.0939
     22  N         27.1800   15.7960    0.1720 N.am   34  PHE34      -0.1974
     23  CA        26.0930   16.1110   -0.7490 C.3    34  PHE34       0.1639
     24  C         26.5490   16.9620   -1.9300 C.2    34  PHE34       0.2290
     25  O         25.7680   17.2450   -2.8240 O.2    34  PHE34      -0.2864
     26  CB        24.9630   16.8000    0.0020 C.3    34  PHE34       0.0560
     27  CG        24.5810   16.0750    1.2500 C.ar   34  PHE34      -0.0200
     28  CD1       24.1130   14.7610    1.1770 C.ar   34  PHE34      -0.0042
     29  CD2       24.7990   16.6350    2.4880 C.ar   34  PHE34      -0.0042
     30  CE1       23.8870   14.0570    2.3090 C.ar   34  PHE34      -0.0003
     31  CE2       24.5280   15.9390    3.6260 C.ar   34  PHE34      -0.0003
     32  CZ        24.0870   14.6550    3.5600 C.ar   34  PHE34      -0.0000
     33  N         26.9360   10.7330   -5.6000 N.3    38  VAL38      -0.1245
     34  CA        27.5550    9.5150   -5.0950 C.3    38  VAL38       0.1561
     35  C         28.0840    8.6950   -6.2440 C.2    38  VAL38       0.2260
     36  O         27.4190    8.5410   -7.2760 O.2    38  VAL38      -0.2867
     37  CB        26.5950    8.6840   -4.2320 C.3    38  VAL38       0.0252
     38  CG1       27.2430    7.3560   -3.7840 C.3    38  VAL38       0.0019
     39  CG2       26.1370    9.4830   -3.0300 C.3    38  VAL38       0.0019
     40  N         30.4030    2.7630   -4.5990 N.3    43  VAL43      -0.1245
     41  CA        29.5600    2.5420   -3.4500 C.3    43  VAL43       0.1561
     42  C         28.5230    1.4180   -3.7640 C.2    43  VAL43       0.2260
     43  O         27.3890    1.6870   -4.2760 O.2    43  VAL43      -0.2867
     44  CB        28.8790    3.8350   -3.0500 C.3    43  VAL43       0.0252
     45  CG1       28.0950    3.6650   -1.7570 C.3    43  VAL43       0.0019
     46  CG2       29.9260    4.9620   -2.9180 C.3    43  VAL43       0.0019
     47  N         24.2770    1.2820   -3.9220 N.3    46  TYR46      -0.1241
     48  CA        23.6840    2.6260   -4.1080 C.3    46  TYR46       0.1605
     49  C         22.8730    2.7250   -5.3640 C.2    46  TYR46       0.2264
     50  O         21.7810    3.2580   -5.3630 O.2    46  TYR46      -0.2867
     51  CB        24.7820    3.7490   -4.1550 C.3    46  TYR46       0.0534
     52  CG        24.1660    5.0610   -3.7230 C.ar   46  TYR46      -0.0201
     53  CD1       24.1600    5.4300   -2.3790 C.ar   46  TYR46      -0.0009
     54  CD2       23.4820    5.8710   -4.6300 C.ar   46  TYR46      -0.0009
     55  CE1       23.5300    6.6360   -1.9490 C.ar   46  TYR46       0.0417
     56  CE2       22.8830    7.0770   -4.2290 C.ar   46  TYR46       0.0417
     57  CZ        22.8880    7.4550   -2.8960 C.ar   46  TYR46       0.1957
     58  OH        22.2460    8.6330   -2.4890 O.3    46  TYR46      -0.2866
     59  N         19.6840   10.1770    1.6570 N.3    85  CYS85      -0.1235
     60  CA        20.7080   10.0260    2.6780 C.3    85  CYS85       0.1677
     61  C         20.1530    9.1360    3.7990 C.2    85  CYS85       0.2270
     62  O         20.8320    8.2090    4.2820 O.2    85  CYS85      -0.2867
     63  CB        21.0900   11.3880    3.2200 C.3    85  CYS85       0.0956
     64  SG        22.3850   11.4000    4.4690 S.3    85  CYS85      -0.0801
     65  N         19.9710    5.3670    2.9190 N.3    88  PHE88      -0.1227
     66  CA        21.2140    4.6420    2.7630 C.3    88  PHE88       0.1736
     67  C         22.1230    4.6810    3.9750 C.2    88  PHE88       0.2595
     68  O         23.0810    3.8790    4.0480 O.2    88  PHE88      -0.2718
     69  CB        21.9710    5.1490    1.5450 C.3    88  PHE88       0.0547
     70  CG        22.8780    4.0990    0.9210 C.ar   88  PHE88      -0.0202
     71  CD1       22.3570    3.1140    0.0810 C.ar   88  PHE88      -0.0042
     72  CD2       24.2550    4.1350    1.1360 C.ar   88  PHE88      -0.0042
     73  CE1       23.1840    2.1510   -0.5060 C.ar   88  PHE88      -0.0003
     74  CE2       25.0790    3.1560    0.5870 C.ar   88  PHE88      -0.0003
     75  CZ        24.5500    2.1800   -0.2600 C.ar   88  PHE88      -0.0000
     76  N         21.8770    5.6290    4.9020 N.am   89  ASN89      -0.1974
     77  CA        22.8200    5.8390    6.0170 C.3    89  ASN89       0.1688
     78  C         22.1360    5.6990    7.3640 C.2    89  ASN89       0.2292
     79  O         20.9920    6.1390    7.5310 O.2    89  ASN89      -0.2864
     80  CB        23.4930    7.2150    5.9530 C.3    89  ASN89       0.1181
     81  CG        24.3050    7.4170    4.6900 C.2    89  ASN89       0.2629
     82  OD1       25.5180    7.1840    4.6840 O.2    89  ASN89      -0.2716
     83  ND2       23.6680    7.9420    3.6400 N.am   89  ASN89      -0.0877
     84  N         27.4850   10.8030    8.2510 N.3    95  ILE95      -0.1245
     85  CA        26.7270   11.1890    7.0910 C.3    95  ILE95       0.1561
     86  C         25.2500   11.2910    7.4150 C.2    95  ILE95       0.2260
     87  O         24.5980   12.2300    6.9450 O.2    95  ILE95      -0.2867
     88  CB        26.9950   10.2510    5.8750 C.3    95  ILE95       0.0252
     89  CG1       28.4990   10.4410    5.4310 C.3    95  ILE95       0.0019
     90  CG2       26.0750   10.5820    4.7300 C.3    95  ILE95       0.0019
     91  CD1       29.0140    9.4500    4.4180 C.3    95  ILE95       0.0001
@<TRIPOS>BOND
     1    36    35    2
     2    35    34    1
     3    33    34    1
     4    49    50    2
     5    49    48    1
     6    34    37    1
     7    54    56   ar
     8    54    52   ar
     9    40    41    1
    10    43    42    2
    11    37    38    1
    12    37    39    1
    13    56    57   ar
    14    51    48    1
    15    51    52    1
    16    48    47    1
    17    42    41    1
    18    52    53   ar
    19    41    44    1
    20    44    46    1
    21    44    45    1
    22    57    58    1
    23    57    55   ar
    24    25    24    2
    25    53    55   ar
    26    24    23    1
    27    23    26    1
    28    23    22    1
    29    73    75   ar
    30    73    71   ar
    31    18    17    2
    32    75    74   ar
    33    26    27    1
    34    71    70   ar
    35    22    17   am
    36    17    16    1
    37     4     3    2
    38    74    72   ar
    39    70    72   ar
    40    70    69    1
    41    28    27   ar
    42    28    30   ar
    43    27    29   ar
    44     3     2    1
    45     3    15   am
    46    69    66    1
    47    16    15    1
    48    16    19    1
    49    59    60    1
    50     2     1    1
    51     2     5    1
    52    15    21    1
    53    30    32   ar
    54    29    31   ar
    55    60    63    1
    56    60    61    1
    57    19    20    1
    58    66    65    1
    59    66    67    1
    60     5     6    1
    61    63    64    1
    62    21    20    1
    63    32    31   ar
    64    83    81   am
    65    11    13   ar
    66    11     8   ar
    67    61    62    2
    68    67    68    2
    69    67    76   am
    70     6     8   ar
    71     6     7   ar
    72    13    14   ar
    73    91    89    1
    74     8    10   ar
    75    82    81    2
    76    81    80    1
    77    90    88    1
    78    76    77    1
    79     7     9   ar
    80    89    88    1
    81    14    12   ar
    82    10     9   ar
    83    10    12   ar
    84    88    85    1
    85    80    77    1
    86    77    78    1
    87    87    86    2
    88    85    86    1
    89    85    84    1
    90    78    79    2
