@<TRIPOS>MOLECULE
tmp/4ir4A00.pdb
 121 119 0 0 0
SMALL
GASTEIGER

@<TRIPOS>ATOM
      1  N         29.7970   18.3820    2.7040 N.3    32  TRP32      -0.1228
      2  CA        30.7740   17.6330    1.9510 C.3    32  TRP32       0.1722
      3  C         30.2660   16.2930    1.4200 C.2    32  TRP32       0.2437
      4  O         30.6830   15.8840    0.3450 O.2    32  TRP32      -0.2733
      5  CB        32.0890   17.4550    2.7400 C.3    32  TRP32       0.0563
      6  CG        31.8760   16.7840    4.0770 C.ar   32  TRP32       0.0003
      7  CD1       31.6440   17.4190    5.2850 C.ar   32  TRP32       0.0946
      8  CD2       31.8460   15.3820    4.3550 C.ar   32  TRP32       0.0152
      9  NE1       31.4580   16.4990    6.2690 N.ar   32  TRP32      -0.2442
     10  CE2       31.5780   15.2390    5.7430 C.ar   32  TRP32       0.0810
     11  CE3       32.0170   14.2260    3.5740 C.ar   32  TRP32       0.0012
     12  CZ2       31.4980   13.9830    6.3770 C.ar   32  TRP32       0.0191
     13  CZ3       31.9270   12.9750    4.1930 C.ar   32  TRP32       0.0001
     14  CH2       31.6820   12.8640    5.5910 C.ar   32  TRP32       0.0015
     15  N         29.3780   15.6080    2.1510 N.am   33  PRO33      -0.2718
     16  CA        28.9190   14.3800    1.5580 C.3    33  PRO33       0.1535
     17  C         27.9820   14.5380    0.3580 C.2    33  PRO33       0.2598
     18  O         27.6940   13.5320   -0.3320 O.2    33  PRO33      -0.2715
     19  CB        28.1610   13.6760    2.7080 C.3    33  PRO33       0.0310
     20  CG        28.5030   14.4180    3.9450 C.3    33  PRO33       0.0237
     21  CD        28.8600   15.7870    3.5210 C.3    33  PRO33       0.0939
     22  N         27.4990   15.7640    0.1400 N.am   34  PHE34      -0.1974
     23  CA        26.3940   16.0670   -0.7820 C.3    34  PHE34       0.1639
     24  C         26.7930   16.9490   -1.9600 C.2    34  PHE34       0.2290
     25  O         25.9640   17.2900   -2.7890 O.2    34  PHE34      -0.2864
     26  CB        25.2540   16.7460   -0.0050 C.3    34  PHE34       0.0560
     27  CG        24.8920   16.0460    1.2670 C.ar   34  PHE34      -0.0200
     28  CD1       24.3500   14.7680    1.2320 C.ar   34  PHE34      -0.0042
     29  CD2       25.1150   16.6490    2.5020 C.ar   34  PHE34      -0.0042
     30  CE1       24.0970   14.0830    2.4060 C.ar   34  PHE34      -0.0003
     31  CE2       24.8390   15.9770    3.6780 C.ar   34  PHE34      -0.0003
     32  CZ        24.3290   14.7020    3.6310 C.ar   34  PHE34      -0.0000
     33  N         28.9390   16.4480   -4.5280 N.3    36  LEU36      -0.1245
     34  CA        29.1140   15.7580   -5.8010 C.3    36  LEU36       0.1561
     35  C         28.2770   14.5060   -5.8550 C.2    36  LEU36       0.2260
     36  O         27.8950   13.9610   -4.8200 O.2    36  LEU36      -0.2867
     37  CB        30.5860   15.4520   -6.0500 C.3    36  LEU36       0.0270
     38  CG        31.5450   16.6400   -6.1870 C.3    36  LEU36       0.0019
     39  CD1       33.0070   16.1560   -6.3070 C.3    36  LEU36       0.0001
     40  CD2       31.1920   17.5370   -7.3680 C.3    36  LEU36       0.0001
     41  N         27.3320   10.7700   -5.7440 N.3    38  VAL38      -0.1245
     42  CA        27.9960    9.5910   -5.1660 C.3    38  VAL38       0.1561
     43  C         28.6330    8.7760   -6.2930 C.2    38  VAL38       0.2260
     44  O         28.0110    8.5600   -7.3390 O.2    38  VAL38      -0.2867
     45  CB        27.0490    8.7060   -4.3330 C.3    38  VAL38       0.0252
     46  CG1       27.7230    7.3670   -3.9850 C.3    38  VAL38       0.0019
     47  CG2       26.6030    9.4300   -3.0680 C.3    38  VAL38       0.0019
     48  N         32.3140    3.2810   -6.7380 N.3    42  LEU42      -0.1231
     49  CA        33.0640    3.1720   -5.4950 C.3    42  LEU42       0.1693
     50  C         32.2090    2.8510   -4.2970 C.2    42  LEU42       0.2592
     51  O         32.7510    2.5600   -3.2310 O.2    42  LEU42      -0.2718
     52  CB        33.8140    4.4760   -5.2080 C.3    42  LEU42       0.0284
     53  CG        35.2030    4.6050   -5.8530 C.3    42  LEU42       0.0019
     54  CD1       35.2300    4.1250   -7.3100 C.3    42  LEU42       0.0001
     55  CD2       35.7290    6.0360   -5.6920 C.3    42  LEU42       0.0001
     56  N         30.8900    2.9460   -4.4340 N.am   43  VAL43      -0.1966
     57  CA        30.0190    2.7250   -3.2880 C.3    43  VAL43       0.1712
     58  C         29.0500    1.5870   -3.5670 C.2    43  VAL43       0.2458
     59  O         28.0660    1.7590   -4.2870 O.2    43  VAL43      -0.2730
     60  CB        29.2710    3.9850   -2.8840 C.3    43  VAL43       0.0289
     61  CG1       28.4910    3.7470   -1.5900 C.3    43  VAL43       0.0023
     62  CG2       30.2620    5.1380   -2.7280 C.3    43  VAL43       0.0023
     63  N         29.3470    0.4040   -2.9990 N.am   44  PRO44      -0.2727
     64  CA        28.5530   -0.7890   -3.2510 C.3    44  PRO44       0.1402
     65  C         27.1420   -0.6300   -2.7010 C.2    44  PRO44       0.2269
     66  O         26.9580   -0.1370   -1.5820 O.2    44  PRO44      -0.2865
     67  CB        29.3130   -1.8810   -2.4750 C.3    44  PRO44       0.0296
     68  CG        29.8960   -1.1440   -1.3210 C.3    44  PRO44       0.0237
     69  CD        30.3460    0.1650   -1.9360 C.3    44  PRO44       0.0939
     70  N         24.8000    1.4090   -3.8300 N.3    46  TYR46      -0.1241
     71  CA        24.1650    2.7110   -4.1050 C.3    46  TYR46       0.1605
     72  C         23.3050    2.7180   -5.3430 C.2    46  TYR46       0.2264
     73  O         22.1510    3.1600   -5.3140 O.2    46  TYR46      -0.2867
     74  CB        25.1660    3.8930   -4.1960 C.3    46  TYR46       0.0534
     75  CG        24.4950    5.1810   -3.7620 C.ar   46  TYR46      -0.0201
     76  CD1       24.4660    5.5430   -2.4090 C.ar   46  TYR46      -0.0009
     77  CD2       23.8010    5.9630   -4.6680 C.ar   46  TYR46      -0.0009
     78  CE1       23.8300    6.6970   -1.9740 C.ar   46  TYR46       0.0417
     79  CE2       23.1610    7.1380   -4.2650 C.ar   46  TYR46       0.0417
     80  CZ        23.1850    7.5000   -2.9220 C.ar   46  TYR46       0.1957
     81  OH        22.5160    8.5980   -2.5380 O.3    46  TYR46      -0.2866
     82  N         17.9110   14.6790   -1.8310 N.3    81  VAL81      -0.1245
     83  CA        19.3240   14.4860   -1.3600 C.3    81  VAL81       0.1561
     84  C         19.3100   13.9080    0.0840 C.2    81  VAL81       0.2260
     85  O         20.0500   12.9620    0.3760 O.2    81  VAL81      -0.2867
     86  CB        20.0960   15.7850   -1.3380 C.3    81  VAL81       0.0252
     87  CG1       21.5060   15.5590   -0.7370 C.3    81  VAL81       0.0019
     88  CG2       20.2380   16.3150   -2.7710 C.3    81  VAL81       0.0019
     89  N         19.9530   10.1440    1.7150 N.3    85  CYS85      -0.1235
     90  CA        20.9620   10.0320    2.7550 C.3    85  CYS85       0.1677
     91  C         20.4280    9.1370    3.8900 C.2    85  CYS85       0.2270
     92  O         21.1280    8.2360    4.3510 O.2    85  CYS85      -0.2867
     93  CB        21.3810   11.4260    3.2440 C.3    85  CYS85       0.0956
     94  SG        22.6850   11.4460    4.5360 S.3    85  CYS85      -0.0801
     95  N         20.2010    5.3170    2.9120 N.3    88  PHE88      -0.1227
     96  CA        21.4930    4.6450    2.8280 C.3    88  PHE88       0.1736
     97  C         22.4080    4.6560    4.0600 C.2    88  PHE88       0.2595
     98  O         23.2750    3.7750    4.1870 O.2    88  PHE88      -0.2718
     99  CB        22.2500    5.1960    1.6210 C.3    88  PHE88       0.0547
    100  CG        23.1910    4.2120    1.0160 C.ar   88  PHE88      -0.0202
    101  CD1       24.5430    4.2870    1.2730 C.ar   88  PHE88      -0.0042
    102  CD2       22.7200    3.2040    0.1910 C.ar   88  PHE88      -0.0042
    103  CE1       25.4120    3.3790    0.7150 C.ar   88  PHE88      -0.0003
    104  CE2       23.5750    2.2930   -0.3740 C.ar   88  PHE88      -0.0003
    105  CZ        24.9280    2.3700   -0.1070 C.ar   88  PHE88      -0.0000
    106  N         22.2380    5.6240    4.9680 N.am   89  ASN89      -0.1974
    107  CA        23.1930    5.8280    6.0800 C.3    89  ASN89       0.1688
    108  C         22.5190    5.7240    7.4360 C.2    89  ASN89       0.2292
    109  O         21.3720    6.1680    7.5890 O.2    89  ASN89      -0.2864
    110  CB        23.8480    7.1860    5.9700 C.3    89  ASN89       0.1181
    111  CG        24.5960    7.3600    4.6720 C.2    89  ASN89       0.2629
    112  OD1       25.7710    6.9990    4.5770 O.2    89  ASN89      -0.2716
    113  ND2       23.9310    7.9230    3.6640 N.am   89  ASN89      -0.0877
    114  N         27.8790   10.7610    8.2350 N.3    95  ILE95      -0.1245
    115  CA        27.0850   11.2050    7.0960 C.3    95  ILE95       0.1561
    116  C         25.6000   11.2750    7.4270 C.2    95  ILE95       0.2260
    117  O         24.8900   12.1630    6.9310 O.2    95  ILE95      -0.2867
    118  CB        27.3140   10.3280    5.8440 C.3    95  ILE95       0.0252
    119  CG1       28.7550   10.4980    5.3640 C.3    95  ILE95       0.0019
    120  CG2       26.2940   10.7030    4.7380 C.3    95  ILE95       0.0019
    121  CD1       29.2140    9.4020    4.4100 C.3    95  ILE95       0.0001
@<TRIPOS>BOND
     1    40    38    1
     2    44    43    2
     3    54    53    1
     4    48    49    1
     5    39    38    1
     6    43    42    1
     7    38    37    1
     8    37    34    1
     9    35    34    1
    10    35    36    2
    11    53    55    1
    12    53    52    1
    13    34    33    1
    14    41    42    1
    15    49    52    1
    16    49    50    1
    17    72    73    2
    18    72    71    1
    19    42    45    1
    20    77    79   ar
    21    77    75   ar
    22    56    50   am
    23    56    57    1
    24    45    46    1
    25    45    47    1
    26    50    51    2
    27    59    58    2
    28    79    80   ar
    29    74    71    1
    30    74    75    1
    31    71    70    1
    32    75    76   ar
    33    58    57    1
    34    58    63   am
    35    57    60    1
    36    64    63    1
    37    64    65    1
    38    64    67    1
    39    63    69    1
    40    80    81    1
    41    80    78   ar
    42    60    62    1
    43    60    61    1
    44    25    24    2
    45    88    86    1
    46    65    66    2
    47    67    68    1
    48    76    78   ar
    49    24    23    1
    50    69    68    1
    51    82    83    1
    52    83    86    1
    53    83    84    1
    54    86    87    1
    55    23    26    1
    56    23    22    1
    57   104   105   ar
    58   104   102   ar
    59    18    17    2
    60   105   103   ar
    61    26    27    1
    62    84    85    2
    63    22    17   am
    64   102   100   ar
    65     4     3    2
    66    17    16    1
    67   103   101   ar
    68   100   101   ar
    69   100    99    1
    70    28    27   ar
    71    28    30   ar
    72    27    29   ar
    73     3     2    1
    74     3    15   am
    75    16    15    1
    76    16    19    1
    77    99    96    1
    78    89    90    1
    79     2     1    1
    80     2     5    1
    81    15    21    1
    82    30    32   ar
    83    29    31   ar
    84    19    20    1
    85     5     6    1
    86    90    93    1
    87    90    91    1
    88    96    95    1
    89    96    97    1
    90    93    94    1
    91    21    20    1
    92    11    13   ar
    93    11     8   ar
    94    32    31   ar
    95   113   111   am
    96    91    92    2
    97    97    98    2
    98    97   106   am
    99     6     8   ar
   100     6     7   ar
   101    13    14   ar
   102     8    10   ar
   103   121   119    1
   104   112   111    2
   105   111   110    1
   106   120   118    1
   107   106   107    1
   108     7     9   ar
   109   119   118    1
   110    14    12   ar
   111    10     9   ar
   112    10    12   ar
   113   118   115    1
   114   110   107    1
   115   107   108    1
   116   117   116    2
   117   115   116    1
   118   115   114    1
   119   108   109    2
