@<TRIPOS>MOLECULE
tmp/4ir5A00.pdb
 128 128 0 0 0
SMALL
GASTEIGER

@<TRIPOS>ATOM
      1  N         29.3830   18.1470    3.4890 N.3    32  TRP32      -0.1228
      2  CA        30.3530   17.3540    2.7690 C.3    32  TRP32       0.1722
      3  C         29.8260   16.0710    2.1170 C.2    32  TRP32       0.2437
      4  O         30.3800   15.6940    1.0630 O.2    32  TRP32      -0.2733
      5  CB        31.5640   17.0740    3.6380 C.3    32  TRP32       0.0563
      6  CG        31.2660   16.3240    4.9200 C.ar   32  TRP32       0.0003
      7  CD1       31.0530   16.8960    6.1710 C.ar   32  TRP32       0.0946
      8  CD2       31.1740   14.9210    5.1050 C.ar   32  TRP32       0.0152
      9  NE1       30.7810   15.9150    7.0900 N.ar   32  TRP32      -0.2442
     10  CE2       30.8620   14.6890    6.4730 C.ar   32  TRP32       0.0810
     11  CE3       31.3590   13.8090    4.2650 C.ar   32  TRP32       0.0012
     12  CZ2       30.6990   13.4160    6.9830 C.ar   32  TRP32       0.0191
     13  CZ3       31.1740   12.5500    4.7900 C.ar   32  TRP32       0.0001
     14  CH2       30.8620   12.3620    6.1300 C.ar   32  TRP32       0.0015
     15  N         28.8340   15.3470    2.7130 N.am   33  PRO33      -0.2718
     16  CA        28.3650   14.1390    2.0040 C.3    33  PRO33       0.1535
     17  C         27.5920   14.4260    0.7130 C.2    33  PRO33       0.2598
     18  O         27.3550   13.5270   -0.0620 O.2    33  PRO33      -0.2715
     19  CB        27.4250   13.4320    3.0390 C.3    33  PRO33       0.0310
     20  CG        27.7940   14.0250    4.3570 C.3    33  PRO33       0.0237
     21  CD        28.1600   15.4590    4.0310 C.3    33  PRO33       0.0939
     22  N         27.1320   15.6720    0.5360 N.am   34  PHE34      -0.1974
     23  CA        26.0910   16.0290   -0.4010 C.3    34  PHE34       0.1639
     24  C         26.5850   16.9220   -1.5350 C.2    34  PHE34       0.2290
     25  O         25.7900   17.3610   -2.3600 O.2    34  PHE34      -0.2864
     26  CB        24.9390   16.7340    0.3450 C.3    34  PHE34       0.0560
     27  CG        24.4810   15.9940    1.5520 C.ar   34  PHE34      -0.0200
     28  CD1       23.9470   14.7140    1.4260 C.ar   34  PHE34      -0.0042
     29  CD2       24.6840   16.4830    2.8190 C.ar   34  PHE34      -0.0042
     30  CE1       23.5970   13.9600    2.5420 C.ar   34  PHE34      -0.0003
     31  CE2       24.3300   15.7390    3.9590 C.ar   34  PHE34      -0.0003
     32  CZ        23.8010   14.4630    3.8230 C.ar   34  PHE34      -0.0000
     33  N         27.5680   14.0210   -6.6300 N.3    37  PRO37      -0.2102
     34  CA        26.8390   12.7620   -6.6900 C.3    37  PRO37       0.1504
     35  C         27.5950   11.7050   -5.8740 C.2    37  PRO37       0.2576
     36  O         28.8550   11.6600   -5.8870 O.2    37  PRO37      -0.2718
     37  CB        26.8670   12.3960   -8.1820 C.3    37  PRO37       0.0282
     38  CG        26.9740   13.7310   -8.8510 C.3    37  PRO37       0.0208
     39  CD        27.8350   14.5830   -7.9740 C.3    37  PRO37       0.0893
     40  N         26.8380   10.8550   -5.2220 N.am   38  VAL38      -0.1966
     41  CA        27.4130    9.6500   -4.5950 C.3    38  VAL38       0.1727
     42  C         28.0860    8.8230   -5.6800 C.2    38  VAL38       0.2616
     43  O         27.5140    8.6270   -6.7580 O.2    38  VAL38      -0.2715
     44  CB        26.3280    8.8030   -3.8810 C.3    38  VAL38       0.0290
     45  CG1       26.9180    7.4970   -3.3730 C.3    38  VAL38       0.0023
     46  CG2       25.6930    9.5910   -2.7600 C.3    38  VAL38       0.0023
     47  N         29.3320    8.4150   -5.4590 N.am   39  ASN39      -0.1972
     48  CA        30.0870    7.7690   -6.4720 C.3    39  ASN39       0.1688
     49  C         29.6450    6.3030   -6.6340 C.2    39  ASN39       0.2292
     50  O         29.8890    5.4750   -5.7540 O.2    39  ASN39      -0.2864
     51  CB        31.5880    7.8370   -6.1420 C.3    39  ASN39       0.1181
     52  CG        32.4470    7.2130   -7.2210 C.2    39  ASN39       0.2629
     53  OD1       31.9960    6.3730   -7.9830 O.2    39  ASN39      -0.2716
     54  ND2       33.7010    7.6380   -7.2900 N.am   39  ASN39      -0.0877
     55  N         31.9340    3.3510   -6.4460 N.3    42  LEU42      -0.1231
     56  CA        32.6090    3.2750   -5.1640 C.3    42  LEU42       0.1693
     57  C         31.7100    2.8790   -3.9570 C.2    42  LEU42       0.2592
     58  O         32.2060    2.5440   -2.8620 O.2    42  LEU42      -0.2718
     59  CB        33.2540    4.6380   -4.8830 C.3    42  LEU42       0.0284
     60  CG        34.0410    4.8850   -3.5880 C.3    42  LEU42       0.0019
     61  CD1       35.2740    5.7270   -3.8880 C.3    42  LEU42       0.0001
     62  CD2       33.2020    5.5640   -2.5190 C.3    42  LEU42       0.0001
     63  N         30.3930    2.9950   -4.1210 N.am   43  VAL43      -0.1966
     64  CA        29.4610    2.7360   -3.0300 C.3    43  VAL43       0.1712
     65  C         28.5500    1.5800   -3.5020 C.2    43  VAL43       0.2458
     66  O         27.5880    1.8340   -4.2350 O.2    43  VAL43      -0.2730
     67  CB        28.5990    3.9590   -2.6740 C.3    43  VAL43       0.0289
     68  CG1       27.6950    3.6700   -1.4880 C.3    43  VAL43       0.0023
     69  CG2       29.4850    5.1730   -2.3870 C.3    43  VAL43       0.0023
     70  N         28.8840    0.3510   -3.1020 N.am   44  PRO44      -0.2727
     71  CA        28.1030   -0.8420   -3.4570 C.3    44  PRO44       0.1402
     72  C         26.6360   -0.6270   -3.0890 C.2    44  PRO44       0.2269
     73  O         26.3360    0.0060   -2.1030 O.2    44  PRO44      -0.2865
     74  CB        28.7270   -1.9510   -2.6030 C.3    44  PRO44       0.0296
     75  CG        30.1300   -1.5190   -2.3880 C.3    44  PRO44       0.0237
     76  CD        30.1220   -0.0150   -2.3670 C.3    44  PRO44       0.0939
     77  N         24.3710    1.4250   -4.0920 N.3    46  TYR46      -0.1241
     78  CA        23.7070    2.7240   -4.1610 C.3    46  TYR46       0.1605
     79  C         22.8130    2.8560   -5.3750 C.2    46  TYR46       0.2264
     80  O         21.6650    3.3100   -5.3220 O.2    46  TYR46      -0.2867
     81  CB        24.7080    3.8970   -4.0890 C.3    46  TYR46       0.0534
     82  CG        24.0230    5.1580   -3.6460 C.ar   46  TYR46      -0.0201
     83  CD1       23.5360    6.0750   -4.5630 C.ar   46  TYR46      -0.0009
     84  CD2       23.8270    5.4120   -2.3050 C.ar   46  TYR46      -0.0009
     85  CE1       22.8680    7.2360   -4.1640 C.ar   46  TYR46       0.0417
     86  CE2       23.1840    6.5710   -1.8780 C.ar   46  TYR46       0.0417
     87  CZ        22.7030    7.4830   -2.8120 C.ar   46  TYR46       0.1957
     88  OH        22.0180    8.5880   -2.3840 O.3    46  TYR46      -0.2866
     89  N         17.5500   14.8030   -1.6430 N.3    81  VAL81      -0.1245
     90  CA        18.8960   14.5650   -1.1080 C.3    81  VAL81       0.1561
     91  C         18.8040   13.9230    0.2900 C.2    81  VAL81       0.2260
     92  O         19.4400   12.8850    0.5860 O.2    81  VAL81      -0.2867
     93  CB        19.7550   15.8690   -1.0050 C.3    81  VAL81       0.0252
     94  CG1       21.1430   15.5660   -0.4080 C.3    81  VAL81       0.0019
     95  CG2       19.9200   16.4970   -2.3760 C.3    81  VAL81       0.0019
     96  N         19.4720   10.0440    1.7740 N.3    85  CYS85      -0.1235
     97  CA        20.4180    9.8690    2.8080 C.3    85  CYS85       0.1677
     98  C         19.8870    9.0130    3.9430 C.2    85  CYS85       0.2270
     99  O         20.5530    8.0710    4.3980 O.2    85  CYS85      -0.2867
    100  CB        20.8840   11.2450    3.3400 C.3    85  CYS85       0.0956
    101  SG        22.1660   11.1880    4.5650 S.3    85  CYS85      -0.0801
    102  N         19.5790    5.2150    2.8640 N.3    88  PHE88      -0.1227
    103  CA        20.8090    4.4560    2.6910 C.3    88  PHE88       0.1736
    104  C         21.6910    4.4010    3.9200 C.2    88  PHE88       0.2595
    105  O         22.4590    3.4780    4.0780 O.2    88  PHE88      -0.2718
    106  CB        21.6120    5.0200    1.5050 C.3    88  PHE88       0.0547
    107  CG        22.5570    4.0220    0.9150 C.ar   88  PHE88      -0.0202
    108  CD1       22.0970    3.0460    0.0660 C.ar   88  PHE88      -0.0042
    109  CD2       23.8980    4.0380    1.2200 C.ar   88  PHE88      -0.0042
    110  CE1       22.9440    2.0930   -0.4530 C.ar   88  PHE88      -0.0003
    111  CE2       24.7670    3.0820    0.7030 C.ar   88  PHE88      -0.0003
    112  CZ        24.2850    2.1050   -0.1330 C.ar   88  PHE88      -0.0000
    113  N         21.5640    5.3830    4.8050 N.am   89  ASN89      -0.1974
    114  CA        22.5110    5.5440    5.9020 C.3    89  ASN89       0.1688
    115  C         21.8640    5.4210    7.2770 C.2    89  ASN89       0.2292
    116  O         20.7050    5.8790    7.4830 O.2    89  ASN89      -0.2864
    117  CB        23.2100    6.8920    5.8530 C.3    89  ASN89       0.1181
    118  CG        23.9920    7.0850    4.5500 C.2    89  ASN89       0.2629
    119  OD1       25.0820    6.5100    4.3610 O.2    89  ASN89      -0.2716
    120  ND2       23.4110    7.7880    3.6460 N.am   89  ASN89      -0.0877
    121  N         27.3500   10.3540    8.1560 N.3    95  ILE95      -0.1245
    122  CA        26.5870   10.8370    7.0410 C.3    95  ILE95       0.1561
    123  C         25.1130   10.9620    7.4300 C.2    95  ILE95       0.2260
    124  O         24.4830   11.9480    7.0590 O.2    95  ILE95      -0.2867
    125  CB        26.7570    9.9010    5.8260 C.3    95  ILE95       0.0252
    126  CG1       28.2350   10.0430    5.3110 C.3    95  ILE95       0.0019
    127  CG2       25.7850   10.2200    4.7540 C.3    95  ILE95       0.0019
    128  CD1       28.5830    9.0310    4.2430 C.3    95  ILE95       0.0001
@<TRIPOS>BOND
     1    38    37    1
     2    38    39    1
     3    37    34    1
     4    53    52    2
     5    39    33    1
     6    54    52   am
     7    52    51    1
     8    43    42    2
     9    34    33    1
    10    34    35    1
    11    49    48    1
    12    49    50    2
    13    48    51    1
    14    48    47    1
    15    55    56    1
    16    36    35    2
    17    35    40   am
    18    42    47   am
    19    42    41    1
    20    79    80    2
    21    79    78    1
    22    40    41    1
    23    56    59    1
    24    56    57    1
    25    59    60    1
    26    41    44    1
    27    83    85   ar
    28    83    82   ar
    29    66    65    2
    30    85    87   ar
    31    78    77    1
    32    78    81    1
    33    63    57   am
    34    63    64    1
    35    81    82    1
    36    57    58    2
    37    61    60    1
    38    44    45    1
    39    44    46    1
    40    82    84   ar
    41    60    62    1
    42    65    70   am
    43    65    64    1
    44    71    70    1
    45    71    72    1
    46    71    74    1
    47    70    76    1
    48    72    73    2
    49    64    67    1
    50    87    88    1
    51    87    86   ar
    52    67    69    1
    53    67    68    1
    54    74    75    1
    55    75    76    1
    56    95    93    1
    57    25    24    2
    58    84    86   ar
    59    89    90    1
    60    24    23    1
    61    90    93    1
    62    90    91    1
    63    93    94    1
    64   110   112   ar
    65   110   108   ar
    66    23    26    1
    67    23    22    1
    68   112   111   ar
    69    18    17    2
    70   108   107   ar
    71    91    92    2
    72    26    27    1
    73    22    17   am
    74   111   109   ar
    75    17    16    1
    76   107   109   ar
    77   107   106    1
    78     4     3    2
    79    28    27   ar
    80    28    30   ar
    81   106   103    1
    82    27    29   ar
    83    96    97    1
    84    16    15    1
    85    16    19    1
    86     3    15   am
    87     3     2    1
    88    30    32   ar
    89   103   102    1
    90   103   104    1
    91    15    21    1
    92     2     1    1
    93     2     5    1
    94    97   100    1
    95    97    98    1
    96    29    31   ar
    97    19    20    1
    98   100   101    1
    99     5     6    1
   100   120   118   am
   101    32    31   ar
   102   104   105    2
   103   104   113   am
   104    98    99    2
   105    21    20    1
   106   128   126    1
   107    11    13   ar
   108    11     8   ar
   109   119   118    2
   110   118   117    1
   111   127   125    1
   112    13    14   ar
   113   113   114    1
   114     6     8   ar
   115     6     7   ar
   116     8    10   ar
   117   126   125    1
   118   125   122    1
   119   117   114    1
   120   114   115    1
   121    14    12   ar
   122     7     9   ar
   123    10    12   ar
   124    10     9   ar
   125   122   123    1
   126   122   121    1
   127   124   123    2
   128   115   116    2
