@<TRIPOS>MOLECULE
tmp/4ir6A00.pdb
 136 136 0 0 0
SMALL
GASTEIGER

@<TRIPOS>ATOM
      1  N         29.0310   17.9230    3.4690 N.3    32  TRP32      -0.1228
      2  CA        30.0250   17.0900    2.7890 C.3    32  TRP32       0.1722
      3  C         29.4690   15.8150    2.1480 C.2    32  TRP32       0.2437
      4  O         29.9830   15.4390    1.0990 O.2    32  TRP32      -0.2733
      5  CB        31.2490   16.7840    3.6760 C.3    32  TRP32       0.0563
      6  CG        30.9200   16.1260    4.9770 C.ar   32  TRP32       0.0003
      7  CD1       30.6460   16.7600    6.1560 C.ar   32  TRP32       0.0946
      8  CD2       30.7570   14.7370    5.2180 C.ar   32  TRP32       0.0152
      9  NE1       30.3690   15.8520    7.1280 N.ar   32  TRP32      -0.2442
     10  CE2       30.3940   14.5910    6.5750 C.ar   32  TRP32       0.0810
     11  CE3       30.8830   13.5800    4.4210 C.ar   32  TRP32       0.0012
     12  CZ2       30.1840   13.3420    7.1670 C.ar   32  TRP32       0.0191
     13  CZ3       30.6470   12.3320    5.0110 C.ar   32  TRP32       0.0001
     14  CH2       30.3120   12.2250    6.3740 C.ar   32  TRP32       0.0015
     15  N         28.4220   15.1670    2.7210 N.am   33  PRO33      -0.2718
     16  CA        27.9150   13.9640    2.0160 C.3    33  PRO33       0.1535
     17  C         27.1040   14.2750    0.7330 C.2    33  PRO33       0.2598
     18  O         26.8310   13.3640   -0.0430 O.2    33  PRO33      -0.2715
     19  CB        26.9850   13.3130    3.0410 C.3    33  PRO33       0.0310
     20  CG        27.3480   13.9310    4.3870 C.3    33  PRO33       0.0237
     21  CD        27.7490   15.3370    4.0560 C.3    33  PRO33       0.0939
     22  N         26.7620   15.5570    0.5230 N.am   34  PHE34      -0.1974
     23  CA        25.7200   15.9670   -0.4090 C.3    34  PHE34       0.1639
     24  C         26.2010   16.8450   -1.5310 C.2    34  PHE34       0.2290
     25  O         25.3970   17.2780   -2.3460 O.2    34  PHE34      -0.2864
     26  CB        24.5620   16.6650    0.3480 C.3    34  PHE34       0.0560
     27  CG        24.0960   15.8990    1.5770 C.ar   34  PHE34      -0.0200
     28  CD1       23.5340   14.6000    1.4610 C.ar   34  PHE34      -0.0042
     29  CD2       24.2990   16.4090    2.8370 C.ar   34  PHE34      -0.0042
     30  CE1       23.1840   13.8740    2.5840 C.ar   34  PHE34      -0.0003
     31  CE2       23.9450   15.6820    3.9720 C.ar   34  PHE34      -0.0003
     32  CZ        23.3870   14.4100    3.8540 C.ar   34  PHE34      -0.0000
     33  N         28.2940   16.1840   -4.0790 N.3    36  LEU36      -0.1231
     34  CA        28.3780   15.5120   -5.3750 C.3    36  LEU36       0.1678
     35  C         27.4340   14.3180   -5.3990 C.2    36  LEU36       0.2434
     36  O         27.0550   13.8080   -4.3710 O.2    36  LEU36      -0.2733
     37  CB        29.8240   14.9820   -5.5620 C.3    36  LEU36       0.0284
     38  CG        30.9530   16.0140   -5.5670 C.3    36  LEU36       0.0019
     39  CD1       32.3420   15.3660   -5.6390 C.3    36  LEU36       0.0001
     40  CD2       30.7460   16.9470   -6.7570 C.3    36  LEU36       0.0001
     41  N         27.0600   13.8460   -6.5960 N.am   37  PRO37      -0.2718
     42  CA        26.3290   12.5870   -6.6700 C.3    37  PRO37       0.1535
     43  C         27.0140   11.4410   -5.8990 C.2    37  PRO37       0.2598
     44  O         28.2340   11.3060   -5.9160 O.2    37  PRO37      -0.2715
     45  CB        26.3340   12.2380   -8.1710 C.3    37  PRO37       0.0310
     46  CG        26.8280   13.4430   -8.8700 C.3    37  PRO37       0.0237
     47  CD        27.4470   14.3910   -7.9120 C.3    37  PRO37       0.0939
     48  N         26.2110   10.6170   -5.2690 N.am   38  VAL38      -0.1964
     49  CA        26.7140    9.4070   -4.6150 C.3    38  VAL38       0.1727
     50  C         27.3940    8.5980   -5.6830 C.2    38  VAL38       0.2616
     51  O         26.8920    8.4350   -6.8020 O.2    38  VAL38      -0.2715
     52  CB        25.5740    8.6280   -3.9190 C.3    38  VAL38       0.0290
     53  CG1       26.0530    7.2700   -3.3740 C.3    38  VAL38       0.0023
     54  CG2       24.9570    9.4560   -2.8370 C.3    38  VAL38       0.0023
     55  N         28.6050    8.1690   -5.3820 N.am   39  ASN39      -0.1972
     56  CA        29.4390    7.5140   -6.3310 C.3    39  ASN39       0.1688
     57  C         28.9800    6.0830   -6.6190 C.2    39  ASN39       0.2292
     58  O         29.1750    5.1610   -5.7800 O.2    39  ASN39      -0.2864
     59  CB        30.8740    7.5030   -5.8120 C.3    39  ASN39       0.1181
     60  CG        31.8620    7.1410   -6.8820 C.2    39  ASN39       0.2629
     61  OD1       31.6740    6.1810   -7.6570 O.2    39  ASN39      -0.2716
     62  ND2       32.9380    7.9060   -6.9450 N.am   39  ASN39      -0.0877
     63  N         31.4040    3.1150   -6.4040 N.3    42  LEU42      -0.1231
     64  CA        32.0460    2.8160   -5.1610 C.3    42  LEU42       0.1693
     65  C         31.0710    2.5120   -4.0460 C.2    42  LEU42       0.2592
     66  O         31.4950    2.0310   -2.9900 O.2    42  LEU42      -0.2718
     67  CB        32.9430    3.9890   -4.7460 C.3    42  LEU42       0.0284
     68  CG        34.1930    4.1690   -5.6380 C.3    42  LEU42       0.0019
     69  CD1       34.8710    5.5070   -5.3740 C.3    42  LEU42       0.0001
     70  CD2       35.1740    3.0260   -5.4220 C.3    42  LEU42       0.0001
     71  N         29.7760    2.7900   -4.2300 N.am   43  VAL43      -0.1966
     72  CA        28.8670    2.6370   -3.1160 C.3    43  VAL43       0.1715
     73  C         27.9380    1.4940   -3.4280 C.2    43  VAL43       0.2495
     74  O         27.0090    1.6740   -4.2170 O.2    43  VAL43      -0.2727
     75  CB        28.0710    3.9010   -2.7960 C.3    43  VAL43       0.0289
     76  CG1       27.2020    3.6520   -1.5810 C.3    43  VAL43       0.0023
     77  CG2       29.0310    5.0600   -2.4960 C.3    43  VAL43       0.0023
     78  N         28.2450    0.2930   -2.8720 N.am   44  PRO44      -0.2504
     79  CA        27.3920   -0.9010   -3.1690 C.3    44  PRO44       0.1487
     80  C         25.9190   -0.6470   -2.7660 C.2    44  PRO44       0.2276
     81  O         25.6690    0.0020   -1.7380 O.2    44  PRO44      -0.2865
     82  CB        28.0480   -2.0630   -2.3460 C.3    44  PRO44       0.0556
     83  CG        29.2920   -1.4960   -1.7010 C.2    44  PRO44      -0.0078
     84  CD        29.3740   -0.0060   -1.9500 C.2    44  PRO44       0.0634
     85  N         23.6620    1.3930   -4.0360 N.3    46  TYR46      -0.1241
     86  CA        23.0330    2.7170   -4.1900 C.3    46  TYR46       0.1605
     87  C         22.1150    2.7850   -5.3800 C.2    46  TYR46       0.2264
     88  O         20.9260    3.1390   -5.2820 O.2    46  TYR46      -0.2867
     89  CB        24.0500    3.8740   -4.2430 C.3    46  TYR46       0.0534
     90  CG        23.3680    5.1210   -3.7760 C.ar   46  TYR46      -0.0201
     91  CD1       22.8030    6.0070   -4.6760 C.ar   46  TYR46      -0.0009
     92  CD2       23.1490    5.3410   -2.4140 C.ar   46  TYR46      -0.0009
     93  CE1       22.1660    7.1800   -4.2420 C.ar   46  TYR46       0.0417
     94  CE2       22.4390    6.4730   -1.9680 C.ar   46  TYR46       0.0417
     95  CZ        21.9810    7.3960   -2.8790 C.ar   46  TYR46       0.1957
     96  OH        21.2690    8.4950   -2.4420 O.3    46  TYR46      -0.2866
     97  N         17.1330   14.8240   -1.6220 N.3    81  VAL81      -0.1245
     98  CA        18.4640   14.5710   -1.0980 C.3    81  VAL81       0.1561
     99  C         18.3620   13.9190    0.3090 C.2    81  VAL81       0.2260
    100  O         18.9920   12.8900    0.6010 O.2    81  VAL81      -0.2867
    101  CB        19.3350   15.8500   -1.0170 C.3    81  VAL81       0.0252
    102  CG1       20.6930   15.5380   -0.3840 C.3    81  VAL81       0.0019
    103  CG2       19.5470   16.4700   -2.4000 C.3    81  VAL81       0.0019
    104  N         18.9680   10.0820    1.7240 N.3    85  CYS85      -0.1235
    105  CA        19.9060    9.9160    2.8030 C.3    85  CYS85       0.1677
    106  C         19.3430    9.0560    3.9040 C.2    85  CYS85       0.2270
    107  O         19.9930    8.1200    4.3460 O.2    85  CYS85      -0.2867
    108  CB        20.4050   11.2870    3.3450 C.3    85  CYS85       0.0956
    109  SG        21.6950   11.1500    4.5730 S.3    85  CYS85      -0.0801
    110  N         18.9780    5.2520    2.9150 N.3    88  PHE88      -0.1227
    111  CA        20.2060    4.5440    2.7040 C.3    88  PHE88       0.1736
    112  C         21.1100    4.4680    3.9120 C.2    88  PHE88       0.2595
    113  O         21.9010    3.5350    3.9940 O.2    88  PHE88      -0.2718
    114  CB        20.9930    5.0990    1.5110 C.3    88  PHE88       0.0547
    115  CG        21.9190    4.0880    0.8800 C.ar   88  PHE88      -0.0202
    116  CD1       21.4320    3.0830    0.0730 C.ar   88  PHE88      -0.0042
    117  CD2       23.2830    4.1270    1.1170 C.ar   88  PHE88      -0.0042
    118  CE1       22.2740    2.1190   -0.4920 C.ar   88  PHE88      -0.0003
    119  CE2       24.1250    3.1790    0.5460 C.ar   88  PHE88      -0.0003
    120  CZ        23.6170    2.1720   -0.2380 C.ar   88  PHE88      -0.0000
    121  N         20.9750    5.3890    4.8650 N.am   89  ASN89      -0.1974
    122  CA        21.8880    5.5050    5.9720 C.3    89  ASN89       0.1688
    123  C         21.1720    5.4040    7.3210 C.2    89  ASN89       0.2292
    124  O         20.0640    5.9240    7.4850 O.2    89  ASN89      -0.2864
    125  CB        22.6070    6.8400    5.9450 C.3    89  ASN89       0.1181
    126  CG        23.4250    7.0360    4.6910 C.2    89  ASN89       0.2629
    127  OD1       24.5870    6.6370    4.6310 O.2    89  ASN89      -0.2716
    128  ND2       22.8330    7.6680    3.6910 N.am   89  ASN89      -0.0877
    129  N         26.8660   10.1970    8.2340 N.3    95  ILE95      -0.1245
    130  CA        26.1280   10.6790    7.1000 C.3    95  ILE95       0.1561
    131  C         24.6390   10.8830    7.4690 C.2    95  ILE95       0.2260
    132  O         24.0330   11.9000    7.0690 O.2    95  ILE95      -0.2867
    133  CB        26.2740    9.7550    5.8630 C.3    95  ILE95       0.0252
    134  CG1       27.7230    9.7500    5.3400 C.3    95  ILE95       0.0019
    135  CG2       25.3310   10.1810    4.7560 C.3    95  ILE95       0.0019
    136  CD1       27.9950    8.6610    4.3370 C.3    95  ILE95       0.0001
@<TRIPOS>BOND
     1    46    45    1
     2    46    47    1
     3    45    42    1
     4    47    41    1
     5    61    60    2
     6    62    60   am
     7    60    59    1
     8    51    50    2
     9    40    38    1
    10    42    41    1
    11    42    43    1
    12    57    56    1
    13    57    58    2
    14    41    35   am
    15    63    64    1
    16    56    59    1
    17    56    55    1
    18    44    43    2
    19    43    48   am
    20    50    55   am
    21    50    49    1
    22    39    38    1
    23    68    70    1
    24    68    69    1
    25    68    67    1
    26    38    37    1
    27    37    34    1
    28    35    34    1
    29    35    36    2
    30    87    88    2
    31    87    86    1
    32    34    33    1
    33    48    49    1
    34    64    67    1
    35    64    65    1
    36    91    93   ar
    37    91    90   ar
    38    49    52    1
    39    89    86    1
    40    89    90    1
    41    93    95   ar
    42    71    65   am
    43    71    72    1
    44    74    73    2
    45    86    85    1
    46    65    66    2
    47    52    53    1
    48    52    54    1
    49    90    92   ar
    50    73    72    1
    51    73    78   am
    52    79    78    1
    53    79    80    1
    54    79    82    1
    55    72    75    1
    56    95    96    1
    57    95    94   ar
    58    78    84    1
    59    75    77    1
    60    75    76    1
    61    80    81    2
    62    92    94   ar
    63   103   101    1
    64    25    24    2
    65    82    83    1
    66    84    83    2
    67    97    98    1
    68    24    23    1
    69    98   101    1
    70    98    99    1
    71   101   102    1
    72   118   120   ar
    73   118   116   ar
    74    23    26    1
    75    23    22    1
    76   120   119   ar
    77    18    17    2
    78   116   115   ar
    79    99   100    2
    80    26    27    1
    81    22    17   am
    82   119   117   ar
    83    17    16    1
    84   115   117   ar
    85   115   114    1
    86     4     3    2
    87    28    27   ar
    88    28    30   ar
    89   114   111    1
    90    27    29   ar
    91   104   105    1
    92    16    15    1
    93    16    19    1
    94     3    15   am
    95     3     2    1
    96    30    32   ar
    97   111   110    1
    98   111   112    1
    99    15    21    1
   100     2     1    1
   101     2     5    1
   102   105   108    1
   103   105   106    1
   104    29    31   ar
   105    19    20    1
   106   108   109    1
   107     5     6    1
   108   128   126   am
   109    32    31   ar
   110   106   107    2
   111   112   113    2
   112   112   121   am
   113    21    20    1
   114   136   134    1
   115    11    13   ar
   116    11     8   ar
   117   127   126    2
   118   126   125    1
   119   135   133    1
   120   121   122    1
   121     6     8   ar
   122     6     7   ar
   123    13    14   ar
   124     8    10   ar
   125   134   133    1
   126   133   130    1
   127   125   122    1
   128   122   123    1
   129     7     9   ar
   130    14    12   ar
   131    10     9   ar
   132    10    12   ar
   133   132   131    2
   134   130   131    1
   135   130   129    1
   136   123   124    2
