@<TRIPOS>MOLECULE
tmp/4iraA01.pdb
 206 199 0 0 0
SMALL
GASTEIGER

@<TRIPOS>ATOM
      1  N         -5.5320  -30.9060   -4.3290 N.3    19  VAL19      -0.1245
      2  CA        -6.8820  -31.4280   -4.7790 C.3    19  VAL19       0.1561
      3  C         -6.8900  -32.0630   -6.2010 C.2    19  VAL19       0.2260
      4  O         -6.4980  -31.3920   -7.1720 O.2    19  VAL19      -0.2867
      5  CB        -8.0300  -30.3180   -4.7010 C.3    19  VAL19       0.0252
      6  CG1       -9.4490  -30.9090   -5.0850 C.3    19  VAL19       0.0019
      7  CG2       -8.0980  -29.6140   -3.3140 C.3    19  VAL19       0.0019
      8  N        -17.5880  -42.9590  -14.9040 N.3    31  ARG31      -0.1245
      9  CA       -17.7190  -42.2930  -13.5340 C.3    31  ARG31       0.1563
     10  C        -16.5110  -41.3640  -13.1270 C.2    31  ARG31       0.2260
     11  O        -15.3590  -41.6570  -13.5130 O.2    31  ARG31      -0.2867
     12  CB       -17.9320  -43.3680  -12.4140 C.3    31  ARG31       0.0307
     13  CG       -17.8970  -42.8730  -10.8830 C.3    31  ARG31       0.0489
     14  CD       -18.4740  -43.9190   -9.8370 C.3    31  ARG31       0.2205
     15  NE       -18.2400  -43.5520   -8.4160 N.pl3  31  ARG31      -0.0865
     16  CZ       -19.0690  -42.8220   -7.6520 C.cat  31  ARG31       0.5346
     17  NH1      -20.2260  -42.3690   -8.1410 N.pl3  31  ARG31       0.1354
     18  NH2      -18.7450  -42.5270   -6.3840 N.pl3  31  ARG31       0.1354
     19  N        -14.9560  -38.7000   -9.3480 N.3    33  LEU33      -0.1231
     20  CA       -15.0520  -38.1560   -7.9270 C.3    33  LEU33       0.1693
     21  C        -13.8560  -37.2460   -7.4480 C.2    33  LEU33       0.2593
     22  O        -12.7330  -37.4050   -7.9380 O.2    33  LEU33      -0.2718
     23  CB       -15.3060  -39.2810   -6.8710 C.3    33  LEU33       0.0284
     24  CG       -14.1530  -40.2090   -6.3830 C.3    33  LEU33       0.0019
     25  CD1      -14.3280  -40.7520   -4.9630 C.3    33  LEU33       0.0001
     26  CD2      -13.9040  -41.3800   -7.3310 C.3    33  LEU33       0.0001
     27  N        -14.1130  -36.3100   -6.5050 N.am   34  THR34      -0.1939
     28  CA       -13.0910  -35.4190   -5.8310 C.3    34  THR34       0.2028
     29  C        -12.2610  -36.1880   -4.7220 C.2    34  THR34       0.2642
     30  O        -12.8620  -36.9110   -3.9070 O.2    34  THR34      -0.2714
     31  CB       -13.8020  -34.1270   -5.2100 C.3    34  THR34       0.1808
     32  OG1      -14.4960  -33.3680   -6.2260 O.3    34  THR34      -0.2208
     33  CG2      -12.8170  -33.1780   -4.4680 C.3    34  THR34       0.0379
     34  N        -10.9150  -36.0280   -4.6830 N.am   35  LEU35      -0.1963
     35  CA       -10.0180  -36.8840   -3.8340 C.3    35  LEU35       0.1728
     36  C         -8.6560  -36.2700   -3.3320 C.2    35  LEU35       0.2617
     37  O         -7.9790  -35.5440   -4.0920 O.2    35  LEU35      -0.2715
     38  CB        -9.7770  -38.2590   -4.5410 C.3    35  LEU35       0.0311
     39  CG        -8.9460  -39.4180   -3.9240 C.3    35  LEU35       0.0022
     40  CD1       -9.5150  -40.8080   -4.2850 C.3    35  LEU35       0.0001
     41  CD2       -7.4550  -39.3850   -4.3010 C.3    35  LEU35       0.0001
     42  N         -8.2570  -36.5820   -2.0800 N.am   36  THR36      -0.1937
     43  CA        -6.9240  -36.1920   -1.5280 C.3    36  THR36       0.2028
     44  C         -5.9390  -37.3310   -1.0880 C.2    36  THR36       0.2642
     45  O         -4.7150  -37.0910   -1.0190 O.2    36  THR36      -0.2714
     46  CB        -6.9770  -35.0740   -0.3840 C.3    36  THR36       0.1808
     47  OG1       -7.7770  -35.4980    0.7330 O.3    36  THR36      -0.2208
     48  CG2       -7.4820  -33.7140   -0.9010 C.3    36  THR36       0.0379
     49  N         -6.4400  -38.5440   -0.8080 N.am   37  ALA37      -0.1977
     50  CA        -5.5740  -39.6710   -0.3530 C.3    37  ALA37       0.1597
     51  C         -4.8730  -40.5000   -1.4680 C.2    37  ALA37       0.2287
     52  O         -5.3240  -41.6030   -1.8240 O.2    37  ALA37      -0.2864
     53  CB        -6.3510  -40.6010    0.6020 C.3    37  ALA37       0.0319
     54  N         -6.8330  -44.5830   -2.5530 N.3    51  CYS51      -0.1221
     55  CA        -7.7530  -45.1660   -1.5130 C.3    51  CYS51       0.1808
     56  C         -9.2810  -44.7520   -1.6510 C.2    51  CYS51       0.2601
     57  O         -9.6110  -43.5450   -1.5730 O.2    51  CYS51      -0.2717
     58  CB        -7.2460  -44.7970   -0.0870 C.3    51  CYS51       0.0970
     59  SG        -5.4330  -45.1260    0.3430 S.3    51  CYS51      -0.0800
     60  N        -10.1870  -45.7420   -1.7980 N.am   52  LEU52      -0.1965
     61  CA       -11.6500  -45.5390   -2.0960 C.3    52  LEU52       0.1728
     62  C        -12.6470  -46.0890   -1.0210 C.2    52  LEU52       0.2616
     63  O        -12.5730  -47.2750   -0.6700 O.2    52  LEU52      -0.2715
     64  CB       -12.0190  -46.1700   -3.4780 C.3    52  LEU52       0.0311
     65  CG       -11.3200  -45.8030   -4.8120 C.3    52  LEU52       0.0022
     66  CD1      -11.6910  -46.7410   -5.9680 C.3    52  LEU52       0.0001
     67  CD2      -11.5770  -44.3470   -5.2290 C.3    52  LEU52       0.0001
     68  N        -13.5950  -45.2550   -0.5490 N.am   53  GLN53      -0.1977
     69  CA       -14.6140  -45.6490    0.4850 C.3    53  GLN53       0.1601
     70  C        -15.5350  -46.8490    0.1100 C.2    53  GLN53       0.2287
     71  O        -16.1620  -46.8630   -0.9580 O.2    53  GLN53      -0.2864
     72  CB       -15.5060  -44.4460    0.9030 C.3    53  GLN53       0.0394
     73  CG       -14.8460  -43.2950    1.7610 C.3    53  GLN53       0.0908
     74  CD       -15.8360  -42.1290    2.0830 C.2    53  GLN53       0.2608
     75  OE1      -17.0540  -42.3400    2.2010 O.2    53  GLN53      -0.2717
     76  NE2      -15.3060  -40.8990    2.2090 N.am   53  GLN53      -0.0878
     77  N        -19.9470  -46.4100   -0.2980 N.3    56  HIS56      -0.1241
     78  CA       -20.5900  -46.1240   -1.6030 C.3    56  HIS56       0.1621
     79  C        -20.3810  -47.2530   -2.6470 C.2    56  HIS56       0.2264
     80  O        -19.2760  -47.3940   -3.2010 O.2    56  HIS56      -0.2867
     81  CB       -20.1030  -44.7720   -2.1560 C.3    56  HIS56       0.0745
     82  CG       -20.5110  -43.5930   -1.3200 C.ar   56  HIS56       0.0817
     83  ND1      -19.6190  -42.8840   -0.5390 N.ar   56  HIS56      -0.2268
     84  CD2      -21.7180  -43.0030   -1.1370 C.ar   56  HIS56       0.1154
     85  CE1      -20.2580  -41.9110    0.0900 C.ar   56  HIS56       0.1986
     86  NE2      -21.5330  -41.9610   -0.2580 N.ar   56  HIS56      -0.2212
     87  N        -21.2330  -47.7520   -5.8180 N.3    58  GLU58      -0.1231
     88  CA       -20.8060  -47.4000   -7.2010 C.3    58  GLU58       0.1699
     89  C        -19.2800  -47.3640   -7.4450 C.2    58  GLU58       0.2592
     90  O        -18.8450  -47.4340   -8.5980 O.2    58  GLU58      -0.2718
     91  CB       -21.4500  -46.1060   -7.7080 C.3    58  GLU58       0.0402
     92  CG       -21.7370  -45.1010   -6.6470 C.3    58  GLU58       0.1161
     93  CD       -23.1200  -45.2690   -6.0470 C.2    58  GLU58       0.3649
     94  OE1      -24.0850  -45.3420   -6.8210 O.co2  58  GLU58      -0.2457
     95  OE2      -23.2290  -45.3090   -4.8050 O.co2  58  GLU58      -0.2457
     96  N        -18.4770  -47.2500   -6.3810 N.am   59  ASN59      -0.1974
     97  CA       -17.0060  -47.3370   -6.5050 C.3    59  ASN59       0.1688
     98  C        -16.4590  -48.7240   -7.0060 C.2    59  ASN59       0.2292
     99  O        -15.2810  -48.8120   -7.4120 O.2    59  ASN59      -0.2864
    100  CB       -16.2900  -46.8630   -5.2040 C.3    59  ASN59       0.1181
    101  CG       -16.3970  -45.3290   -4.9510 C.2    59  ASN59       0.2629
    102  OD1      -16.4500  -44.5130   -5.8810 O.2    59  ASN59      -0.2716
    103  ND2      -16.3770  -44.9450   -3.6710 N.am   59  ASN59      -0.0877
    104  N        -18.2280  -32.4940   -8.1850 N.3    84  PHE84      -0.1227
    105  CA       -17.7600  -33.8980   -8.0940 C.3    84  PHE84       0.1736
    106  C        -17.6450  -34.4620   -6.6280 C.2    84  PHE84       0.2596
    107  O        -17.3320  -35.6470   -6.4430 O.2    84  PHE84      -0.2718
    108  CB       -16.4650  -34.1340   -8.9560 C.3    84  PHE84       0.0547
    109  CG       -16.7300  -34.4020  -10.4730 C.ar   84  PHE84      -0.0202
    110  CD1      -17.1310  -35.6630  -10.9210 C.ar   84  PHE84      -0.0042
    111  CD2      -16.5600  -33.3830  -11.4330 C.ar   84  PHE84      -0.0042
    112  CE1      -17.3880  -35.9240  -12.3070 C.ar   84  PHE84      -0.0003
    113  CE2      -16.8040  -33.6120  -12.8210 C.ar   84  PHE84      -0.0003
    114  CZ       -17.2130  -34.8910  -13.2660 C.ar   84  PHE84      -0.0000
    115  N        -17.9250  -33.6380   -5.6030 N.am   85  SER85      -0.1938
    116  CA       -18.1120  -34.1440   -4.2110 C.3    85  SER85       0.2055
    117  C        -19.5890  -34.4130   -3.7990 C.2    85  SER85       0.2643
    118  O        -19.8580  -34.9360   -2.6950 O.2    85  SER85      -0.2714
    119  CB       -17.4250  -33.2320   -3.1640 C.3    85  SER85       0.2130
    120  OG       -18.2340  -32.1060   -2.8160 O.3    85  SER85      -0.2179
    121  N        -20.5310  -34.0550   -4.6770 N.am   86  GLY86      -0.1954
    122  CA       -21.9650  -34.3150   -4.4480 C.3    86  GLY86       0.1869
    123  C        -22.7400  -33.2760   -3.6340 C.2    86  GLY86       0.2309
    124  O        -23.8560  -33.5520   -3.1810 O.2    86  GLY86      -0.2863
    125  N        -26.2480  -31.4690   -6.1150 N.3    89  GLY89      -0.1210
    126  CA       -27.1410  -32.2360   -7.0360 C.3    89  GLY89       0.1956
    127  C        -26.5160  -32.7700   -8.3320 C.2    89  GLY89       0.2612
    128  O        -25.3060  -33.0460   -8.3600 O.2    89  GLY89      -0.2717
    129  N        -27.3480  -32.9340   -9.3840 N.am   90  LEU90      -0.1965
    130  CA       -26.9480  -33.3230  -10.7840 C.3    90  LEU90       0.1728
    131  C        -26.6690  -34.8330  -11.0790 C.2    90  LEU90       0.2617
    132  O        -26.1290  -35.5310  -10.2210 O.2    90  LEU90      -0.2715
    133  CB       -25.7680  -32.4490  -11.2930 C.3    90  LEU90       0.0311
    134  CG       -25.9000  -30.9140  -11.2360 C.3    90  LEU90       0.0022
    135  CD1      -24.6140  -30.1790  -11.6380 C.3    90  LEU90       0.0001
    136  CD2      -27.0780  -30.4330  -12.0930 C.3    90  LEU90       0.0001
    137  N        -27.0320  -35.3190  -12.2840 N.am   91  THR91      -0.1937
    138  CA       -26.5850  -36.6580  -12.8020 C.3    91  THR91       0.2028
    139  C        -25.0880  -36.6430  -13.2120 C.2    91  THR91       0.2642
    140  O        -24.5380  -35.5530  -13.4260 O.2    91  THR91      -0.2714
    141  CB       -27.4190  -37.1690  -14.0510 C.3    91  THR91       0.1808
    142  OG1      -27.1430  -36.3600  -15.2130 O.3    91  THR91      -0.2208
    143  CG2      -28.9420  -37.1950  -13.7820 C.3    91  THR91       0.0379
    144  N        -24.4510  -37.8250  -13.3600 N.am   92  GLN92      -0.1976
    145  CA       -23.0250  -37.9260  -13.8210 C.3    92  GLN92       0.1601
    146  C        -22.7740  -37.2640  -15.2000 C.2    92  GLN92       0.2287
    147  O        -21.8150  -36.5000  -15.3550 O.2    92  GLN92      -0.2864
    148  CB       -22.4770  -39.3850  -13.8100 C.3    92  GLN92       0.0394
    149  CG       -22.2120  -40.0560  -12.3960 C.3    92  GLN92       0.0908
    150  CD       -20.8920  -39.6130  -11.6940 C.2    92  GLN92       0.2608
    151  OE1      -19.8470  -39.4530  -12.3270 O.2    92  GLN92      -0.2717
    152  NE2      -20.9510  -39.4440  -10.3720 N.am   92  GLN92      -0.0878
    153  N        -24.4310  -34.7890  -16.5080 N.3    94  GLU94      -0.1182
    154  CA       -24.5410  -33.3280  -16.1990 C.3    94  GLU94       0.1915
    155  C        -23.2940  -32.6980  -15.4800 C.2    94  GLU94       0.2637
    156  O        -22.9970  -31.5060  -15.6690 O.2    94  GLU94      -0.2714
    157  CB       -25.8400  -33.0230  -15.3920 C.2    94  GLU94       0.0085
    158  CG       -27.1690  -32.9710  -16.2240 C.2    94  GLU94       0.0835
    159  CD       -28.4880  -33.1260  -15.3900 C.2    94  GLU94       0.3877
    160  OE1      -28.4910  -32.9520  -14.1470 O.co2  94  GLU94      -0.2406
    161  OE2      -29.5480  -33.4300  -16.0040 O.co2  94  GLU94      -0.2406
    162  N        -22.5880  -33.4930  -14.6630 N.am   95  ARG95      -0.1931
    163  CA       -21.2960  -33.0930  -14.0360 C.3    95  ARG95       0.1814
    164  C        -20.1320  -32.9490  -15.0860 C.2    95  ARG95       0.2332
    165  O        -19.4480  -31.9210  -15.0980 O.2    95  ARG95      -0.2860
    166  CB       -20.9250  -34.0330  -12.8350 C.2    95  ARG95       0.0019
    167  CG       -21.9440  -34.0200  -11.6220 C.2    95  ARG95       0.0178
    168  CD       -21.7250  -35.1050  -10.4970 C.3    95  ARG95       0.2464
    169  NE       -22.9190  -35.2910   -9.6210 N.pl3  95  ARG95      -0.0815
    170  CZ       -22.9380  -35.9090   -8.4250 C.cat  95  ARG95       0.5349
    171  NH1      -21.8200  -36.4010   -7.8820 N.pl3  95  ARG95       0.1354
    172  NH2      -24.0830  -36.0150   -7.7300 N.pl3  95  ARG95       0.1354
    173  N        -11.7090  -49.0230    3.6810 N.3   131  HIS131     -0.1241
    174  CA       -11.3460  -48.6180    2.2810 C.3   131  HIS131      0.1621
    175  C        -10.7080  -49.7780    1.4420 C.2   131  HIS131      0.2264
    176  O        -10.1120  -50.6950    2.0240 O.2   131  HIS131     -0.2867
    177  CB       -10.3300  -47.4380    2.2910 C.3   131  HIS131      0.0745
    178  CG       -10.8770  -46.0910    2.7060 C.ar  131  HIS131      0.0817
    179  ND1      -11.4420  -45.8480    3.9440 N.ar  131  HIS131     -0.2268
    180  CD2      -10.8610  -44.8920    2.0640 C.ar  131  HIS131      0.1154
    181  CE1      -11.7800  -44.5690    4.0350 C.ar  131  HIS131      0.1986
    182  NE2      -11.4320  -43.9630    2.9100 N.ar  131  HIS131     -0.2212
    183  N         -6.4810  -27.8990    0.0080 N.3   152  TYR152     -0.1241
    184  CA        -7.4640  -28.0000    1.1500 C.3   152  TYR152      0.1605
    185  C         -6.7650  -28.0770    2.5460 C.2   152  TYR152      0.2264
    186  O         -5.9010  -28.9470    2.7380 O.2   152  TYR152     -0.2867
    187  CB        -8.4550  -29.1990    0.9620 C.3   152  TYR152      0.0534
    188  CG        -9.7950  -29.1140    1.7530 C.ar  152  TYR152     -0.0201
    189  CD1      -10.8500  -28.3040    1.3010 C.ar  152  TYR152     -0.0009
    190  CD2      -10.0080  -29.8610    2.9280 C.ar  152  TYR152     -0.0009
    191  CE1      -12.0800  -28.2170    1.9990 C.ar  152  TYR152      0.0417
    192  CE2      -11.2430  -29.7810    3.6460 C.ar  152  TYR152      0.0417
    193  CZ       -12.2670  -28.9540    3.1700 C.ar  152  TYR152      0.1957
    194  OH       -13.4790  -28.8430    3.8480 O.3   152  TYR152     -0.2866
    195  N        -11.0260  -24.1020    1.4200 N.3   157  TYR157     -0.1241
    196  CA       -10.1530  -24.0270    0.1950 C.3   157  TYR157      0.1605
    197  C         -9.1920  -22.7900    0.1390 C.2   157  TYR157      0.2264
    198  O         -9.5600  -21.7320    0.6460 O.2   157  TYR157     -0.2867
    199  CB       -11.0250  -24.0130   -1.0900 C.3   157  TYR157      0.0534
    200  CG       -11.7400  -25.3280   -1.4640 C.ar  157  TYR157     -0.0201
    201  CD1      -11.0990  -26.3040   -2.2450 C.ar  157  TYR157     -0.0009
    202  CD2      -13.0600  -25.5750   -1.0580 C.ar  157  TYR157     -0.0009
    203  CE1      -11.7460  -27.5180   -2.5960 C.ar  157  TYR157      0.0417
    204  CE2      -13.7240  -26.7800   -1.4040 C.ar  157  TYR157      0.0417
    205  CZ       -13.0580  -27.7410   -2.1740 C.ar  157  TYR157      0.1957
    206  OH       -13.6980  -28.9250   -2.5070 O.3   157  TYR157     -0.2866
@<TRIPOS>BOND
     1   153   154    1
     2   158   157    2
     3   158   159    1
     4   154   155    1
     5   154   157    1
     6   161   159   ar
     7   156   155    2
     8   155   162   am
     9   159   160   ar
    10   147   146    2
    11   142   141    1
    12   146   145    1
    13   165   164    2
    14   164   163    1
    15     8     9    1
    16   162   163    1
    17   141   143    1
    18   141   138    1
    19   163   166    1
    20   145   148    1
    21   145   144    1
    22   148   149    1
    23     9    10    1
    24     9    12    1
    25    11    10    2
    26   140   139    2
    27   144   139   am
    28   114   113   ar
    29   114   112   ar
    30   139   138    1
    31   166   167    2
    32   113   111   ar
    33   138   137    1
    34    12    13    1
    35   149   150    1
    36   151   150    2
    37   112   110   ar
    38   137   131   am
    39   136   134    1
    40   150   152   am
    41   135   134    1
    42   167   168    1
    43   111   109   ar
    44   133   134    1
    45   133   130    1
    46   131   130    1
    47   131   132    2
    48   110   109   ar
    49    13    14    1
    50   130   129    1
    51   168   169    1
    52   109   108    1
    53    14    15    1
    54   169   170    2
    55   129   127   am
    56    19    20    1
    57   108   105    1
    58    90    89    2
    59   170   171    1
    60   170   172    1
    61    15    16    2
    62   128   127    2
    63   127   126    1
    64   104   105    1
    65    17    16    1
    66   105   106    1
    67    22    21    2
    68    20    21    1
    69    20    23    1
    70    91    88    1
    71    91    92    1
    72    16    18    1
    73    21    27   am
    74    89    88    1
    75    89    96   am
    76    99    98    2
    77    26    24    1
    78    88    87    1
    79     4     3    2
    80   126   125    1
    81    98    97    1
    82    23    24    1
    83    94    93   ar
    84    92    93    1
    85   106   107    2
    86   106   115   am
    87    97    96    1
    88    97   100    1
    89    27    28    1
    90    24    25    1
    91    32    31    1
    92     3     2    1
    93    93    95   ar
    94    66    65    1
    95   102   101    2
    96    28    31    1
    97    28    29    1
    98   115   116    1
    99    67    65    1
   100    31    33    1
   101   100   101    1
   102     6     5    1
   103   101   103   am
   104    65    64    1
   105     2     5    1
   106     2     1    1
   107    29    34   am
   108    29    30    2
   109     5     7    1
   110    34    35    1
   111   121   122    1
   112   121   117   am
   113    38    39    1
   114    38    35    1
   115   122   123    1
   116    41    39    1
   117    40    39    1
   118   116   117    1
   119   116   119    1
   120    37    36    2
   121    35    36    1
   122   117   118    2
   123   123   124    2
   124    64    61    1
   125    36    42   am
   126    80    79    2
   127   119   120    1
   128    79    78    1
   129   203   201   ar
   130   203   205   ar
   131    54    55    1
   132   206   205    1
   133   201   200   ar
   134   205   204   ar
   135    81    78    1
   136    81    82    1
   137    61    60    1
   138    61    62    1
   139    42    43    1
   140    52    51    2
   141    60    56   am
   142    56    57    2
   143    56    55    1
   144    78    77    1
   145    43    44    1
   146    43    46    1
   147    55    58    1
   148    51    50    1
   149   200   199    1
   150   200   202   ar
   151   204   202   ar
   152    82    84   ar
   153    82    83   ar
   154    84    86   ar
   155   199   196    1
   156    44    45    2
   157    44    49   am
   158    62    63    2
   159    62    68   am
   160    71    70    2
   161    48    46    1
   162    49    50    1
   163    68    69    1
   164    83    85   ar
   165    46    47    1
   166    50    53    1
   167    86    85   ar
   168    58    59    1
   169   183   184    1
   170    70    69    1
   171   197   196    1
   172   197   198    2
   173   196   195    1
   174    69    72    1
   175    72    73    1
   176   187   184    1
   177   187   188    1
   178   184   185    1
   179   189   188   ar
   180   189   191   ar
   181   175   176    2
   182   175   174    1
   183   188   190   ar
   184    73    74    1
   185   191   193   ar
   186   180   178   ar
   187   180   182   ar
   188    74    75    2
   189    74    76   am
   190   174   177    1
   191   174   173    1
   192   177   178    1
   193   185   186    2
   194   178   179   ar
   195   182   181   ar
   196   190   192   ar
   197   193   192   ar
   198   193   194    1
   199   179   181   ar
