@<TRIPOS>MOLECULE
tmp/4iraA00.pdb
 118 111 0 0 0
SMALL
GASTEIGER

@<TRIPOS>ATOM
      1  N         -8.7980  -38.3590   16.2670 N.3     8  TYR8       -0.1227
      2  CA        -7.9230  -38.5470   15.0680 C.3     8  TYR8        0.1736
      3  C         -8.2270  -37.5260   13.9450 C.2     8  TYR8        0.2595
      4  O         -7.2890  -36.9140   13.3990 O.2     8  TYR8       -0.2718
      5  CB        -7.9590  -40.0210   14.5550 C.3     8  TYR8        0.0548
      6  CG        -7.1780  -40.3550   13.2500 C.ar    8  TYR8       -0.0200
      7  CD1       -5.7640  -40.4580   13.2380 C.ar    8  TYR8       -0.0009
      8  CD2       -7.8600  -40.6160   12.0400 C.ar    8  TYR8       -0.0009
      9  CE1       -5.0500  -40.7730   12.0410 C.ar    8  TYR8        0.0417
     10  CE2       -7.1520  -40.9350   10.8280 C.ar    8  TYR8        0.0417
     11  CZ        -5.7440  -41.0150   10.8440 C.ar    8  TYR8        0.1957
     12  OH        -5.0410  -41.3320    9.6720 O.3     8  TYR8       -0.2866
     13  N         -9.5190  -37.3280   13.6230 N.am    9  ARG9       -0.1980
     14  CA        -9.9520  -36.3400   12.5890 C.3     9  ARG9        0.1597
     15  C         -9.6500  -34.8500   12.9110 C.2     9  ARG9        0.2287
     16  O         -9.3440  -34.0730   11.9890 O.2     9  ARG9       -0.2864
     17  CB       -11.4480  -36.5190   12.1700 C.3     9  ARG9        0.0334
     18  CG       -11.8320  -37.8890   11.5500 C.3     9  ARG9        0.0492
     19  CD       -13.2800  -37.9370   10.9060 C.3     9  ARG9        0.2205
     20  NE       -14.3750  -37.6860   11.8600 N.pl3   9  ARG9       -0.0865
     21  CZ       -15.0000  -38.6290   12.5690 C.cat   9  ARG9        0.5346
     22  NH1      -14.6670  -39.9130   12.4390 N.pl3   9  ARG9        0.1354
     23  NH2      -15.9740  -38.2910   13.4170 N.pl3   9  ARG9        0.1354
     24  N         -5.8410  -34.3730   12.0880 N.3    12  MET12      -0.1230
     25  CA        -5.6660  -34.3740   10.6190 C.3    12  MET12       0.1702
     26  C         -6.1400  -33.0710    9.9160 C.2    12  MET12       0.2593
     27  O         -5.7520  -32.8170    8.7660 O.2    12  MET12      -0.2718
     28  CB        -6.3140  -35.6270    9.9840 C.3    12  MET12       0.0401
     29  CG        -5.4190  -36.9190    9.9790 C.3    12  MET12       0.0596
     30  SD        -4.0070  -36.8910    8.8090 S.3    12  MET12      -0.1393
     31  CE        -4.8280  -37.0800    7.2460 C.3    12  MET12       0.0692
     32  N         -6.9560  -32.2440   10.5950 N.am   13  SER13      -0.1952
     33  CA        -7.3290  -30.9060   10.0510 C.3    13  SER13       0.1924
     34  C         -6.1490  -29.9010    9.9870 C.2    13  SER13       0.2314
     35  O         -6.2540  -28.8540    9.3080 O.2    13  SER13      -0.2863
     36  CB        -8.5860  -30.3030   10.7350 C.3    13  SER13       0.2116
     37  OG        -8.3180  -29.7400   12.0260 O.3    13  SER13      -0.2180
     38  N         -8.2570  -36.5820   -2.0800 N.3    36  THR36      -0.1203
     39  CA        -6.9240  -36.1920   -1.5280 C.3    36  THR36       0.1994
     40  C         -5.9390  -37.3310   -1.0880 C.2    36  THR36       0.2617
     41  O         -4.7150  -37.0910   -1.0190 O.2    36  THR36      -0.2717
     42  CB        -6.9770  -35.0740   -0.3840 C.3    36  THR36       0.1784
     43  OG1       -7.7770  -35.4980    0.7330 O.3    36  THR36      -0.2211
     44  CG2       -7.4820  -33.7140   -0.9010 C.3    36  THR36       0.0376
     45  N         -6.4400  -38.5440   -0.8080 N.am   37  ALA37      -0.1979
     46  CA        -5.5740  -39.6710   -0.3530 C.3    37  ALA37       0.1597
     47  C         -4.8730  -40.5000   -1.4680 C.2    37  ALA37       0.2287
     48  O         -5.3240  -41.6030   -1.8240 O.2    37  ALA37      -0.2864
     49  CB        -6.3510  -40.6010    0.6020 C.3    37  ALA37       0.0319
     50  N         -6.8330  -44.5830   -2.5530 N.3    51  CYS51      -0.1235
     51  CA        -7.7530  -45.1660   -1.5130 C.3    51  CYS51       0.1677
     52  C         -9.2810  -44.7520   -1.6510 C.2    51  CYS51       0.2270
     53  O         -9.6110  -43.5450   -1.5730 O.2    51  CYS51      -0.2867
     54  CB        -7.2460  -44.7970   -0.0870 C.3    51  CYS51       0.0956
     55  SG        -5.4330  -45.1260    0.3430 S.3    51  CYS51      -0.0801
     56  N        -13.5950  -45.2550   -0.5490 N.3    53  GLN53      -0.1245
     57  CA       -14.6140  -45.6490    0.4850 C.3    53  GLN53       0.1566
     58  C        -15.5350  -46.8490    0.1100 C.2    53  GLN53       0.2260
     59  O        -16.1620  -46.8630   -0.9580 O.2    53  GLN53      -0.2867
     60  CB       -15.5060  -44.4460    0.9030 C.3    53  GLN53       0.0367
     61  CG       -14.8460  -43.2950    1.7610 C.3    53  GLN53       0.0905
     62  CD       -15.8360  -42.1290    2.0830 C.2    53  GLN53       0.2608
     63  OE1      -17.0540  -42.3400    2.2010 O.2    53  GLN53      -0.2717
     64  NE2      -15.3060  -40.8990    2.2090 N.am   53  GLN53      -0.0878
     65  N        -18.3850  -47.7280    1.7000 N.3    55  ILE55      -0.1245
     66  CA       -19.8190  -47.4070    1.9700 C.3    55  ILE55       0.1561
     67  C        -20.6330  -46.8960    0.7420 C.2    55  ILE55       0.2260
     68  O        -21.8780  -46.9770    0.7430 O.2    55  ILE55      -0.2867
     69  CB       -19.9950  -46.4800    3.2310 C.3    55  ILE55       0.0252
     70  CG1      -21.3480  -46.7360    3.9290 C.3    55  ILE55       0.0019
     71  CG2      -19.7620  -44.9950    2.8990 C.3    55  ILE55       0.0019
     72  CD1      -21.4540  -46.1220    5.3300 C.3    55  ILE55       0.0001
     73  N        -17.9250  -33.6380   -5.6030 N.3    85  SER85      -0.1217
     74  CA       -18.1120  -34.1440   -4.2110 C.3    85  SER85       0.1889
     75  C        -19.5890  -34.4130   -3.7990 C.2    85  SER85       0.2288
     76  O        -19.8580  -34.9360   -2.6950 O.2    85  SER85      -0.2866
     77  CB       -17.4250  -33.2320   -3.1640 C.3    85  SER85       0.2089
     78  OG       -18.2340  -32.1060   -2.8160 O.3    85  SER85      -0.2183
     79  N        -12.1360  -50.0250    6.3810 N.3   130  THR130     -0.1203
     80  CA       -13.1190  -49.1170    5.7500 C.3   130  THR130      0.1994
     81  C        -12.9090  -48.7850    4.2380 C.2   130  THR130      0.2617
     82  O        -13.8540  -48.2860    3.6010 O.2   130  THR130     -0.2717
     83  CB       -13.2450  -47.7410    6.5100 C.3   130  THR130      0.1784
     84  OG1      -11.9780  -47.0750    6.5120 O.3   130  THR130     -0.2211
     85  CG2      -13.7510  -47.8970    7.9680 C.3   130  THR130      0.0376
     86  N        -11.7090  -49.0230    3.6810 N.am  131  HIS131     -0.1975
     87  CA       -11.3460  -48.6180    2.2810 C.3   131  HIS131      0.1656
     88  C        -10.7080  -49.7780    1.4420 C.2   131  HIS131      0.2291
     89  O        -10.1120  -50.6950    2.0240 O.2   131  HIS131     -0.2864
     90  CB       -10.3300  -47.4380    2.2910 C.3   131  HIS131      0.0771
     91  CG       -10.8770  -46.0910    2.7060 C.ar  131  HIS131      0.0820
     92  ND1      -11.4420  -45.8480    3.9440 N.ar  131  HIS131     -0.2267
     93  CD2      -10.8610  -44.8920    2.0640 C.ar  131  HIS131      0.1154
     94  CE1      -11.7800  -44.5690    4.0350 C.ar  131  HIS131      0.1986
     95  NE2      -11.4320  -43.9630    2.9100 N.ar  131  HIS131     -0.2212
     96  N         -6.4810  -27.8990    0.0080 N.3   152  TYR152     -0.1241
     97  CA        -7.4640  -28.0000    1.1500 C.3   152  TYR152      0.1605
     98  C         -6.7650  -28.0770    2.5460 C.2   152  TYR152      0.2264
     99  O         -5.9010  -28.9470    2.7380 O.2   152  TYR152     -0.2867
    100  CB        -8.4550  -29.1990    0.9620 C.3   152  TYR152      0.0534
    101  CG        -9.7950  -29.1140    1.7530 C.ar  152  TYR152     -0.0201
    102  CD1      -10.8500  -28.3040    1.3010 C.ar  152  TYR152     -0.0009
    103  CD2      -10.0080  -29.8610    2.9280 C.ar  152  TYR152     -0.0009
    104  CE1      -12.0800  -28.2170    1.9990 C.ar  152  TYR152      0.0417
    105  CE2      -11.2430  -29.7810    3.6460 C.ar  152  TYR152      0.0417
    106  CZ       -12.2670  -28.9540    3.1700 C.ar  152  TYR152      0.1957
    107  OH       -13.4790  -28.8430    3.8480 O.3   152  TYR152     -0.2866
    108  N        -10.3700  -27.1500    7.1990 N.3   155  ARG155     -0.1245
    109  CA       -11.7950  -27.2420    6.7700 C.3   155  ARG155      0.1563
    110  C        -12.2970  -26.1550    5.7470 C.2   155  ARG155      0.2260
    111  O        -13.4830  -25.8070    5.7650 O.2   155  ARG155     -0.2867
    112  CB       -12.7500  -27.4000    8.0030 C.3   155  ARG155      0.0307
    113  CG       -12.5960  -28.7510    8.8230 C.3   155  ARG155      0.0489
    114  CD       -13.5740  -28.8920   10.0500 C.3   155  ARG155      0.2205
    115  NE       -13.5300  -30.2120   10.7290 N.pl3 155  ARG155     -0.0865
    116  CZ       -12.9300  -30.4710   11.9040 C.cat 155  ARG155      0.5346
    117  NH1      -12.2980  -29.5230   12.5820 N.pl3 155  ARG155      0.1354
    118  NH2      -12.9560  -31.6970   12.4210 N.pl3 155  ARG155      0.1354
@<TRIPOS>BOND
     1    73    74    1
     2    74    75    1
     3    74    77    1
     4    75    76    2
     5    77    78    1
     6    50    51    1
     7    38    39    1
     8    48    47    2
     9    52    53    2
    10    52    51    1
    11    39    40    1
    12    39    42    1
    13    51    54    1
    14    47    46    1
    15    40    41    2
    16    40    45   am
    17    59    58    2
    18    44    42    1
    19    45    46    1
    20    56    57    1
    21    42    43    1
    22    46    49    1
    23    54    55    1
    24    96    97    1
    25    58    57    1
    26    57    60    1
    27    67    68    2
    28    67    66    1
    29    60    61    1
    30   100    97    1
    31   100   101    1
    32    97    98    1
    33   102   101   ar
    34   102   104   ar
    35    88    89    2
    36    88    87    1
    37    65    66    1
    38   101   103   ar
    39    61    62    1
    40    66    69    1
    41   104   106   ar
    42    93    91   ar
    43    93    95   ar
    44    62    63    2
    45    62    64   am
    46    87    90    1
    47    87    86    1
    48    90    91    1
    49    98    99    2
    50    91    92   ar
    51    71    69    1
    52    95    94   ar
    53   103   105   ar
    54   106   105   ar
    55   106   107    1
    56    69    70    1
    57    82    81    2
    58    86    81   am
    59    70    72    1
    60    92    94   ar
    61    81    80    1
    62   110   111    2
    63   110   109    1
    64    80    79    1
    65    80    83    1
    66    83    84    1
    67    83    85    1
    68   109   108    1
    69   109   112    1
    70    31    30    1
    71   112   113    1
    72    27    26    2
    73    30    29    1
    74   113   114    1
    75    35    34    2
    76    12    11    1
    77    26    32   am
    78    26    25    1
    79    29    28    1
    80    28    25    1
    81    34    33    1
    82   114   115    1
    83    33    32    1
    84    33    36    1
    85    25    24    1
    86   115   116    2
    87    36    37    1
    88    10    11   ar
    89    10     8   ar
    90    11     9   ar
    91    19    18    1
    92    19    20    1
    93    18    17    1
    94    20    21    2
    95   116   118    1
    96   116   117    1
    97    16    15    2
    98     8     6   ar
    99     9     7   ar
   100    17    14    1
   101    22    21    1
   102    21    23    1
   103    14    15    1
   104    14    13    1
   105     7     6   ar
   106     6     5    1
   107     4     3    2
   108    13     3   am
   109     3     2    1
   110     5     2    1
   111     2     1    1
