@<TRIPOS>MOLECULE
tmp/4irdF00.pdb
 154 148 0 0 0
SMALL
GASTEIGER

@<TRIPOS>ATOM
      1  N        -29.5100   -5.0060   -0.2690 N.3     9  ASP9       -0.1225
      2  CA       -29.5000   -4.3790   -1.5930 C.3     9  ASP9        0.1805
      3  C        -28.5720   -3.1700   -1.6140 C.2     9  ASP9        0.2598
      4  O        -28.8310   -2.1670   -0.9540 O.2     9  ASP9       -0.2718
      5  CB       -30.9540   -4.0250   -2.0620 C.3     9  ASP9        0.1424
      6  CG       -31.0130   -3.0890   -3.3300 C.2     9  ASP9        0.3668
      7  OD1      -30.1470   -3.1440   -4.2330 O.co2   9  ASP9       -0.2456
      8  OD2      -31.9630   -2.2810   -3.4210 O.co2   9  ASP9       -0.2456
      9  N        -27.5090   -3.2660   -2.4020 N.am   10  MET10      -0.1965
     10  CA       -26.6390   -2.1410   -2.6380 C.3    10  MET10       0.1736
     11  C        -27.3960   -0.9470   -3.1720 C.2    10  MET10       0.2616
     12  O        -28.2870   -1.0760   -4.0450 O.2    10  MET10      -0.2715
     13  CB       -25.5760   -2.5240   -3.6410 C.3    10  MET10       0.0427
     14  CG       -24.8290   -3.7850   -3.2650 C.3    10  MET10       0.0599
     15  SD       -24.1310   -3.5430   -1.6320 S.3    10  MET10      -0.1393
     16  CE       -23.1380   -2.0710   -1.8800 C.3    10  MET10       0.0692
     17  N        -27.0230    0.2160   -2.6370 N.am   11  ASP11      -0.1957
     18  CA       -27.5990    1.4840   -3.0530 C.3    11  ASP11       0.1840
     19  C        -26.8590    1.9890   -4.2740 C.2    11  ASP11       0.2622
     20  O        -25.6230    2.0420   -4.2670 O.2    11  ASP11      -0.2715
     21  CB       -27.4770    2.5060   -1.9370 C.3    11  ASP11       0.1450
     22  CG       -28.0120    1.9910   -0.6050 C.2    11  ASP11       0.3671
     23  OD1      -27.2890    2.1040    0.4060 O.co2  11  ASP11      -0.2456
     24  OD2      -29.1470    1.4630   -0.5730 O.co2  11  ASP11      -0.2456
     25  N        -27.6130    2.3300   -5.3230 N.am   12  CYS12      -0.1954
     26  CA       -27.0810    2.9450   -6.5410 C.3    12  CYS12       0.1843
     27  C        -25.8580    2.2530   -7.0480 C.2    12  CYS12       0.2625
     28  O        -24.8390    2.8900   -7.2740 O.2    12  CYS12      -0.2714
     29  CB       -26.7350    4.3980   -6.2870 C.3    12  CYS12       0.0997
     30  SG       -28.2490    5.3400   -6.2600 S.3    12  CYS12      -0.0797
     31  N        -25.9570    0.9470   -7.2320 N.am   13  PHE13      -0.1960
     32  CA       -24.7550    0.1360   -7.3690 C.3    13  PHE13       0.1771
     33  C        -23.6560    0.6540   -8.3200 C.2    13  PHE13       0.2619
     34  O        -22.5230    0.8410   -7.8930 O.2    13  PHE13      -0.2715
     35  CB       -25.1140   -1.3200   -7.6330 C.3    13  PHE13       0.0574
     36  CG       -23.9780   -2.2600   -7.4130 C.ar   13  PHE13      -0.0200
     37  CD1      -23.1430   -2.1170   -6.3070 C.ar   13  PHE13      -0.0042
     38  CD2      -23.7420   -3.2930   -8.3120 C.ar   13  PHE13      -0.0042
     39  CE1      -22.0920   -2.9850   -6.1110 C.ar   13  PHE13      -0.0003
     40  CE2      -22.6970   -4.1720   -8.1170 C.ar   13  PHE13      -0.0003
     41  CZ       -21.8740   -4.0170   -7.0120 C.ar   13  PHE13      -0.0000
     42  N        -23.9650    0.9140   -9.5860 N.am   14  PHE14      -0.1974
     43  CA       -22.8790    1.2930  -10.4910 C.3    14  PHE14       0.1639
     44  C        -22.4130    2.7040  -10.1710 C.2    14  PHE14       0.2290
     45  O        -21.2190    2.9550  -10.1600 O.2    14  PHE14      -0.2864
     46  CB       -23.2490    1.2150  -11.9800 C.3    14  PHE14       0.0560
     47  CG       -23.5400   -0.1670  -12.5100 C.ar   14  PHE14      -0.0200
     48  CD1      -23.6030   -1.2920  -11.6790 C.ar   14  PHE14      -0.0042
     49  CD2      -23.8190   -0.3300  -13.8850 C.ar   14  PHE14      -0.0042
     50  CE1      -23.9130   -2.5480  -12.2070 C.ar   14  PHE14      -0.0003
     51  CE2      -24.1210   -1.5840  -14.4140 C.ar   14  PHE14      -0.0003
     52  CZ       -24.1690   -2.6950  -13.5740 C.ar   14  PHE14      -0.0000
     53  N        -29.5620    3.0910  -23.4500 N.3    41  VAL41      -0.1231
     54  CA       -30.4360    3.5020  -22.3260 C.3    41  VAL41       0.1692
     55  C        -29.6410    3.7360  -21.0150 C.2    41  VAL41       0.2592
     56  O        -28.4440    3.4130  -20.9390 O.2    41  VAL41      -0.2718
     57  CB       -31.5580    2.4630  -22.0740 C.3    41  VAL41       0.0266
     58  CG1      -32.3240    2.1590  -23.3540 C.3    41  VAL41       0.0020
     59  CG2      -30.9940    1.1940  -21.4660 C.3    41  VAL41       0.0020
     60  N        -30.2900    4.2830  -19.9840 N.am   42  ILE42      -0.1966
     61  CA       -29.6480    4.3690  -18.6610 C.3    42  ILE42       0.1727
     62  C        -29.7070    3.0780  -17.8440 C.2    42  ILE42       0.2617
     63  O        -30.7910    2.5560  -17.5280 O.2    42  ILE42      -0.2715
     64  CB       -30.2270    5.5130  -17.8390 C.3    42  ILE42       0.0290
     65  CG1      -30.0170    6.8310  -18.5940 C.3    42  ILE42       0.0022
     66  CG2      -29.5810    5.5550  -16.4600 C.3    42  ILE42       0.0023
     67  CD1      -28.5960    7.0800  -19.1010 C.3    42  ILE42       0.0001
     68  N        -28.5330    2.5750  -17.4990 N.am   43  SER43      -0.1936
     69  CA       -28.3910    1.4420  -16.5790 C.3    43  SER43       0.2055
     70  C        -28.8600    1.8620  -15.1960 C.2    43  SER43       0.2643
     71  O        -29.7410    1.2320  -14.6080 O.2    43  SER43      -0.2714
     72  CB       -26.9190    1.0290  -16.4470 C.3    43  SER43       0.2130
     73  OG       -26.5800   -0.0780  -17.2490 O.3    43  SER43      -0.2179
     74  N        -28.2300    2.9240  -14.6460 N.am   44  THR44      -0.1950
     75  CA       -28.5450    3.4230  -13.3030 C.3    44  THR44       0.1897
     76  C        -28.1870    4.8940  -13.2570 C.2    44  THR44       0.2313
     77  O        -27.4020    5.3780  -14.0870 O.2    44  THR44      -0.2863
     78  CB       -27.7700    2.6630  -12.1980 C.3    44  THR44       0.1794
     79  OG1      -28.4180    2.8300  -10.9300 O.3    44  THR44      -0.2208
     80  CG2      -26.3600    3.1560  -12.0860 C.3    44  THR44       0.0378
     81  N        -28.2140    9.6510   -7.0250 N.3    47  TYR47      -0.1241
     82  CA       -29.2990   10.4200   -6.4170 C.3    47  TYR47       0.1605
     83  C        -29.5170   11.8280   -7.0000 C.2    47  TYR47       0.2264
     84  O        -30.6600   12.1910   -7.3200 O.2    47  TYR47      -0.2867
     85  CB       -29.2230   10.3700   -4.8650 C.3    47  TYR47       0.0534
     86  CG       -29.9710    9.1500   -4.3550 C.ar   47  TYR47      -0.0201
     87  CD1      -29.2930    7.9730   -4.0390 C.ar   47  TYR47      -0.0009
     88  CD2      -31.3840    9.1480   -4.2880 C.ar   47  TYR47      -0.0009
     89  CE1      -29.9820    6.8390   -3.6220 C.ar   47  TYR47       0.0417
     90  CE2      -32.0850    8.0150   -3.8830 C.ar   47  TYR47       0.0417
     91  CZ       -31.3840    6.8590   -3.5470 C.ar   47  TYR47       0.1957
     92  OH       -32.0820    5.7290   -3.1370 O.3    47  TYR47      -0.2866
     93  N        -31.3820   11.2830  -10.2480 N.3    50  ARG50      -0.1245
     94  CA       -32.7300   10.8070   -9.9980 C.3    50  ARG50       0.1563
     95  C        -33.6990   11.9300   -9.6580 C.2    50  ARG50       0.2260
     96  O        -34.8500   11.8770  -10.0710 O.2    50  ARG50      -0.2867
     97  CB       -32.7480    9.7320   -8.9300 C.3    50  ARG50       0.0307
     98  CG       -31.8710    8.5400   -9.2310 C.3    50  ARG50       0.0489
     99  CD       -32.2810    7.3880   -8.3380 C.3    50  ARG50       0.2205
    100  NE       -31.3030    6.3000   -8.2660 N.pl3  50  ARG50      -0.0865
    101  CZ       -31.5440    5.1330   -7.6650 C.cat  50  ARG50       0.5346
    102  NH1      -32.7350    4.9010   -7.1090 N.pl3  50  ARG50       0.1354
    103  NH2      -30.6080    4.1850   -7.6280 N.pl3  50  ARG50       0.1354
    104  N        -33.4690    4.1630  -14.4790 N.3    56  SER56      -0.1202
    105  CA       -33.0810    2.9690  -15.1940 C.3    56  SER56       0.2020
    106  C        -34.0460    2.6240  -16.3030 C.2    56  SER56       0.2618
    107  O        -35.2680    2.8830  -16.1940 O.2    56  SER56      -0.2717
    108  CB       -33.0180    1.8290  -14.2260 C.3    56  SER56       0.2103
    109  OG       -31.7380    1.8840  -13.6690 O.3    56  SER56      -0.2182
    110  N        -33.5010    2.0430  -17.3730 N.am   57  ALA57      -0.1979
    111  CA       -34.3000    1.6410  -18.5510 C.3    57  ALA57       0.1597
    112  C        -34.7240    2.8030  -19.4580 C.2    57  ALA57       0.2287
    113  O        -35.2600    2.5890  -20.5410 O.2    57  ALA57      -0.2864
    114  CB       -35.4910    0.7720  -18.1630 C.3    57  ALA57       0.0319
    115  N        -28.5040  -11.1670   -8.1530 N.3   102  SER102     -0.1217
    116  CA       -27.9240  -10.1810   -9.0390 C.3   102  SER102      0.1889
    117  C        -26.5540   -9.9230   -8.4870 C.2   102  SER102      0.2288
    118  O        -26.1680  -10.5330   -7.4840 O.2   102  SER102     -0.2866
    119  CB       -28.7420   -8.8850   -9.0000 C.3   102  SER102      0.2089
    120  OG       -28.1620   -7.8960   -8.1500 O.3   102  SER102     -0.2183
    121  N        -25.6920   -7.2140   -7.0150 N.3   104  ASP104     -0.1225
    122  CA       -25.9090   -6.3270   -5.8280 C.3   104  ASP104      0.1805
    123  C        -27.0670   -6.7030   -4.8480 C.2   104  ASP104      0.2597
    124  O        -27.5430   -5.8800   -4.0790 O.2   104  ASP104     -0.2718
    125  CB       -26.0520   -4.8560   -6.3020 C.3   104  ASP104      0.1424
    126  CG       -27.5260   -4.3900   -6.4550 C.2   104  ASP104      0.3668
    127  OD1      -27.7970   -3.1880   -6.1920 O.co2 104  ASP104     -0.2456
    128  OD2      -28.4200   -5.2020   -6.8270 O.co2 104  ASP104     -0.2456
    129  N        -27.5290   -7.9370   -4.9030 N.am  105  GLU105     -0.1979
    130  CA       -28.7100   -8.3240   -4.1730 C.3   105  GLU105      0.1602
    131  C        -28.5420   -9.7490   -3.7220 C.2   105  GLU105      0.2287
    132  O        -28.1030  -10.6020   -4.5200 O.2   105  GLU105     -0.2864
    133  CB       -29.9350   -8.2730   -5.0760 C.3   105  GLU105      0.0415
    134  CG       -30.8520   -7.0910   -4.8510 C.3   105  GLU105      0.1163
    135  CD       -31.9370   -6.9840   -5.9190 C.2   105  GLU105      0.3649
    136  OE1      -32.3590   -8.0420   -6.4420 O.co2 105  GLU105     -0.2457
    137  OE2      -32.3680   -5.8390   -6.2350 O.co2 105  GLU105     -0.2457
    138  N        -36.1980   -1.8250    0.5160 N.3   155  ASP155     -0.1239
    139  CA       -36.3740   -0.5620   -0.2100 C.3   155  ASP155      0.1674
    140  C        -36.8140    0.5960    0.7020 C.2   155  ASP155      0.2266
    141  O        -36.4790    1.7550    0.4470 O.2   155  ASP155     -0.2867
    142  CB       -37.3890   -0.7200   -1.3630 C.3   155  ASP155      0.1410
    143  CG       -36.7210   -0.7710   -2.7690 C.2   155  ASP155      0.3668
    144  OD1      -36.0420    0.1960   -3.2010 O.co2 155  ASP155     -0.2456
    145  OD2      -36.9070   -1.7890   -3.4710 O.co2 155  ASP155     -0.2456
    146  N        -34.0900    2.9840    1.9080 N.3   158  LYS158     -0.1245
    147  CA       -32.9950    3.2750    0.9570 C.3   158  LYS158      0.1561
    148  C        -32.7840    4.7700    0.8920 C.2   158  LYS158      0.2260
    149  O        -33.7410    5.5210    0.8330 O.2   158  LYS158     -0.2867
    150  CB       -33.3410    2.8060   -0.4520 C.3   158  LYS158      0.0271
    151  CG       -33.1680    1.3250   -0.7040 C.3   158  LYS158      0.0035
    152  CD       -33.0570    1.0490   -2.2050 C.3   158  LYS158      0.0206
    153  CE       -31.6170    1.0400   -2.6510 C.3   158  LYS158      0.1093
    154  NZ       -30.8590   -0.1650   -2.2120 N.3   158  LYS158     -0.1314
@<TRIPOS>BOND
     1    53    54    1
     2    58    57    1
     3    54    57    1
     4    54    55    1
     5    57    59    1
     6    55    56    2
     7    55    60   am
     8   113   112    2
     9    60    61    1
    10   112   111    1
    11    67    65    1
    12    61    62    1
    13    61    64    1
    14    65    64    1
    15   111   114    1
    16   111   110    1
    17    62    63    2
    18    62    68   am
    19    64    66    1
    20    68    69    1
    21   110   106   am
    22    73    72    1
    23    69    72    1
    24    69    70    1
    25   106   107    2
    26   106   105    1
    27    70    74   am
    28    70    71    2
    29   105   104    1
    30   105   108    1
    31    74    75    1
    32    51    49   ar
    33    51    52   ar
    34   108   109    1
    35    77    76    2
    36    49    47   ar
    37    52    50   ar
    38    75    76    1
    39    75    78    1
    40    47    46    1
    41    47    48   ar
    42    50    48   ar
    43    78    80    1
    44    78    79    1
    45    46    43    1
    46    43    44    1
    47    43    42    1
    48    93    94    1
    49    44    45    2
    50    96    95    2
    51    94    95    1
    52    94    97    1
    53    42    33   am
    54    98    97    1
    55    98    99    1
    56   116   119    1
    57   116   117    1
    58   116   115    1
    59   119   120    1
    60   117   118    2
    61    99   100    1
    62    33    34    2
    63    33    32    1
    64    38    40   ar
    65    38    36   ar
    66   100   101    2
    67    40    41   ar
    68   101   103    1
    69   101   102    1
    70    35    36    1
    71    35    32    1
    72    36    37   ar
    73    32    31    1
    74    84    83    2
    75    28    27    2
    76    31    27   am
    77    27    26    1
    78    81    82    1
    79   121   122    1
    80    41    39   ar
    81    83    82    1
    82   128   126   ar
    83    26    29    1
    84    26    25    1
    85   126   125    1
    86   126   127   ar
    87   136   135   ar
    88    82    85    1
    89    37    39   ar
    90   125   122    1
    91    29    30    1
    92   137   135   ar
    93   135   134    1
    94   122   123    1
    95    25    19   am
    96   133   134    1
    97   133   130    1
    98   129   123   am
    99   129   130    1
   100    85    86    1
   101   123   124    2
   102   132   131    2
   103    86    88   ar
   104    86    87   ar
   105    88    90   ar
   106    19    20    2
   107    19    18    1
   108     7     6   ar
   109   130   131    1
   110    12    11    2
   111    87    89   ar
   112    90    91   ar
   113    13    14    1
   114    13    10    1
   115    89    91   ar
   116    91    92    1
   117   145   143   ar
   118     8     6   ar
   119     6     5    1
   120    14    15    1
   121   144   143   ar
   122    11    10    1
   123    11    17   am
   124    18    17    1
   125    18    21    1
   126   143   142    1
   127   153   154    1
   128   153   152    1
   129    10     9    1
   130     9     3   am
   131   152   151    1
   132     5     2    1
   133    21    22    1
   134    16    15    1
   135     3     2    1
   136     3     4    2
   137     2     1    1
   138   142   139    1
   139   151   150    1
   140    22    24   ar
   141    22    23   ar
   142   150   147    1
   143   139   138    1
   144   139   140    1
   145   141   140    2
   146   149   148    2
   147   148   147    1
   148   147   146    1
