@<TRIPOS>MOLECULE
tmp/4ireB01.pdb
 85 80 0 0 0
SMALL
GASTEIGER

@<TRIPOS>ATOM
      1  N         28.6900  -25.5170   45.3250 N.3   114  ARG114     -0.1231
      2  CA        28.4960  -25.3370   46.7580 C.3   114  ARG114      0.1694
      3  C         28.6950  -26.6060   47.6050 C.2   114  ARG114      0.2591
      4  O         29.3390  -26.5520   48.6440 O.2   114  ARG114     -0.2718
      5  CB        27.1190  -24.7280   47.0100 C.3   114  ARG114      0.0321
      6  CG        27.0520  -23.2360   46.7200 C.3   114  ARG114      0.0489
      7  CD        25.6120  -22.7300   46.6690 C.3   114  ARG114      0.2205
      8  NE        25.2040  -22.3150   45.3300 N.pl3 114  ARG114     -0.0865
      9  CZ        25.2590  -21.0610   44.8840 C.cat 114  ARG114      0.5346
     10  NH1       25.6960  -20.0920   45.6770 N.pl3 114  ARG114      0.1354
     11  NH2       24.8670  -20.7700   43.6460 N.pl3 114  ARG114      0.1354
     12  N         28.1420  -27.7320   47.1770 N.am  115  ARG115     -0.1980
     13  CA        28.2730  -28.9860   47.9220 C.3   115  ARG115      0.1597
     14  C         29.4370  -29.8840   47.4830 C.2   115  ARG115      0.2287
     15  O         29.5130  -31.0470   47.8740 O.2   115  ARG115     -0.2864
     16  CB        26.9580  -29.7720   47.9580 C.3   115  ARG115      0.0334
     17  CG        25.8490  -29.0060   48.6290 C.3   115  ARG115      0.0492
     18  CD        24.6350  -29.8670   48.8560 C.3   115  ARG115      0.2205
     19  NE        23.5130  -29.0390   49.2760 N.pl3 115  ARG115     -0.0865
     20  CZ        22.3200  -29.5080   49.6150 C.cat 115  ARG115      0.5346
     21  NH1       22.0800  -30.8100   49.5810 N.pl3 115  ARG115      0.1354
     22  NH2       21.3650  -28.6680   49.9790 N.pl3 115  ARG115      0.1354
     23  N         30.8680  -19.5280   48.0360 N.3   249  MET249     -0.1245
     24  CA        31.7950  -20.3220   48.8380 C.3   249  MET249      0.1570
     25  C         31.4680  -21.8110   48.7710 C.2   249  MET249      0.2261
     26  O         30.3580  -22.2230   49.1060 O.2   249  MET249     -0.2867
     27  CB        31.7630  -19.8550   50.2940 C.3   249  MET249      0.0387
     28  CG        32.9190  -20.3680   51.1680 C.3   249  MET249      0.0595
     29  SD        34.2780  -19.1840   51.2620 S.3   249  MET249     -0.1393
     30  CE        35.6080  -20.2600   51.8150 C.3   249  MET249      0.0692
     31  N         35.3370  -24.0540   52.1740 N.3   254  ALA254     -0.1245
     32  CA        35.0950  -23.6410   53.5480 C.3   254  ALA254      0.1562
     33  C         35.9890  -24.4050   54.5140 C.2   254  ALA254      0.2260
     34  O         36.7990  -23.8030   55.2320 O.2   254  ALA254     -0.2867
     35  CB        33.6400  -23.8660   53.9000 C.3   254  ALA254      0.0290
     36  N         39.4650  -23.5900   54.2600 N.3   257  PHE257     -0.1227
     37  CA        39.7510  -22.2820   54.8220 C.3   257  PHE257      0.1736
     38  C         39.6900  -22.2890   56.3320 C.2   257  PHE257      0.2595
     39  O         40.5310  -21.6720   56.9960 O.2   257  PHE257     -0.2718
     40  CB        38.7580  -21.2470   54.3400 C.3   257  PHE257      0.0547
     41  CG        38.9930  -19.9000   54.9270 C.ar  257  PHE257     -0.0202
     42  CD1       40.1190  -19.1750   54.5760 C.ar  257  PHE257     -0.0042
     43  CD2       38.1180  -19.3740   55.8670 C.ar  257  PHE257     -0.0042
     44  CE1       40.3460  -17.9220   55.1220 C.ar  257  PHE257     -0.0003
     45  CE2       38.3440  -18.1310   56.4260 C.ar  257  PHE257     -0.0003
     46  CZ        39.4560  -17.4020   56.0530 C.ar  257  PHE257     -0.0000
     47  N         38.6890  -22.9870   56.8670 N.am  258  MET258     -0.1979
     48  CA        38.5260  -23.1220   58.3120 C.3   258  MET258      0.1605
     49  C         39.7960  -23.7130   58.9200 C.2   258  MET258      0.2287
     50  O         40.3680  -23.1700   59.8710 O.2   258  MET258     -0.2864
     51  CB        37.3400  -24.0220   58.6210 C.3   258  MET258      0.0413
     52  CG        36.9630  -24.0440   60.0720 C.3   258  MET258      0.0598
     53  SD        35.8780  -25.4240   60.4510 S.3   258  MET258     -0.1393
     54  CE        37.0150  -26.7930   60.2420 C.3   258  MET258      0.0692
     55  N         29.2900  -26.2960   59.8780 N.3   307  LEU307     -0.1245
     56  CA        29.5260  -26.1220   58.4460 C.3   307  LEU307      0.1561
     57  C         28.6670  -27.0830   57.6430 C.2   307  LEU307      0.2260
     58  O         27.9200  -26.6680   56.7610 O.2   307  LEU307     -0.2867
     59  CB        30.9930  -26.3370   58.0820 C.3   307  LEU307      0.0270
     60  CG        31.8860  -25.1020   57.9770 C.3   307  LEU307      0.0019
     61  CD1       33.1610  -25.4340   57.1940 C.3   307  LEU307      0.0001
     62  CD2       31.1300  -23.9500   57.3450 C.3   307  LEU307      0.0001
     63  N         25.1490  -25.9260   57.6450 N.3   310  LEU310     -0.1231
     64  CA        24.8850  -24.7550   56.8050 C.3   310  LEU310      0.1693
     65  C         24.8350  -25.1390   55.3470 C.2   310  LEU310      0.2592
     66  O         24.0150  -24.6190   54.5950 O.2   310  LEU310     -0.2718
     67  CB        25.9600  -23.6800   56.9420 C.3   310  LEU310      0.0284
     68  CG        26.1290  -22.8100   58.1750 C.3   310  LEU310      0.0019
     69  CD1       27.3800  -21.9580   58.0110 C.3   310  LEU310      0.0001
     70  CD2       24.9000  -21.9400   58.3320 C.3   310  LEU310      0.0001
     71  N         25.7160  -26.0440   54.9350 N.am  311  PHE311     -0.1976
     72  CA        25.7560  -26.4030   53.5310 C.3   311  PHE311      0.1639
     73  C         24.5950  -27.3070   53.1400 C.2   311  PHE311      0.2290
     74  O         23.9110  -27.0280   52.1570 O.2   311  PHE311     -0.2864
     75  CB        27.1090  -26.9940   53.1490 C.3   311  PHE311      0.0560
     76  CG        28.1440  -25.9510   52.8530 C.ar  311  PHE311     -0.0200
     77  CD1       28.2950  -25.4540   51.5750 C.ar  311  PHE311     -0.0042
     78  CD2       28.9450  -25.4470   53.8540 C.ar  311  PHE311     -0.0042
     79  CE1       29.2370  -24.4880   51.2980 C.ar  311  PHE311     -0.0003
     80  CE2       29.8890  -24.4760   53.5810 C.ar  311  PHE311     -0.0003
     81  CZ        30.0310  -23.9960   52.3060 C.ar  311  PHE311     -0.0000
     82  N         21.0070  -28.5150   54.1160 N.3   313  GLY313     -0.1225
     83  CA        20.9290  -27.8870   52.8120 C.3   313  GLY313      0.1811
     84  C         20.3690  -26.4770   52.8470 C.2   313  GLY313      0.2280
     85  O         21.0520  -25.5420   53.2720 O.2   313  GLY313     -0.2866
@<TRIPOS>BOND
     1    11     9    1
     2     9     8    2
     3     9    10    1
     4     1     2    1
     5     8     7    1
     6     7     6    1
     7     6     5    1
     8     2     5    1
     9     2     3    1
    10    12     3   am
    11    12    13    1
    12    14    15    2
    13    14    13    1
    14     3     4    2
    15    13    16    1
    16    16    17    1
    17    23    24    1
    18    17    18    1
    19    25    24    1
    20    25    26    2
    21    24    27    1
    22    18    19    1
    23    19    20    2
    24    21    20    1
    25    20    22    1
    26    27    28    1
    27    28    29    1
    28    29    30    1
    29    79    77   ar
    30    79    81   ar
    31    77    76   ar
    32    74    73    2
    33    31    32    1
    34    81    80   ar
    35    83    84    1
    36    83    82    1
    37    84    85    2
    38    76    75    1
    39    76    78   ar
    40    73    72    1
    41    75    72    1
    42    72    71    1
    43    32    35    1
    44    32    33    1
    45    80    78   ar
    46    36    37    1
    47    40    37    1
    48    40    41    1
    49    33    34    2
    50    42    41   ar
    51    42    44   ar
    52    66    65    2
    53    37    38    1
    54    41    43   ar
    55    71    65   am
    56    44    46   ar
    57    65    64    1
    58    43    45   ar
    59    46    45   ar
    60    38    47   am
    61    38    39    2
    62    58    57    2
    63    64    67    1
    64    64    63    1
    65    47    48    1
    66    67    68    1
    67    61    60    1
    68    62    60    1
    69    57    56    1
    70    60    59    1
    71    69    68    1
    72    59    56    1
    73    68    70    1
    74    48    51    1
    75    48    49    1
    76    56    55    1
    77    51    52    1
    78    49    50    2
    79    52    53    1
    80    54    53    1
