@<TRIPOS>MOLECULE
tmp/4ireB00.pdb
 125 118 0 0 0
SMALL
GASTEIGER

@<TRIPOS>ATOM
      1  N         28.1420  -27.7320   47.1770 N.3   115  ARG115     -0.1245
      2  CA        28.2730  -28.9860   47.9220 C.3   115  ARG115      0.1563
      3  C         29.4370  -29.8840   47.4830 C.2   115  ARG115      0.2260
      4  O         29.5130  -31.0470   47.8740 O.2   115  ARG115     -0.2867
      5  CB        26.9580  -29.7720   47.9580 C.3   115  ARG115      0.0307
      6  CG        25.8490  -29.0060   48.6290 C.3   115  ARG115      0.0489
      7  CD        24.6350  -29.8670   48.8560 C.3   115  ARG115      0.2205
      8  NE        23.5130  -29.0390   49.2760 N.pl3 115  ARG115     -0.0865
      9  CZ        22.3200  -29.5080   49.6150 C.cat 115  ARG115      0.5346
     10  NH1       22.0800  -30.8100   49.5810 N.pl3 115  ARG115      0.1354
     11  NH2       21.3650  -28.6680   49.9790 N.pl3 115  ARG115      0.1354
     12  N         30.1400  -33.1670   46.8310 N.3   118  PHE118     -0.1241
     13  CA        28.9310  -33.9490   47.0910 C.3   118  PHE118      0.1605
     14  C         27.7580  -33.5600   46.1870 C.2   118  PHE118      0.2264
     15  O         26.6660  -34.1240   46.2620 O.2   118  PHE118     -0.2867
     16  CB        28.6460  -33.9830   48.5950 C.3   118  PHE118      0.0534
     17  CG        29.8210  -34.4990   49.3960 C.ar  118  PHE118     -0.0203
     18  CD1       30.0640  -35.8660   49.4940 C.ar  118  PHE118     -0.0042
     19  CD2       30.7430  -33.6150   49.9660 C.ar  118  PHE118     -0.0042
     20  CE1       31.1700  -36.3440   50.1950 C.ar  118  PHE118     -0.0003
     21  CE2       31.8540  -34.0850   50.6730 C.ar  118  PHE118     -0.0003
     22  CZ        32.0660  -35.4510   50.7880 C.ar  118  PHE118     -0.0000
     23  N         31.9650  -39.2150   44.6200 N.3   191  TYR191     -0.1241
     24  CA        32.8160  -38.5180   45.5850 C.3   191  TYR191      0.1605
     25  C         33.9010  -39.3890   46.2380 C.2   191  TYR191      0.2264
     26  O         34.7990  -38.8800   46.9010 O.2   191  TYR191     -0.2867
     27  CB        31.9270  -37.9050   46.6740 C.3   191  TYR191      0.0534
     28  CG        31.0690  -38.9000   47.4370 C.ar  191  TYR191     -0.0201
     29  CD1       31.6240  -40.0300   48.0260 C.ar  191  TYR191     -0.0009
     30  CD2       29.7040  -38.7200   47.5460 C.ar  191  TYR191     -0.0009
     31  CE1       30.8600  -40.9340   48.7070 C.ar  191  TYR191      0.0417
     32  CE2       28.9210  -39.6250   48.2340 C.ar  191  TYR191      0.0417
     33  CZ        29.5110  -40.7310   48.8140 C.ar  191  TYR191      0.1957
     34  OH        28.7650  -41.6550   49.5050 O.3   191  TYR191     -0.2866
     35  N         37.7880  -38.8640   49.0240 N.3   195  ILE195     -0.1245
     36  CA        38.1080  -39.2540   50.3890 C.3   195  ILE195      0.1561
     37  C         39.5690  -39.7170   50.6640 C.2   195  ILE195      0.2260
     38  O         40.2740  -39.0400   51.4040 O.2   195  ILE195     -0.2867
     39  CB        37.0590  -40.2450   50.9160 C.3   195  ILE195      0.0252
     40  CG1       35.7420  -39.4970   51.1280 C.3   195  ILE195      0.0019
     41  CG2       37.5520  -40.8990   52.1940 C.3   195  ILE195      0.0019
     42  CD1       34.5550  -40.3940   51.3110 C.3   195  ILE195      0.0001
     43  N         40.6060  -35.6660   51.4180 N.3   199  ILE199     -0.1231
     44  CA        40.0180  -35.5100   52.7390 C.3   199  ILE199      0.1692
     45  C         40.7650  -36.2410   53.8570 C.2   199  ILE199      0.2591
     46  O         41.1030  -35.6450   54.8870 O.2   199  ILE199     -0.2718
     47  CB        38.5770  -35.9840   52.7480 C.3   199  ILE199      0.0266
     48  CG1       37.7660  -35.1810   51.7510 C.3   199  ILE199      0.0019
     49  CG2       37.9700  -35.8200   54.1250 C.3   199  ILE199      0.0020
     50  CD1       36.4640  -35.8510   51.4170 C.3   199  ILE199      0.0001
     51  N         41.0120  -37.5310   53.6870 N.am  200  LEU200     -0.1980
     52  CA        41.7560  -38.2210   54.7290 C.3   200  LEU200      0.1596
     53  C         43.1720  -37.6540   54.8870 C.2   200  LEU200      0.2287
     54  O         43.5040  -37.1610   55.9660 O.2   200  LEU200     -0.2864
     55  CB        41.7050  -39.7480   54.5770 C.3   200  LEU200      0.0297
     56  CG        40.2860  -40.2110   54.9350 C.3   200  LEU200      0.0022
     57  CD1       40.1090  -41.7210   54.9550 C.3   200  LEU200      0.0001
     58  CD2       39.9040  -39.6090   56.2750 C.3   200  LEU200      0.0001
     59  N         43.1500  -34.6180   56.8270 N.3   203  LEU203     -0.1245
     60  CA        42.8840  -34.7380   58.2640 C.3   203  LEU203      0.1561
     61  C         44.1340  -35.1810   59.0220 C.2   203  LEU203      0.2260
     62  O         44.4610  -34.6260   60.0790 O.2   203  LEU203     -0.2867
     63  CB        41.7460  -35.7060   58.5700 C.3   203  LEU203      0.0270
     64  CG        40.3370  -35.3330   58.1220 C.3   203  LEU203      0.0019
     65  CD1       39.3470  -36.3330   58.7260 C.3   203  LEU203      0.0001
     66  CD2       39.9830  -33.8870   58.4930 C.3   203  LEU203      0.0001
     67  N         31.8150  -25.9460   49.7050 N.3   251  TYR251     -0.1241
     68  CA        31.9080  -26.7000   50.9490 C.3   251  TYR251      0.1605
     69  C         33.3690  -27.0320   51.2540 C.2   251  TYR251      0.2264
     70  O         33.9080  -26.6150   52.2720 O.2   251  TYR251     -0.2867
     71  CB        31.0780  -27.9720   50.8620 C.3   251  TYR251      0.0534
     72  CG        31.2200  -28.8520   52.0600 C.ar  251  TYR251     -0.0201
     73  CD1       30.8180  -28.4030   53.3060 C.ar  251  TYR251     -0.0009
     74  CD2       31.7570  -30.1250   51.9580 C.ar  251  TYR251     -0.0009
     75  CE1       30.9450  -29.1930   54.4280 C.ar  251  TYR251      0.0417
     76  CE2       31.8820  -30.9310   53.0740 C.ar  251  TYR251      0.0417
     77  CZ        31.4770  -30.4560   54.3130 C.ar  251  TYR251      0.1957
     78  OH        31.5950  -31.2330   55.4460 O.3   251  TYR251     -0.2866
     79  N         35.8600  -25.7310   54.4870 N.3   255  ILE255     -0.1245
     80  CA        36.6770  -26.6350   55.2940 C.3   255  ILE255      0.1561
     81  C         38.1550  -26.3090   55.1530 C.2   255  ILE255      0.2260
     82  O         38.8540  -26.1760   56.1520 O.2   255  ILE255     -0.2867
     83  CB        36.4930  -28.0990   54.8690 C.3   255  ILE255      0.0252
     84  CG1       35.0870  -28.5930   55.2160 C.3   255  ILE255      0.0019
     85  CG2       37.5380  -28.9740   55.5210 C.3   255  ILE255      0.0019
     86  CD1       34.9250  -30.0870   55.0360 C.3   255  ILE255      0.0001
     87  N         36.7710  -28.3490   66.6470 N.3   300  PHE300     -0.1241
     88  CA        36.8170  -28.8130   65.2690 C.3   300  PHE300      0.1605
     89  C         35.5270  -29.5460   64.9270 C.2   300  PHE300      0.2264
     90  O         34.7160  -29.0310   64.1600 O.2   300  PHE300     -0.2867
     91  CB        38.0170  -29.7250   65.0610 C.3   300  PHE300      0.0534
     92  CG        38.2470  -30.1030   63.6320 C.ar  300  PHE300     -0.0203
     93  CD1       38.8550  -29.2160   62.7590 C.ar  300  PHE300     -0.0042
     94  CD2       37.9020  -31.3590   63.1660 C.ar  300  PHE300     -0.0042
     95  CE1       39.0830  -29.5610   61.4340 C.ar  300  PHE300     -0.0003
     96  CE2       38.1360  -31.7120   61.8440 C.ar  300  PHE300     -0.0003
     97  CZ        38.7300  -30.8090   60.9800 C.ar  300  PHE300     -0.0000
     98  N         32.8580  -28.3760   62.1440 N.3   304  ASN304     -0.1240
     99  CA        32.5230  -29.2250   61.0200 C.3   304  ASN304      0.1653
    100  C         31.0370  -29.5270   60.9480 C.2   304  ASN304      0.2266
    101  O         30.4480  -29.4500   59.8670 O.2   304  ASN304     -0.2867
    102  CB        33.3380  -30.5150   61.0600 C.3   304  ASN304      0.1155
    103  CG        34.5960  -30.4340   60.2120 C.2   304  ASN304      0.2627
    104  OD1       34.6410  -30.9540   59.0940 O.2   304  ASN304     -0.2716
    105  ND2       35.6120  -29.7450   60.7240 N.am  304  ASN304     -0.0877
    106  N         28.7970  -28.3750   57.9360 N.3   308  ALA308     -0.1245
    107  CA        28.0300  -29.3920   57.2250 C.3   308  ALA308      0.1562
    108  C         26.5350  -29.1060   57.3020 C.2   308  ALA308      0.2260
    109  O         25.7940  -29.3900   56.3800 O.2   308  ALA308     -0.2867
    110  CB        28.3360  -30.7710   57.7760 C.3   308  ALA308      0.0290
    111  N         24.3590  -28.3690   53.8990 N.3   312  PHE312     -0.1227
    112  CA        23.2840  -29.3030   53.5690 C.3   312  PHE312      0.1736
    113  C         22.1030  -29.1250   54.5540 C.2   312  PHE312      0.2596
    114  O         22.1780  -29.5610   55.7010 O.2   312  PHE312     -0.2718
    115  CB        23.8120  -30.7380   53.5950 C.3   312  PHE312      0.0547
    116  CG        25.1190  -30.9330   52.8430 C.ar  312  PHE312     -0.0202
    117  CD1       26.2870  -30.3110   53.2650 C.ar  312  PHE312     -0.0042
    118  CD2       25.2060  -31.8110   51.7840 C.ar  312  PHE312     -0.0042
    119  CE1       27.4860  -30.4900   52.6030 C.ar  312  PHE312     -0.0003
    120  CE2       26.4200  -32.0080   51.1230 C.ar  312  PHE312     -0.0003
    121  CZ        27.5580  -31.3450   51.5450 C.ar  312  PHE312     -0.0000
    122  N         21.0070  -28.5150   54.1160 N.am  313  GLY313     -0.1957
    123  CA        20.9290  -27.8870   52.8120 C.3   313  GLY313      0.1869
    124  C         20.3690  -26.4770   52.8470 C.2   313  GLY313      0.2309
    125  O         21.0520  -25.5420   53.2720 O.2   313  GLY313     -0.2863
@<TRIPOS>BOND
     1    23    24    1
     2    24    25    1
     3    24    27    1
     4    14    15    2
     5    14    13    1
     6    25    26    2
     7    27    28    1
     8    12    13    1
     9    13    16    1
    10     1     2    1
    11    28    30   ar
    12    28    29   ar
    13     3     4    2
    14     3     2    1
    15    30    32   ar
    16     2     5    1
    17     5     6    1
    18    29    31   ar
    19    32    33   ar
    20    16    17    1
    21     6     7    1
    22    31    33   ar
    23    33    34    1
    24     7     8    1
    25    35    36    1
    26     8     9    2
    27    17    18   ar
    28    17    19   ar
    29    18    20   ar
    30    10     9    1
    31     9    11    1
    32    67    68    1
    33    19    21   ar
    34    20    22   ar
    35    36    37    1
    36    36    39    1
    37    37    38    2
    38    21    22   ar
    39    71    68    1
    40    71    72    1
    41    39    40    1
    42    39    41    1
    43    68    69    1
    44   120   121   ar
    45   120   118   ar
    46    40    42    1
    47    69    70    2
    48    50    48    1
    49    43    44    1
    50   121   119   ar
    51    48    47    1
    52   118   116   ar
    53    74    72   ar
    54    74    76   ar
    55    72    73   ar
    56   119   117   ar
    57    44    47    1
    58    44    45    1
    59    47    49    1
    60   123   124    1
    61   123   122    1
    62   116   117   ar
    63   116   115    1
    64   124   125    2
    65    76    77   ar
    66    73    75   ar
    67   112   115    1
    68   112   111    1
    69   112   113    1
    70    51    45   am
    71    51    52    1
    72    45    46    2
    73   122   113   am
    74    77    75   ar
    75    77    78    1
    76    79    80    1
    77   113   114    2
    78    55    52    1
    79    55    56    1
    80    52    53    1
    81    83    84    1
    82    83    80    1
    83    83    85    1
    84    53    54    2
    85    56    57    1
    86    56    58    1
    87    86    84    1
    88    81    80    1
    89    81    82    2
    90   109   108    2
    91    59    60    1
    92   107   108    1
    93   107   110    1
    94   107   106    1
    95    64    66    1
    96    64    63    1
    97    64    65    1
    98    60    63    1
    99    60    61    1
   100    61    62    2
   101   104   103    2
   102   101   100    2
   103   103   105   am
   104   103   102    1
   105   100    99    1
   106    97    95   ar
   107    97    96   ar
   108    99   102    1
   109    99    98    1
   110    95    93   ar
   111    96    94   ar
   112    93    92   ar
   113    94    92   ar
   114    92    91    1
   115    90    89    2
   116    89    88    1
   117    91    88    1
   118    88    87    1
