@<TRIPOS>MOLECULE
tmp/4ireC03.pdb
 113 109 0 0 0
SMALL
GASTEIGER

@<TRIPOS>ATOM
      1  N         41.8330  -50.9080   38.7760 N.3   113  ARG113     -0.1231
      2  CA        42.0000  -51.5960   40.0560 C.3   113  ARG113      0.1694
      3  C         43.3980  -52.1600   40.3460 C.2   113  ARG113      0.2591
      4  O         43.9440  -51.9770   41.4320 O.2   113  ARG113     -0.2718
      5  CB        40.9660  -52.7030   40.1810 C.3   113  ARG113      0.0321
      6  CG        39.6020  -52.2100   40.5790 C.3   113  ARG113      0.0489
      7  CD        38.5430  -53.2770   40.3990 C.3   113  ARG113      0.2205
      8  NE        37.6710  -52.9230   39.2970 N.pl3 113  ARG113     -0.0865
      9  CZ        36.5160  -52.2820   39.4270 C.cat 113  ARG113      0.5346
     10  NH1       36.0560  -51.9540   40.6250 N.pl3 113  ARG113      0.1354
     11  NH2       35.8050  -51.9920   38.3470 N.pl3 113  ARG113      0.1354
     12  N         43.9680  -52.8350   39.3580 N.am  114  ARG114     -0.1980
     13  CA        45.2840  -53.4690   39.4650 C.3   114  ARG114      0.1597
     14  C         46.4430  -52.6110   38.9950 C.2   114  ARG114      0.2287
     15  O         47.5180  -53.1250   38.7700 O.2   114  ARG114     -0.2864
     16  CB        45.3030  -54.8310   38.7800 C.3   114  ARG114      0.0334
     17  CG        44.3470  -55.8110   39.4260 C.3   114  ARG114      0.0492
     18  CD        44.4890  -57.1900   38.8280 C.3   114  ARG114      0.2205
     19  NE        43.4490  -58.0830   39.3120 N.pl3 114  ARG114     -0.0865
     20  CZ        43.3810  -59.3640   38.9880 C.cat 114  ARG114      0.5346
     21  NH1       44.2740  -59.8740   38.1480 N.pl3 114  ARG114      0.1354
     22  NH2       42.4130  -60.1240   39.4830 N.pl3 114  ARG114      0.1354
     23  N         35.3170  -44.5870   40.9930 N.3   246  PRO246     -0.2102
     24  CA        34.3860  -44.8170   42.1040 C.3   246  PRO246      0.1504
     25  C         34.9000  -45.8900   43.0400 C.2   246  PRO246      0.2576
     26  O         34.3520  -46.0650   44.1180 O.2   246  PRO246     -0.2718
     27  CB        33.1110  -45.2800   41.4020 C.3   246  PRO246      0.0282
     28  CG        33.5990  -45.9460   40.1990 C.3   246  PRO246      0.0208
     29  CD        34.8010  -45.1560   39.7400 C.3   246  PRO246      0.0893
     30  N         35.8960  -46.6370   42.5770 N.am  247  TYR247     -0.1963
     31  CA        36.4460  -47.7820   43.2870 C.3   247  TYR247      0.1771
     32  C         37.9070  -47.5210   43.6600 C.2   247  TYR247      0.2619
     33  O         38.4260  -46.4410   43.4090 O.2   247  TYR247     -0.2715
     34  CB        36.3490  -49.0180   42.3990 C.3   247  TYR247      0.0574
     35  CG        37.0640  -48.8400   41.0740 C.ar  247  TYR247     -0.0198
     36  CD1       38.4210  -49.0950   40.9630 C.ar  247  TYR247     -0.0009
     37  CD2       36.3960  -48.3980   39.9490 C.ar  247  TYR247     -0.0009
     38  CE1       39.0810  -48.9270   39.7700 C.ar  247  TYR247      0.0417
     39  CE2       37.0550  -48.2200   38.7630 C.ar  247  TYR247      0.0417
     40  CZ        38.3930  -48.4940   38.6750 C.ar  247  TYR247      0.1957
     41  OH        39.0770  -48.3260   37.4970 O.3   247  TYR247     -0.2866
     42  N         38.5770  -48.5160   44.2400 N.am  248  MET248     -0.1977
     43  CA        39.9100  -48.3110   44.8090 C.3   248  MET248      0.1605
     44  C         41.0230  -49.0120   44.0170 C.2   248  MET248      0.2287
     45  O         40.9880  -50.2290   43.8310 O.2   248  MET248     -0.2864
     46  CB        39.9290  -48.8160   46.2510 C.3   248  MET248      0.0413
     47  CG        41.1210  -48.3400   47.0560 C.3   248  MET248      0.0598
     48  SD        40.6970  -46.8760   48.0060 S.3   248  MET248     -0.1393
     49  CE        42.3170  -46.1840   48.3630 C.3   248  MET248      0.0692
     50  N         45.4710  -48.0760   47.2480 N.3   253  ALA253     -0.1245
     51  CA        45.4550  -48.7220   48.5530 C.3   253  ALA253      0.1562
     52  C         46.8250  -48.5880   49.2050 C.2   253  ALA253      0.2260
     53  O         46.9460  -48.0770   50.3280 O.2   253  ALA253     -0.2867
     54  CB        45.0670  -50.1780   48.4230 C.3   253  ALA253      0.0290
     55  N         47.5750  -45.1460   50.2820 N.3   256  PHE256     -0.1227
     56  CA        46.7450  -44.7320   51.3900 C.3   256  PHE256      0.1736
     57  C         47.1690  -45.4170   52.6580 C.2   256  PHE256      0.2595
     58  O         47.1660  -44.7990   53.7200 O.2   256  PHE256     -0.2718
     59  CB        45.2860  -45.0650   51.1530 C.3   256  PHE256      0.0547
     60  CG        44.4100  -44.7030   52.3060 C.ar  256  PHE256     -0.0202
     61  CD1       44.2040  -43.3770   52.6370 C.ar  256  PHE256     -0.0042
     62  CD2       43.8100  -45.6790   53.0710 C.ar  256  PHE256     -0.0042
     63  CE1       43.3980  -43.0270   53.6920 C.ar  256  PHE256     -0.0003
     64  CE2       43.0090  -45.3350   54.1370 C.ar  256  PHE256     -0.0003
     65  CZ        42.8030  -44.0050   54.4440 C.ar  256  PHE256     -0.0000
     66  N         47.5080  -46.7010   52.5470 N.am  257  MET257     -0.1979
     67  CA        47.9770  -47.4720   53.6960 C.3   257  MET257      0.1605
     68  C         49.1990  -46.7970   54.3210 C.2   257  MET257      0.2287
     69  O         49.2220  -46.5120   55.5210 O.2   257  MET257     -0.2864
     70  CB        48.3140  -48.8900   53.2510 C.3   257  MET257      0.0413
     71  CG        48.6430  -49.8570   54.3710 C.3   257  MET257      0.0598
     72  SD        49.3980  -51.3290   53.6420 S.3   257  MET257     -0.1393
     73  CE        50.9310  -50.6200   53.0510 C.3   257  MET257      0.0692
     74  N         48.9620  -44.2320   56.8780 N.3   260  LEU260     -0.1245
     75  CA        48.7190  -44.6660   58.2590 C.3   260  LEU260      0.1561
     76  C         50.0240  -44.8460   59.0470 C.2   260  LEU260      0.2260
     77  O         50.1770  -44.3920   60.1960 O.2   260  LEU260     -0.2867
     78  CB        47.9230  -45.9710   58.2630 C.3   260  LEU260      0.0270
     79  CG        46.5500  -45.9120   57.6090 C.3   260  LEU260      0.0019
     80  CD1       45.8530  -47.2510   57.7020 C.3   260  LEU260      0.0001
     81  CD2       45.7350  -44.8630   58.3270 C.3   260  LEU260      0.0001
     82  N         50.5150  -56.3660   55.9600 N.3   302  ALA302     -0.1245
     83  CA        49.4510  -55.6600   55.2580 C.3   302  ALA302      0.1562
     84  C         49.6470  -55.7480   53.7420 C.2   302  ALA302      0.2260
     85  O         48.7110  -56.0630   53.0180 O.2   302  ALA302     -0.2867
     86  CB        49.3690  -54.2230   55.7130 C.3   302  ALA302      0.0290
     87  N         47.0220  -56.8770   51.0530 N.3   306  LEU306     -0.1245
     88  CA        46.5990  -56.0120   49.9550 C.3   306  LEU306      0.1561
     89  C         46.7270  -56.7300   48.6320 C.2   306  LEU306      0.2260
     90  O         45.7380  -56.8870   47.9180 O.2   306  LEU306     -0.2867
     91  CB        47.4230  -54.7340   49.9130 C.3   306  LEU306      0.0270
     92  CG        46.7400  -53.5670   50.6150 C.3   306  LEU306      0.0019
     93  CD1       47.4040  -52.2480   50.2240 C.3   306  LEU306      0.0001
     94  CD2       45.2480  -53.5670   50.2780 C.3   306  LEU306      0.0001
     95  N         43.9720  -59.3510   48.1680 N.3   309  LEU309     -0.1231
     96  CA        42.6410  -58.8560   47.8290 C.3   309  LEU309      0.1693
     97  C         42.5840  -58.4250   46.3680 C.2   309  LEU309      0.2592
     98  O         41.6050  -58.6720   45.6640 O.2   309  LEU309     -0.2718
     99  CB        42.2760  -57.6660   48.7040 C.3   309  LEU309      0.0284
    100  CG        42.0570  -57.9520   50.1840 C.3   309  LEU309      0.0019
    101  CD1       41.8390  -56.6470   50.9200 C.3   309  LEU309      0.0001
    102  CD2       40.9010  -58.8920   50.3940 C.3   309  LEU309      0.0001
    103  N         43.6490  -57.7660   45.9260 N.am  310  PHE310     -0.1976
    104  CA        43.7260  -57.2440   44.5720 C.3   310  PHE310      0.1639
    105  C         44.0970  -58.2650   43.4840 C.2   310  PHE310      0.2290
    106  O         43.8630  -58.0090   42.3120 O.2   310  PHE310     -0.2864
    107  CB        44.6860  -56.0500   44.5250 C.3   310  PHE310      0.0560
    108  CG        44.0720  -54.7510   44.9730 C.ar  310  PHE310     -0.0200
    109  CD1       44.0630  -54.3910   46.3040 C.ar  310  PHE310     -0.0042
    110  CD2       43.4940  -53.8960   44.0630 C.ar  310  PHE310     -0.0042
    111  CE1       43.5000  -53.1930   46.7100 C.ar  310  PHE310     -0.0003
    112  CE2       42.9290  -52.7060   44.4640 C.ar  310  PHE310     -0.0003
    113  CZ        42.9290  -52.3570   45.7830 C.ar  310  PHE310     -0.0000
@<TRIPOS>BOND
     1    41    40    1
     2    21    20    1
     3    11     9    1
     4    40    39   ar
     5    40    38   ar
     6    39    37   ar
     7    15    14    2
     8     1     2    1
     9    16    17    1
    10    16    13    1
    11    18    19    1
    12    18    17    1
    13    20    19    2
    14    20    22    1
    15    14    13    1
    16     8     9    2
    17     8     7    1
    18    12    13    1
    19    12     3   am
    20     9    10    1
    21    29    28    1
    22    29    23    1
    23    38    36   ar
    24    37    35   ar
    25     2     5    1
    26     2     3    1
    27     5     6    1
    28    28    27    1
    29     3     4    2
    30     7     6    1
    31    36    35   ar
    32    23    24    1
    33    35    34    1
    34    27    24    1
    35    24    25    1
    36   106   105    2
    37    34    31    1
    38    30    25   am
    39    30    31    1
    40    25    26    2
    41    31    32    1
    42    33    32    2
    43   105   104    1
    44    32    42   am
    45    45    44    2
    46    44    43    1
    47   110   112   ar
    48   110   108   ar
    49    42    43    1
    50   112   113   ar
    51   107   104    1
    52   107   108    1
    53   104   103    1
    54    43    46    1
    55   108   109   ar
    56    98    97    2
    57   113   111   ar
    58   103    97   am
    59    46    47    1
    60   109   111   ar
    61    97    96    1
    62    47    48    1
    63    50    51    1
    64    96    95    1
    65    96    99    1
    66    90    89    2
    67    48    49    1
    68    54    51    1
    69    51    52    1
    70    89    88    1
    71    99   100    1
    72    52    53    2
    73    91    88    1
    74    91    92    1
    75    88    87    1
    76   100   102    1
    77   100   101    1
    78    93    92    1
    79    94    92    1
    80    55    56    1
    81    59    56    1
    82    59    60    1
    83    56    57    1
    84    60    61   ar
    85    60    62   ar
    86    66    57   am
    87    66    67    1
    88    61    63   ar
    89    57    58    2
    90    85    84    2
    91    73    72    1
    92    62    64   ar
    93    70    67    1
    94    70    71    1
    95    72    71    1
    96    63    65   ar
    97    67    68    1
    98    84    83    1
    99    64    65   ar
   100    68    69    2
   101    83    86    1
   102    83    82    1
   103    74    75    1
   104    79    80    1
   105    79    78    1
   106    79    81    1
   107    75    78    1
   108    75    76    1
   109    76    77    2
