@<TRIPOS>MOLECULE
tmp/4ireB02.pdb
 108 102 0 0 0
SMALL
GASTEIGER

@<TRIPOS>ATOM
      1  N         33.2800  -34.0290   30.7570 N.3    27  LEU27      -0.1231
      2  CA        32.7920  -32.9650   31.6280 C.3    27  LEU27       0.1693
      3  C         33.9660  -32.2180   32.2360 C.2    27  LEU27       0.2592
      4  O         34.8050  -32.8000   32.9240 O.2    27  LEU27      -0.2718
      5  CB        31.8780  -33.4900   32.7310 C.3    27  LEU27       0.0284
      6  CG        30.9740  -32.3890   33.3090 C.3    27  LEU27       0.0019
      7  CD1       29.7410  -32.9670   33.9780 C.3    27  LEU27       0.0001
      8  CD2       31.7230  -31.5200   34.3120 C.3    27  LEU27       0.0001
      9  N         33.9860  -30.9090   32.0170 N.am   28  ASP28      -0.1960
     10  CA        35.1160  -30.0870   32.4050 C.3    28  ASP28       0.1840
     11  C         34.6430  -29.1090   33.4650 C.2    28  ASP28       0.2622
     12  O         33.8940  -28.1800   33.1650 O.2    28  ASP28      -0.2715
     13  CB        35.5980  -29.2910   31.1950 C.3    28  ASP28       0.1450
     14  CG        36.9430  -28.6350   31.4310 C.2    28  ASP28       0.3671
     15  OD1       36.9520  -27.6260   32.1650 O.co2  28  ASP28      -0.2456
     16  OD2       37.9820  -29.1130   30.8940 O.co2  28  ASP28      -0.2456
     17  N         35.1030  -29.2870   34.6990 N.am   29  ASP29      -0.1957
     18  CA        34.5810  -28.4810   35.7910 C.3    29  ASP29       0.1840
     19  C         35.0280  -27.0340   35.6870 C.2    29  ASP29       0.2621
     20  O         34.2520  -26.1250   35.9820 O.2    29  ASP29      -0.2715
     21  CB        34.9640  -29.0570   37.1410 C.3    29  ASP29       0.1450
     22  CG        34.4610  -30.4710   37.3360 C.2    29  ASP29       0.3671
     23  OD1       35.1660  -31.4220   36.9220 O.co2  29  ASP29      -0.2456
     24  OD2       33.3510  -30.6280   37.8880 O.co2  29  ASP29      -0.2456
     25  N         36.2780  -26.8100   35.2920 N.am   30  LYS30      -0.1977
     26  CA        36.7780  -25.4390   35.2280 C.3    30  LYS30       0.1596
     27  C         36.0930  -24.6320   34.1390 C.2    30  LYS30       0.2287
     28  O         35.7920  -23.4440   34.3540 O.2    30  LYS30      -0.2864
     29  CB        38.2910  -25.3890   35.0080 C.3    30  LYS30       0.0298
     30  CG        39.1500  -25.7740   36.1970 C.3    30  LYS30       0.0038
     31  CD        40.6290  -25.7890   35.7850 C.3    30  LYS30       0.0206
     32  CE        41.2080  -24.3790   35.6210 C.3    30  LYS30       0.1093
     33  NZ        41.4550  -23.6730   36.9240 N.3    30  LYS30      -0.1314
     34  N         27.8450  -36.3500   41.2930 N.3   189  ARG189     -0.1245
     35  CA        29.2840  -36.5960   41.2370 C.3   189  ARG189      0.1563
     36  C         29.6940  -37.7880   42.0960 C.2   189  ARG189      0.2260
     37  O         29.1270  -38.0150   43.1640 O.2   189  ARG189     -0.2867
     38  CB        30.0570  -35.3480   41.6710 C.3   189  ARG189      0.0307
     39  CG        31.4690  -35.6310   42.1570 C.3   189  ARG189      0.0489
     40  CD        32.2260  -34.3430   42.4350 C.3   189  ARG189      0.2205
     41  NE        32.8910  -33.8300   41.2410 N.pl3 189  ARG189     -0.0865
     42  CZ        32.5540  -32.7020   40.6240 C.cat 189  ARG189      0.5346
     43  NH1       31.5560  -31.9620   41.0890 N.pl3 189  ARG189      0.1354
     44  NH2       33.2150  -32.3120   39.5430 N.pl3 189  ARG189      0.1354
     45  N         37.6310  -38.6740   46.2840 N.3   194  TYR194     -0.1241
     46  CA        37.9750  -37.4760   47.0380 C.3   194  TYR194      0.1605
     47  C         38.3650  -37.7990   48.4780 C.2   194  TYR194      0.2264
     48  O         39.1580  -37.0800   49.0900 O.2   194  TYR194     -0.2867
     49  CB        36.8260  -36.4580   46.9880 C.3   194  TYR194      0.0534
     50  CG        36.7000  -35.8150   45.6350 C.ar  194  TYR194     -0.0201
     51  CD1       37.4590  -34.7040   45.3110 C.ar  194  TYR194     -0.0009
     52  CD2       35.8550  -36.3300   44.6710 C.ar  194  TYR194     -0.0009
     53  CE1       37.3740  -34.1130   44.0710 C.ar  194  TYR194      0.0417
     54  CE2       35.7620  -35.7430   43.4170 C.ar  194  TYR194      0.0417
     55  CZ        36.5280  -34.6320   43.1250 C.ar  194  TYR194      0.1957
     56  OH        36.4520  -34.0300   41.8910 O.3   194  TYR194     -0.2866
     57  N         52.4150  -26.1860   55.4080 N.3   230  ILE230     -0.1245
     58  CA        52.8700  -26.2700   54.0280 C.3   230  ILE230      0.1561
     59  C         52.1400  -27.3810   53.2590 C.2   230  ILE230      0.2260
     60  O         51.6250  -27.1520   52.1530 O.2   230  ILE230     -0.2867
     61  CB        54.4140  -26.4380   53.9840 C.3   230  ILE230      0.0252
     62  CG1       55.0800  -25.0940   54.2820 C.3   230  ILE230      0.0019
     63  CG2       54.9010  -27.0130   52.6550 C.3   230  ILE230      0.0019
     64  CD1       56.5870  -25.1500   54.3100 C.3   230  ILE230      0.0001
     65  N         48.8620  -26.3810   52.3570 N.3   233  ILE233     -0.1231
     66  CA        48.8010  -25.4410   51.2590 C.3   233  ILE233      0.1692
     67  C         48.7820  -26.2230   49.9480 C.2   233  ILE233      0.2591
     68  O         47.9690  -25.9370   49.0730 O.2   233  ILE233     -0.2718
     69  CB        49.9590  -24.4420   51.2960 C.3   233  ILE233      0.0266
     70  CG1       49.8080  -23.5330   52.5180 C.3   233  ILE233      0.0019
     71  CG2       49.9740  -23.6010   50.0420 C.3   233  ILE233      0.0020
     72  CD1       50.8870  -22.4670   52.6440 C.3   233  ILE233      0.0001
     73  N         49.6450  -27.2300   49.8320 N.am  234  ALA234     -0.1980
     74  CA        49.6640  -28.0850   48.6420 C.3   234  ALA234      0.1597
     75  C         48.2940  -28.6640   48.3710 C.2   234  ALA234      0.2287
     76  O         47.8590  -28.7100   47.2320 O.2   234  ALA234     -0.2864
     77  CB        50.6790  -29.2080   48.7840 C.3   234  ALA234      0.0319
     78  N         45.9900  -25.8290   47.1710 N.3   237  ILE237     -0.1231
     79  CA        46.3210  -25.4660   45.8000 C.3   237  ILE237      0.1692
     80  C         45.8670  -26.5340   44.8220 C.2   237  ILE237      0.2591
     81  O         45.2620  -26.2280   43.8010 O.2   237  ILE237     -0.2718
     82  CB        47.8320  -25.2370   45.6300 C.3   237  ILE237      0.0266
     83  CG1       48.2550  -23.9220   46.2870 C.3   237  ILE237      0.0019
     84  CG2       48.2190  -25.2420   44.1610 C.3   237  ILE237      0.0020
     85  CD1       49.7000  -23.5620   46.0300 C.3   237  ILE237      0.0001
     86  N         46.1970  -27.7830   45.1160 N.am  238  LEU238     -0.1980
     87  CA        45.7680  -28.9100   44.2950 C.3   238  LEU238      0.1596
     88  C         44.2730  -28.8910   44.0470 C.2   238  LEU238      0.2287
     89  O         43.8190  -29.0150   42.9150 O.2   238  LEU238     -0.2864
     90  CB        46.1040  -30.2170   45.0030 C.3   238  LEU238      0.0297
     91  CG        45.6870  -31.4720   44.2600 C.3   238  LEU238      0.0022
     92  CD1       46.6810  -31.7100   43.1630 C.3   238  LEU238      0.0001
     93  CD2       45.6230  -32.6360   45.1930 C.3   238  LEU238      0.0001
     94  N         43.1130  -25.5030   41.9130 N.3   241  THR241     -0.1203
     95  CA        43.4540  -25.4030   40.4900 C.3   241  THR241      0.1994
     96  C         42.5300  -26.2900   39.6580 C.2   241  THR241      0.2617
     97  O         42.4260  -26.1370   38.4470 O.2   241  THR241     -0.2717
     98  CB        44.9470  -25.6870   40.1860 C.3   241  THR241      0.1784
     99  OG1       45.2960  -27.0130   40.5930 O.3   241  THR241     -0.2211
    100  CG2       45.8270  -24.6950   40.9120 C.3   241  THR241      0.0376
    101  N         41.8790  -27.2250   40.3350 N.am  242  ASN242     -0.1974
    102  CA        40.9430  -28.1420   39.7150 C.3   242  ASN242      0.1688
    103  C         39.4790  -27.6300   39.6890 C.2   242  ASN242      0.2292
    104  O         38.5670  -28.3400   39.2590 O.2   242  ASN242     -0.2864
    105  CB        41.0220  -29.4810   40.4400 C.3   242  ASN242      0.1181
    106  CG        40.7960  -30.6470   39.5240 C.2   242  ASN242      0.2629
    107  OD1       41.5070  -31.6500   39.6060 O.2   242  ASN242     -0.2716
    108  ND2       39.8070  -30.5280   38.6350 N.am  242  ASN242     -0.0877
@<TRIPOS>BOND
     1     1     2    1
     2    16    14   ar
     3    13    14    1
     4    13    10    1
     5    14    15   ar
     6     2     3    1
     7     2     5    1
     8     9     3   am
     9     9    10    1
    10     3     4    2
    11    10    11    1
    12     5     6    1
    13    12    11    2
    14     6     7    1
    15     6     8    1
    16    11    17   am
    17    27    28    2
    18    27    26    1
    19    17    18    1
    20    29    26    1
    21    29    30    1
    22    26    25    1
    23    25    19   am
    24    32    31    1
    25    32    33    1
    26    19    18    1
    27    19    20    2
    28    31    30    1
    29    18    21    1
    30    23    22   ar
    31    21    22    1
    32    22    24   ar
    33    97    96    2
    34   108   106   am
    35   104   103    2
    36   106   107    2
    37   106   105    1
    38    44    42    1
    39    96   101   am
    40    96    95    1
    41   103   102    1
    42   102   101    1
    43   102   105    1
    44    98    95    1
    45    98    99    1
    46    98   100    1
    47    95    94    1
    48    42    43    1
    49    42    41    2
    50    35    34    1
    51    35    38    1
    52    35    36    1
    53    41    40    1
    54    38    39    1
    55    56    55    1
    56    36    37    2
    57    39    40    1
    58    89    88    2
    59    55    54   ar
    60    55    53   ar
    61    92    91    1
    62    54    52   ar
    63    81    80    2
    64    88    87    1
    65    53    51   ar
    66    84    82    1
    67    91    90    1
    68    91    93    1
    69    87    90    1
    70    87    86    1
    71    52    50   ar
    72    80    86   am
    73    80    79    1
    74    51    50   ar
    75    82    79    1
    76    82    83    1
    77    50    49    1
    78    79    78    1
    79    85    83    1
    80    45    46    1
    81    49    46    1
    82    46    47    1
    83    76    75    2
    84    75    74    1
    85    47    48    2
    86    74    77    1
    87    74    73    1
    88    68    67    2
    89    73    67   am
    90    67    66    1
    91    71    69    1
    92    66    69    1
    93    66    65    1
    94    69    70    1
    95    60    59    2
    96    70    72    1
    97    63    61    1
    98    59    58    1
    99    61    58    1
   100    61    62    1
   101    58    57    1
   102    62    64    1
