@<TRIPOS>MOLECULE
tmp/4irlC00.pdb
 207 203 0 0 0
SMALL
GASTEIGER

@<TRIPOS>ATOM
      1  N        -26.7770  -39.8090   10.7450 N.3    13  ASN13      -0.1240
      2  CA       -26.5940  -38.5060   11.3640 C.3    13  ASN13       0.1653
      3  C        -25.1980  -37.9260   11.0910 C.2    13  ASN13       0.2266
      4  O        -24.2180  -38.6610   10.9460 O.2    13  ASN13      -0.2867
      5  CB       -26.8140  -38.5930   12.8720 C.3    13  ASN13       0.1155
      6  CG       -27.1630  -37.2550   13.4740 C.2    13  ASN13       0.2627
      7  OD1      -27.9250  -36.4720   12.8860 O.2    13  ASN13      -0.2716
      8  ND2      -26.6030  -36.9670   14.6340 N.am   13  ASN13      -0.0877
      9  N        -23.0460  -36.5740   12.8970 N.3    15  ASP15      -0.1225
     10  CA       -21.9920  -36.7700   13.9030 C.3    15  ASP15       0.1805
     11  C        -21.3610  -38.1700   13.8060 C.2    15  ASP15       0.2597
     12  O        -20.4420  -38.4940   14.5770 O.2    15  ASP15      -0.2718
     13  CB       -22.4620  -36.4420   15.3360 C.3    15  ASP15       0.1424
     14  CG       -23.6550  -37.2750   15.7910 C.2    15  ASP15       0.3668
     15  OD1      -24.0970  -38.1660   15.0320 O.co2  15  ASP15      -0.2456
     16  OD2      -24.1570  -37.0200   16.9190 O.co2  15  ASP15      -0.2456
     17  N        -21.8370  -38.9800   12.8540 N.am   16  LYS16      -0.1979
     18  CA       -21.3410  -40.3460   12.6740 C.3    16  LYS16       0.1596
     19  C        -20.3260  -40.4140   11.5240 C.2    16  LYS16       0.2287
     20  O        -20.1300  -39.4220   10.8030 O.2    16  LYS16      -0.2864
     21  CB       -22.5010  -41.3310   12.4380 C.3    16  LYS16       0.0298
     22  CG       -23.5330  -41.3510   13.5600 C.3    16  LYS16       0.0038
     23  CD       -22.8690  -41.5600   14.9090 C.3    16  LYS16       0.0206
     24  CE       -23.8980  -41.8690   16.0030 C.3    16  LYS16       0.1093
     25  NZ       -24.8470  -40.7550   16.2490 N.3    16  LYS16      -0.1314
     26  N        -32.0900  -33.0400   11.0560 N.3    43  LYS43      -0.1245
     27  CA       -33.3410  -33.5290   11.6230 C.3    43  LYS43       0.1561
     28  C        -33.8370  -34.7810   10.8880 C.2    43  LYS43       0.2260
     29  O        -35.0410  -34.9600   10.6920 O.2    43  LYS43      -0.2867
     30  CB       -34.4140  -32.4270   11.5830 C.3    43  LYS43       0.0271
     31  CG       -34.0560  -31.1750   12.3730 C.3    43  LYS43       0.0035
     32  CD       -35.1720  -30.1510   12.3160 C.3    43  LYS43       0.0206
     33  CE       -34.8030  -28.9010   13.1160 C.3    43  LYS43       0.1093
     34  NZ       -35.8270  -27.8150   12.9960 N.3    43  LYS43      -0.1314
     35  N        -34.0730  -37.8260   11.6880 N.3    45  GLU45      -0.1231
     36  CA       -34.9530  -38.6810   12.4830 C.3    45  GLU45       0.1699
     37  C        -36.4230  -38.2290   12.4780 C.2    45  GLU45       0.2592
     38  O        -37.3180  -39.0470   12.6910 O.2    45  GLU45      -0.2718
     39  CB       -34.4210  -38.8290   13.9130 C.3    45  GLU45       0.0402
     40  CG       -34.8710  -37.7430   14.8710 C.3    45  GLU45       0.1161
     41  CD       -34.2560  -36.3750   14.5960 C.2    45  GLU45       0.3649
     42  OE1      -33.3440  -36.2350   13.7430 O.co2  45  GLU45      -0.2457
     43  OE2      -34.6470  -35.4260   15.2890 O.co2  45  GLU45      -0.2457
     44  N        -36.6530  -36.9470   12.2150 N.am   46  GLU46      -0.1979
     45  CA       -38.0190  -36.4190   12.0020 C.3    46  GLU46       0.1602
     46  C        -38.3740  -36.4270   10.5200 C.2    46  GLU46       0.2287
     47  O        -39.5270  -36.6070   10.1340 O.2    46  GLU46      -0.2864
     48  CB       -38.1750  -34.9760   12.5130 C.3    46  GLU46       0.0415
     49  CG       -38.1470  -34.8090   14.0280 C.3    46  GLU46       0.1163
     50  CD       -38.0750  -33.3410   14.4470 C.2    46  GLU46       0.3649
     51  OE1      -37.9200  -32.4650   13.5620 O.co2  46  GLU46      -0.2457
     52  OE2      -38.1700  -33.0660   15.6590 O.co2  46  GLU46      -0.2457
     53  N        -30.1460  -44.6760   13.0250 N.3    63  TRP63      -0.1227
     54  CA       -30.3320  -43.8510   14.2370 C.3    63  TRP63       0.1737
     55  C        -30.2510  -44.7830   15.4320 C.2    63  TRP63       0.2595
     56  O        -30.2290  -45.9860   15.2740 O.2    63  TRP63      -0.2718
     57  CB       -31.6920  -43.1510   14.2470 C.3    63  TRP63       0.0564
     58  CG       -31.8350  -42.0290   15.2320 C.ar   63  TRP63       0.0003
     59  CD1      -32.4080  -42.0910   16.4760 C.ar   63  TRP63       0.0946
     60  CD2      -31.4400  -40.6790   15.0340 C.ar   63  TRP63       0.0152
     61  NE1      -32.3680  -40.8530   17.0710 N.ar   63  TRP63      -0.2442
     62  CE2      -31.7860  -39.9530   16.2000 C.ar   63  TRP63       0.0810
     63  CE3      -30.8140  -39.9850   13.9820 C.ar   63  TRP63       0.0012
     64  CZ2      -31.5370  -38.5860   16.3520 C.ar   63  TRP63       0.0191
     65  CZ3      -30.5790  -38.6160   14.1210 C.ar   63  TRP63       0.0001
     66  CH2      -30.9340  -37.9400   15.2990 C.ar   63  TRP63       0.0015
     67  N        -30.2260  -44.2250   16.6420 N.am   64  ALA64      -0.1980
     68  CA       -30.2640  -45.0820   17.8210 C.3    64  ALA64       0.1597
     69  C        -31.5980  -45.7980   17.8440 C.2    64  ALA64       0.2287
     70  O        -32.6000  -45.2880   17.3200 O.2    64  ALA64      -0.2864
     71  CB       -30.1000  -44.2680   19.0590 C.3    64  ALA64       0.0319
     72  N        -33.8340  -46.2000   19.8810 N.3    66  ASP66      -0.1225
     73  CA       -35.0150  -45.6310   20.5480 C.3    66  ASP66       0.1805
     74  C        -36.0570  -45.0450   19.5900 C.2    66  ASP66       0.2597
     75  O        -37.2170  -44.9270   19.9670 O.2    66  ASP66      -0.2718
     76  CB       -34.6560  -44.6000   21.6220 C.3    66  ASP66       0.1424
     77  CG       -34.0760  -43.3260   21.0420 C.2    66  ASP66       0.3668
     78  OD1      -33.0110  -43.4200   20.4080 O.co2  66  ASP66      -0.2456
     79  OD2      -34.6540  -42.2290   21.2530 O.co2  66  ASP66      -0.2456
     80  N        -35.6560  -44.6760   18.3750 N.am   67  ARG67      -0.1979
     81  CA       -36.6130  -44.1300   17.4070 C.3    67  ARG67       0.1597
     82  C        -37.3580  -45.2390   16.6670 C.2    67  ARG67       0.2287
     83  O        -38.3570  -44.9550   15.9980 O.2    67  ARG67      -0.2864
     84  CB       -35.9110  -43.2100   16.3830 C.3    67  ARG67       0.0334
     85  CG       -35.8890  -41.7160   16.7460 C.3    67  ARG67       0.0492
     86  CD       -37.3000  -41.2060   16.6180 C.3    67  ARG67       0.2205
     87  NE       -37.4290  -39.7760   16.8370 N.pl3  67  ARG67      -0.0865
     88  CZ       -38.5090  -39.0820   16.4730 C.cat  67  ARG67       0.5346
     89  NH1      -39.5080  -39.7040   15.8440 N.pl3  67  ARG67       0.1354
     90  NH2      -38.5650  -37.7830   16.6860 N.pl3  67  ARG67       0.1354
     91  N        -23.5040  -47.2240   22.2950 N.3   112  GLU112     -0.1245
     92  CA       -23.0270  -45.8970   22.6660 C.3   112  GLU112      0.1567
     93  C        -23.4800  -45.6190   24.0820 C.2   112  GLU112      0.2260
     94  O        -24.6310  -45.8640   24.4360 O.2   112  GLU112     -0.2867
     95  CB       -23.6810  -44.8240   21.7860 C.3   112  GLU112      0.0388
     96  CG       -23.6130  -45.1030   20.2850 C.3   112  GLU112      0.1160
     97  CD       -24.4360  -44.1190   19.4620 C.2   112  GLU112      0.3649
     98  OE1      -25.1760  -43.2880   20.0420 O.co2 112  GLU112     -0.2457
     99  OE2      -24.3270  -44.1620   18.2250 O.co2 112  GLU112     -0.2457
    100  N        -29.6200  -30.7310   24.8860 N.3   154  GLU154     -0.1231
    101  CA       -30.2260  -32.0070   24.5160 C.3   154  GLU154      0.1684
    102  C        -30.3340  -32.8720   25.7560 C.2   154  GLU154      0.2434
    103  O        -29.3180  -33.1100   26.4450 O.2   154  GLU154     -0.2733
    104  CB       -29.3800  -32.7310   23.4410 C.3   154  GLU154      0.0402
    105  CG       -29.6450  -32.2570   21.9980 C.3   154  GLU154      0.1161
    106  CD       -31.0590  -32.5830   21.5080 C.2   154  GLU154      0.3649
    107  OE1      -31.6850  -33.5230   22.0450 O.co2 154  GLU154     -0.2457
    108  OE2      -31.5570  -31.8890   20.5900 O.co2 154  GLU154     -0.2457
    109  N        -31.5440  -33.3880   26.0410 N.am  155  PRO155     -0.2718
    110  CA       -31.7300  -34.1240   27.3000 C.3   155  PRO155      0.1535
    111  C        -30.9150  -35.4130   27.4060 C.2   155  PRO155      0.2599
    112  O        -30.7150  -35.9220   28.5130 O.2   155  PRO155     -0.2715
    113  CB       -33.2370  -34.4130   27.3300 C.3   155  PRO155      0.0310
    114  CG       -33.6550  -34.3550   25.8820 C.3   155  PRO155      0.0237
    115  CD       -32.7910  -33.2990   25.2530 C.3   155  PRO155      0.0939
    116  N        -30.4530  -35.9310   26.2730 N.am  156  TYR156     -0.1960
    117  CA       -29.5550  -37.0690   26.3010 C.3   156  TYR156      0.1771
    118  C        -28.3670  -36.8070   27.2350 C.2   156  TYR156      0.2619
    119  O        -27.9320  -37.7100   27.9400 O.2   156  TYR156     -0.2715
    120  CB       -29.0740  -37.3180   24.8920 C.3   156  TYR156      0.0574
    121  CG       -28.1760  -38.5120   24.7090 C.ar  156  TYR156     -0.0198
    122  CD1      -28.6730  -39.8060   24.7730 C.ar  156  TYR156     -0.0009
    123  CD2      -26.8270  -38.3450   24.4290 C.ar  156  TYR156     -0.0009
    124  CE1      -27.8350  -40.9140   24.5600 C.ar  156  TYR156      0.0417
    125  CE2      -25.9870  -39.4280   24.2300 C.ar  156  TYR156      0.0417
    126  CZ       -26.4900  -40.7170   24.3010 C.ar  156  TYR156      0.1957
    127  OH       -25.6230  -41.7880   24.0690 O.3   156  TYR156     -0.2866
    128  N        -27.8360  -35.5860   27.2300 N.am  157  PHE157     -0.1974
    129  CA       -26.6290  -35.2790   28.0180 C.3   157  PHE157      0.1639
    130  C        -26.8840  -35.0230   29.5060 C.2   157  PHE157      0.2290
    131  O        -25.9800  -35.1990   30.3430 O.2   157  PHE157     -0.2864
    132  CB       -25.8920  -34.0770   27.4050 C.3   157  PHE157      0.0560
    133  CG       -25.3010  -34.3560   26.0490 C.ar  157  PHE157     -0.0200
    134  CD1      -24.0010  -34.8220   25.9250 C.ar  157  PHE157     -0.0042
    135  CD2      -26.0430  -34.1450   24.8980 C.ar  157  PHE157     -0.0042
    136  CE1      -23.4600  -35.0760   24.6750 C.ar  157  PHE157     -0.0003
    137  CE2      -25.5090  -34.3960   23.6490 C.ar  157  PHE157     -0.0003
    138  CZ       -24.2170  -34.8680   23.5360 C.ar  157  PHE157     -0.0000
    139  N        -18.2240  -40.8570   19.4370 N.3   231  TRP231     -0.1241
    140  CA       -18.0980  -40.1180   18.1780 C.3   231  TRP231      0.1605
    141  C        -17.2850  -38.8250   18.3120 C.2   231  TRP231      0.2264
    142  O        -16.7960  -38.2810   17.3110 O.2   231  TRP231     -0.2867
    143  CB       -19.5030  -39.7810   17.6370 C.3   231  TRP231      0.0550
    144  CG       -20.2820  -39.0300   18.6630 C.ar  231  TRP231      0.0003
    145  CD1      -20.1930  -37.6940   18.9430 C.ar  231  TRP231      0.0946
    146  CD2      -21.2330  -39.5750   19.5910 C.ar  231  TRP231      0.0152
    147  NE1      -21.0370  -37.3810   19.9840 N.ar  231  TRP231     -0.2442
    148  CE2      -21.7070  -38.5130   20.3880 C.ar  231  TRP231      0.0810
    149  CE3      -21.7490  -40.8580   19.8120 C.ar  231  TRP231      0.0012
    150  CZ2      -22.6460  -38.6870   21.4110 C.ar  231  TRP231      0.0191
    151  CZ3      -22.7010  -41.0370   20.8290 C.ar  231  TRP231      0.0001
    152  CH2      -23.1430  -39.9490   21.6070 C.ar  231  TRP231      0.0015
    153  N        -27.6450  -46.2190   23.8900 N.3   261  GLY261     -0.1225
    154  CA       -28.1980  -46.2290   22.5440 C.3   261  GLY261      0.1811
    155  C        -27.4710  -47.2630   21.7240 C.2   261  GLY261      0.2280
    156  O        -26.2690  -47.4730   21.8770 O.2   261  GLY261     -0.2866
    157  N        -32.0590  -47.8680   26.3700 N.3   331  MET331     -0.1245
    158  CA       -33.2710  -47.1400   26.0350 C.3   331  MET331      0.1570
    159  C        -34.3730  -48.1090   25.6060 C.2   331  MET331      0.2261
    160  O        -34.1080  -49.0720   24.8990 O.2   331  MET331     -0.2867
    161  CB       -32.9920  -46.1520   24.9090 C.3   331  MET331      0.0387
    162  CG       -32.2530  -44.9210   25.4110 C.3   331  MET331      0.0595
    163  SD       -32.2280  -43.5500   24.2500 S.3   331  MET331     -0.1393
    164  CE       -31.0990  -44.1700   23.0440 C.3   331  MET331      0.0692
    165  N        -40.2800  -40.8870   21.7830 N.3   338  SER338     -0.1217
    166  CA       -40.0590  -39.5630   21.2220 C.3   338  SER338      0.1889
    167  C        -40.8670  -38.5390   22.0240 C.2   338  SER338      0.2288
    168  O        -40.4120  -37.4250   22.2680 O.2   338  SER338     -0.2866
    169  CB       -40.4120  -39.5180   19.7290 C.3   338  SER338      0.2089
    170  OG       -41.8000  -39.7100   19.5070 O.3   338  SER338     -0.2183
    171  N        -38.8830  -37.8210   25.1470 N.3   341  TRP341     -0.1227
    172  CA       -37.7230  -36.9620   24.9240 C.3   341  TRP341      0.1737
    173  C        -38.1110  -35.4960   24.6670 C.2   341  TRP341      0.2595
    174  O        -37.4370  -34.5600   25.1360 O.2   341  TRP341     -0.2718
    175  CB       -36.8830  -37.4690   23.7500 C.3   341  TRP341      0.0564
    176  CG       -35.9120  -38.6100   24.0040 C.ar  341  TRP341      0.0003
    177  CD1      -35.8840  -39.8010   23.3410 C.ar  341  TRP341      0.0946
    178  CD2      -34.8190  -38.6390   24.9410 C.ar  341  TRP341      0.0152
    179  NE1      -34.8260  -40.5710   23.8040 N.ar  341  TRP341     -0.2442
    180  CE2      -34.1650  -39.8820   24.7900 C.ar  341  TRP341      0.0810
    181  CE3      -34.3300  -37.7330   25.8900 C.ar  341  TRP341      0.0012
    182  CZ2      -33.0520  -40.2470   25.5660 C.ar  341  TRP341      0.0191
    183  CZ3      -33.2320  -38.0910   26.6530 C.ar  341  TRP341      0.0001
    184  CH2      -32.6000  -39.3420   26.4820 C.ar  341  TRP341      0.0015
    185  N        -39.1960  -35.2790   23.9310 N.am  342  TYR342     -0.1976
    186  CA       -39.6060  -33.9120   23.6550 C.3   342  TYR342      0.1639
    187  C        -39.9680  -33.2210   24.9690 C.2   342  TYR342      0.2290
    188  O        -39.6230  -32.0640   25.1610 O.2   342  TYR342     -0.2864
    189  CB       -40.7770  -33.8380   22.6620 C.3   342  TYR342      0.0560
    190  CG       -40.3920  -34.0450   21.1970 C.ar  342  TYR342     -0.0198
    191  CD1      -39.4320  -33.2470   20.5690 C.ar  342  TYR342     -0.0009
    192  CD2      -41.0150  -35.0180   20.4410 C.ar  342  TYR342     -0.0009
    193  CE1      -39.1100  -33.4300   19.2160 C.ar  342  TYR342      0.0417
    194  CE2      -40.7000  -35.2070   19.1060 C.ar  342  TYR342      0.0417
    195  CZ       -39.7390  -34.4150   18.4990 C.ar  342  TYR342      0.1957
    196  OH       -39.4400  -34.6270   17.1580 O.3   342  TYR342     -0.2866
    197  N        -36.8750  -32.4820   27.0870 N.3   345  ARG345     -0.1245
    198  CA       -36.0550  -31.4560   26.4590 C.3   345  ARG345      0.1563
    199  C        -36.5160  -30.0510   26.8430 C.2   345  ARG345      0.2260
    200  O        -35.7080  -29.1650   27.2090 O.2   345  ARG345     -0.2867
    201  CB       -36.0840  -31.5930   24.9380 C.3   345  ARG345      0.0307
    202  CG       -35.3150  -30.4810   24.2910 C.3   345  ARG345      0.0489
    203  CD       -35.4220  -30.4560   22.7780 C.3   345  ARG345      0.2205
    204  NE       -35.6490  -29.0760   22.3620 N.pl3 345  ARG345     -0.0865
    205  CZ       -34.6800  -28.1850   22.1500 C.cat 345  ARG345      0.5346
    206  NH1      -33.4020  -28.5300   22.2840 N.pl3 345  ARG345      0.1354
    207  NH2      -34.9910  -26.9410   21.7940 N.pl3 345  ARG345      0.1354
@<TRIPOS>BOND
     1    47    46    2
     2    46    45    1
     3    29    28    2
     4     1     2    1
     5    20    19    2
     6    28    27    1
     7     4     3    2
     8    26    27    1
     9     3     2    1
    10     2     5    1
    11    19    18    1
    12    30    27    1
    13    30    31    1
    14    35    36    1
    15    45    44    1
    16    45    48    1
    17    44    37   am
    18    32    31    1
    19    32    33    1
    20    21    18    1
    21    21    22    1
    22    37    36    1
    23    37    38    2
    24    36    39    1
    25    48    49    1
    26    18    17    1
    27    17    11   am
    28     5     6    1
    29     7     6    2
    30     9    10    1
    31    34    33    1
    32    53    54    1
    33     6     8   am
    34    22    23    1
    35    51    50   ar
    36    42    41   ar
    37    11    10    1
    38    11    12    2
    39    10    13    1
    40    39    40    1
    41    63    65   ar
    42    63    60   ar
    43    49    50    1
    44    65    66   ar
    45    54    57    1
    46    54    55    1
    47    57    58    1
    48    50    52   ar
    49    41    40    1
    50    41    43   ar
    51    23    24    1
    52    15    14   ar
    53    60    58   ar
    54    60    62   ar
    55    58    59   ar
    56    56    55    2
    57    66    64   ar
    58    13    14    1
    59    55    67   am
    60    14    16   ar
    61    89    88    1
    62    83    82    2
    63    24    25    1
    64    62    64   ar
    65    62    61   ar
    66    84    85    1
    67    84    81    1
    68    88    90    1
    69    88    87    2
    70    59    61   ar
    71    86    85    1
    72    86    87    1
    73    67    68    1
    74    82    81    1
    75   196   195    1
    76   142   141    2
    77    70    69    2
    78    81    80    1
    79   143   140    1
    80   143   144    1
    81    68    69    1
    82    68    71    1
    83   140   141    1
    84   140   139    1
    85    99    97   ar
    86    80    74   am
    87   195   194   ar
    88   195   193   ar
    89   144   145   ar
    90   144   146   ar
    91   145   147   ar
    92   194   192   ar
    93   193   191   ar
    94    97    98   ar
    95    97    96    1
    96   170   169    1
    97    74    75    2
    98    74    73    1
    99   146   149   ar
   100   146   148   ar
   101   169   166    1
   102   149   151   ar
   103    72    73    1
   104   147   148   ar
   105    96    95    1
   106   148   150   ar
   107    78    77   ar
   108   192   190   ar
   109    73    76    1
   110   191   190   ar
   111   108   106   ar
   112   151   152   ar
   113    77    79   ar
   114    77    76    1
   115   190   189    1
   116   166   165    1
   117   166   167    1
   118   150   152   ar
   119   106   105    1
   120   106   107   ar
   121   155   156    2
   122   155   154    1
   123    95    92    1
   124   207   205    1
   125   105   104    1
   126   167   168    2
   127   205   206    1
   128   205   204    2
   129    91    92    1
   130   204   203    1
   131   154   153    1
   132   189   186    1
   133    92    93    1
   134   203   202    1
   135   164   163    1
   136   177   179   ar
   137   177   176   ar
   138   104   101    1
   139   138   137   ar
   140   138   136   ar
   141   137   135   ar
   142   186   185    1
   143   186   187    1
   144   175   176    1
   145   175   172    1
   146   179   180   ar
   147   185   173   am
   148   176   178   ar
   149   127   126    1
   150    93    94    2
   151   125   126   ar
   152   125   123   ar
   153   163   162    1
   154   202   201    1
   155   126   124   ar
   156   123   121   ar
   157   101   100    1
   158   101   102    1
   159   124   122   ar
   160   173   172    1
   161   173   174    2
   162   136   134   ar
   163   121   122   ar
   164   121   120    1
   165   180   178   ar
   166   180   182   ar
   167   120   117    1
   168   135   133   ar
   169   160   159    2
   170   161   162    1
   171   161   158    1
   172   172   171    1
   173   201   198    1
   174   178   181   ar
   175   187   188    2
   176   115   114    1
   177   115   109    1
   178   182   184   ar
   179   159   158    1
   180   102   109   am
   181   102   103    2
   182   114   113    1
   183   181   183   ar
   184   134   133   ar
   185   158   157    1
   186   109   110    1
   187   133   132    1
   188   116   117    1
   189   116   111   am
   190   117   118    1
   191   198   199    1
   192   198   197    1
   193   184   183   ar
   194   199   200    2
   195   128   118   am
   196   128   129    1
   197   118   119    2
   198   110   113    1
   199   110   111    1
   200   132   129    1
   201   111   112    2
   202   129   130    1
   203   130   131    2
