@<TRIPOS>MOLECULE
tmp/4irnA00.pdb
 199 192 0 0 0
SMALL
GASTEIGER

@<TRIPOS>ATOM
      1  N          0.2380   53.9890  -60.6640 N.3    84  PHE84      -0.1241
      2  CA         1.5600   54.6200  -60.6640 C.3    84  PHE84       0.1605
      3  C          2.6710   53.5700  -60.5270 C.2    84  PHE84       0.2264
      4  O          3.6450   53.6220  -61.2830 O.2    84  PHE84      -0.2867
      5  CB         1.6570   55.7290  -59.5960 C.3    84  PHE84       0.0534
      6  CG         3.0550   56.2100  -59.2660 C.ar   84  PHE84      -0.0203
      7  CD1        3.8640   56.7850  -60.2420 C.ar   84  PHE84      -0.0042
      8  CD2        3.5540   56.1120  -57.9710 C.ar   84  PHE84      -0.0042
      9  CE1        5.1570   57.2100  -59.9330 C.ar   84  PHE84      -0.0003
     10  CE2        4.8380   56.5630  -57.6600 C.ar   84  PHE84      -0.0003
     11  CZ         5.6280   57.1110  -58.6390 C.ar   84  PHE84      -0.0000
     12  N          5.5020   52.7310  -63.4660 N.3    88  ALA88      -0.1245
     13  CA         6.8950   52.8650  -63.0750 C.3    88  ALA88       0.1562
     14  C          7.6710   51.6350  -63.5220 C.2    88  ALA88       0.2260
     15  O          8.7740   51.7680  -64.0250 O.2    88  ALA88      -0.2867
     16  CB         6.9880   53.0230  -61.5690 C.3    88  ALA88       0.0290
     17  N         13.2360   51.6060  -60.4330 N.3   122  HIS122     -0.1226
     18  CA        14.1260   52.4990  -61.1510 C.3   122  HIS122      0.1752
     19  C         14.7140   53.4310  -60.0890 C.2   122  HIS122      0.2596
     20  O         13.9810   54.2350  -59.5120 O.2   122  HIS122     -0.2718
     21  CB        13.3330   53.2560  -62.2380 C.3   122  HIS122      0.0759
     22  CG        14.0990   54.3170  -62.9730 C.ar  122  HIS122      0.0818
     23  ND1       14.1000   55.6320  -62.5180 N.ar  122  HIS122     -0.2268
     24  CD2       14.8510   54.2420  -64.0870 C.ar  122  HIS122      0.1154
     25  CE1       14.8400   56.3050  -63.3790 C.ar  122  HIS122      0.1986
     26  NE2       15.3160   55.5140  -64.3330 N.ar  122  HIS122     -0.2212
     27  N         16.0120   53.2530  -59.7600 N.am  123  ALA123     -0.1966
     28  CA        16.7060   54.0670  -58.7560 C.3   123  ALA123      0.1728
     29  C         17.7760   54.9320  -59.4040 C.2   123  ALA123      0.2616
     30  O         18.8610   54.4490  -59.7500 O.2   123  ALA123     -0.2715
     31  CB        17.3030   53.1920  -57.6680 C.3   123  ALA123      0.0334
     32  N         17.4260   56.2220  -59.6140 N.am  124  ALA124     -0.1963
     33  CA        18.2870   57.2190  -60.2450 C.3   124  ALA124      0.1728
     34  C         18.5060   58.4290  -59.3680 C.2   124  ALA124      0.2617
     35  O         19.6480   58.8410  -59.2130 O.2   124  ALA124     -0.2715
     36  CB        17.7150   57.6370  -61.5820 C.3   124  ALA124      0.0334
     37  N         17.4300   58.9910  -58.7820 N.am  125  THR125     -0.1937
     38  CA        17.4860   60.1890  -57.9240 C.3   125  THR125      0.2028
     39  C         18.2930   59.9810  -56.6260 C.2   125  THR125      0.2642
     40  O         18.3160   58.8740  -56.0980 O.2   125  THR125     -0.2714
     41  CB        16.0680   60.7310  -57.6590 C.3   125  THR125      0.1808
     42  OG1       16.1540   62.0510  -57.1300 O.3   125  THR125     -0.2208
     43  CG2       15.2880   59.8830  -56.6860 C.3   125  THR125      0.0379
     44  N         18.9380   61.0460  -56.1270 N.am  126  GLU126     -0.1963
     45  CA        19.7610   61.0960  -54.9030 C.3   126  GLU126      0.1718
     46  C         19.4970   62.4000  -54.1100 C.2   126  GLU126      0.2458
     47  O         19.0300   63.3660  -54.7080 O.2   126  GLU126     -0.2730
     48  CB        21.2500   61.0390  -55.2740 C.3   126  GLU126      0.0428
     49  CG        21.6640   59.8040  -56.0430 C.3   126  GLU126      0.1163
     50  CD        23.1460   59.6810  -56.3240 C.2   126  GLU126      0.3649
     51  OE1       23.5140   58.7810  -57.1120 O.co2 126  GLU126     -0.2457
     52  OE2       23.9420   60.4650  -55.7570 O.co2 126  GLU126     -0.2457
     53  N         19.8290   62.4850  -52.8000 N.am  127  PRO127     -0.2727
     54  CA        19.5970   63.7460  -52.0540 C.3   127  PRO127      0.1402
     55  C         20.2240   65.0150  -52.6380 C.2   127  PRO127      0.2269
     56  O         19.6420   66.0860  -52.4760 O.2   127  PRO127     -0.2865
     57  CB        20.1380   63.4520  -50.6590 C.3   127  PRO127      0.0296
     58  CG        20.9580   62.2390  -50.8190 C.3   127  PRO127      0.0237
     59  CD        20.3600   61.4430  -51.9160 C.3   127  PRO127      0.0939
     60  N         18.5330   65.4310  -57.7450 N.3   130  GLY130     -0.1210
     61  CA        17.1340   65.2440  -58.0910 C.3   130  GLY130      0.1956
     62  C         16.9300   65.7560  -59.5060 C.2   130  GLY130      0.2612
     63  O         16.9860   64.9850  -60.4720 O.2   130  GLY130     -0.2717
     64  N         16.7600   67.0750  -59.6290 N.am  131  SER131     -0.1952
     65  CA        16.6460   67.7600  -60.9150 C.3   131  SER131      0.1924
     66  C         18.0040   67.6800  -61.6440 C.2   131  SER131      0.2314
     67  O         18.0380   67.3830  -62.8410 O.2   131  SER131     -0.2863
     68  CB        16.2570   69.2150  -60.6880 C.3   131  SER131      0.2116
     69  OG        14.9670   69.3230  -60.1030 O.3   131  SER131     -0.2180
     70  N         17.4450   58.1380  -52.8010 N.3   154  HIS154     -0.1226
     71  CA        16.1960   58.3810  -52.1240 C.3   154  HIS154      0.1752
     72  C         15.0600   58.2670  -53.1400 C.2   154  HIS154      0.2596
     73  O         15.3350   58.3060  -54.3390 O.2   154  HIS154     -0.2718
     74  CB        16.2140   59.6880  -51.3050 C.3   154  HIS154      0.0759
     75  CG        16.2460   61.0050  -52.0410 C.ar  154  HIS154      0.0818
     76  ND1       16.2250   61.0660  -53.4240 N.ar  154  HIS154     -0.2268
     77  CD2       16.2610   62.2640  -51.5560 C.ar  154  HIS154      0.1154
     78  CE1       16.2250   62.3600  -53.7240 C.ar  154  HIS154      0.1986
     79  NE2       16.2540   63.1200  -52.6350 N.ar  154  HIS154     -0.2212
     80  N         13.8300   58.0120  -52.6780 N.am  155  TYR155     -0.1976
     81  CA        12.6410   57.7910  -53.5260 C.3   155  TYR155      0.1639
     82  C         12.8340   56.6640  -54.5640 C.2   155  TYR155      0.2290
     83  O         13.2640   56.9290  -55.6890 O.2   155  TYR155     -0.2864
     84  CB        12.1060   59.0800  -54.2010 C.3   155  TYR155      0.0560
     85  CG        12.0670   60.2930  -53.2990 C.ar  155  TYR155     -0.0198
     86  CD1       11.1940   60.3540  -52.2180 C.ar  155  TYR155     -0.0009
     87  CD2       12.8900   61.3900  -53.5360 C.ar  155  TYR155     -0.0009
     88  CE1       11.1680   61.4630  -51.3720 C.ar  155  TYR155      0.0417
     89  CE2       12.8610   62.5110  -52.7070 C.ar  155  TYR155      0.0417
     90  CZ        11.9940   62.5470  -51.6300 C.ar  155  TYR155      0.1957
     91  OH        11.9680   63.6510  -50.8110 O.3   155  TYR155     -0.2866
     92  N         10.4360   53.9320  -56.0830 N.3   157  THR157     -0.1218
     93  CA         9.1010   53.3300  -56.2460 C.3   157  THR157      0.1862
     94  C          9.2310   51.8140  -56.4100 C.2   157  THR157      0.2287
     95  O         10.0620   51.3570  -57.1980 O.2   157  THR157     -0.2866
     96  CB         8.3150   54.0050  -57.3880 C.3   157  THR157      0.1770
     97  OG1        8.2520   55.4100  -57.1520 O.3   157  THR157     -0.2211
     98  CG2        6.9020   53.4630  -57.5350 C.3   157  THR157      0.0375
     99  N          3.5570   59.5510  -47.3350 N.3   200  LYS200     -0.1245
    100  CA         3.3210   60.7140  -48.1970 C.3   200  LYS200      0.1561
    101  C          1.8350   61.1110  -48.3010 C.2   200  LYS200      0.2260
    102  O          0.9700   60.3680  -47.8360 O.2   200  LYS200     -0.2867
    103  CB         3.9610   60.5070  -49.5780 C.3   200  LYS200      0.0271
    104  CG         3.7040   59.1400  -50.1470 C.3   200  LYS200      0.0035
    105  CD         4.5120   58.8510  -51.3790 C.3   200  LYS200      0.0206
    106  CE         4.7370   57.3670  -51.5050 C.3   200  LYS200      0.1093
    107  NZ         3.4800   56.5650  -51.4720 N.3   200  LYS200     -0.1314
    108  N         -0.8620   58.7040  -53.1810 N.3   203  MET203     -0.1245
    109  CA        -0.1620   57.5450  -53.7580 C.3   203  MET203      0.1570
    110  C          0.3190   56.5940  -52.6410 C.2   203  MET203      0.2261
    111  O          1.3280   55.9080  -52.7950 O.2   203  MET203     -0.2867
    112  CB         0.9870   57.9630  -54.7020 C.3   203  MET203      0.0387
    113  CG         0.5520   58.7880  -55.8950 C.3   203  MET203      0.0595
    114  SD        -0.5060   57.9110  -57.0500 S.3   203  MET203     -0.1393
    115  CE        -0.5060   59.0370  -58.4110 C.3   203  MET203      0.0692
    116  N          7.2250   53.5300  -51.5900 N.3   208  VAL208     -0.1245
    117  CA         8.3670   54.3670  -51.9620 C.3   208  VAL208      0.1561
    118  C          9.4050   54.5080  -50.8050 C.2   208  VAL208      0.2260
    119  O          9.3990   55.5080  -50.0690 O.2   208  VAL208     -0.2867
    120  CB         7.9650   55.7300  -52.6080 C.3   208  VAL208      0.0252
    121  CG1        9.1850   56.4670  -53.1560 C.3   208  VAL208      0.0019
    122  CG2        6.9300   55.5360  -53.7120 C.3   208  VAL208      0.0019
    123  N         13.0650   58.5530  -69.6950 N.3   238  MET238     -0.1245
    124  CA        12.2410   59.7500  -69.4700 C.3   238  MET238      0.1570
    125  C         11.2530   60.0150  -70.5970 C.2   238  MET238      0.2261
    126  O         10.2090   60.6070  -70.3660 O.2   238  MET238     -0.2867
    127  CB        13.1000   60.9880  -69.1930 C.3   238  MET238      0.0387
    128  CG        13.6600   61.0510  -67.7900 C.3   238  MET238      0.0595
    129  SD        12.4660   60.6450  -66.5000 S.3   238  MET238     -0.1393
    130  CE        12.9310   61.8250  -65.2130 C.3   238  MET238      0.0692
    131  N          1.3600   64.2270  -56.6060 N.3   357  ALA357     -0.1245
    132  CA         2.5500   63.4040  -56.8440 C.3   357  ALA357      0.1562
    133  C          3.1140   63.5720  -58.2600 C.2   357  ALA357      0.2260
    134  O          4.3310   63.6780  -58.4170 O.2   357  ALA357     -0.2867
    135  CB         2.2350   61.9430  -56.5820 C.3   357  ALA357      0.0290
    136  N          5.8380   65.9720  -59.1790 N.3   360  PHE360     -0.1227
    137  CA         7.1750   65.6630  -58.6570 C.3   360  PHE360      0.1736
    138  C          7.8490   64.4620  -59.3170 C.2   360  PHE360      0.2595
    139  O          9.0320   64.5640  -59.6650 O.2   360  PHE360     -0.2718
    140  CB         7.1660   65.5660  -57.1260 C.3   360  PHE360      0.0547
    141  CG         6.5450   66.7830  -56.4850 C.ar  360  PHE360     -0.0202
    142  CD1        7.1830   68.0180  -56.5360 C.ar  360  PHE360     -0.0042
    143  CD2        5.2900   66.7120  -55.8930 C.ar  360  PHE360     -0.0042
    144  CE1        6.5970   69.1490  -55.9760 C.ar  360  PHE360     -0.0003
    145  CE2        4.7030   67.8440  -55.3280 C.ar  360  PHE360     -0.0003
    146  CZ         5.3600   69.0550  -55.3790 C.ar  360  PHE360     -0.0000
    147  N          7.1140   63.3360  -59.5180 N.am  361  TYR361     -0.1962
    148  CA         7.7080   62.1960  -60.2180 C.3   361  TYR361      0.1771
    149  C          7.7660   62.4790  -61.7140 C.2   361  TYR361      0.2620
    150  O          6.9840   63.3050  -62.2060 O.2   361  TYR361     -0.2715
    151  CB         7.0600   60.8480  -59.8640 C.3   361  TYR361      0.0574
    152  CG         5.6170   60.6670  -60.2690 C.ar  361  TYR361     -0.0198
    153  CD1        5.2720   60.3880  -61.5890 C.ar  361  TYR361     -0.0009
    154  CD2        4.6090   60.6110  -59.3120 C.ar  361  TYR361     -0.0009
    155  CE1        3.9490   60.1670  -61.9600 C.ar  361  TYR361      0.0417
    156  CE2        3.2840   60.3710  -59.6700 C.ar  361  TYR361      0.0417
    157  CZ         2.9570   60.1620  -60.9950 C.ar  361  TYR361      0.1957
    158  OH         1.6480   59.9320  -61.3360 O.3   361  TYR361     -0.2866
    159  N          8.7380   61.8570  -62.4200 N.am  362  SER362     -0.1936
    160  CA         9.0350   62.0370  -63.8570 C.3   362  SER362      0.2055
    161  C          9.6030   63.4450  -64.1400 C.2   362  SER362      0.2644
    162  O          9.7500   63.8380  -65.2990 O.2   362  SER362     -0.2714
    163  CB         7.8090   61.7460  -64.7300 C.3   362  SER362      0.2130
    164  OG         7.2150   60.4930  -64.4280 O.3   362  SER362     -0.2179
    165  N          9.9320   64.1750  -63.0720 N.am  363  GLY363     -0.1939
    166  CA        10.4510   65.5350  -63.1310 C.3   363  GLY363      0.2014
    167  C          9.4200   66.5550  -62.6950 C.2   363  GLY363      0.2639
    168  O          8.2200   66.3580  -62.9060 O.2   363  GLY363     -0.2714
    169  N          9.8810   67.6570  -62.0750 N.am  364  THR364     -0.1950
    170  CA         9.0080   68.7420  -61.6080 C.3   364  THR364      0.1897
    171  C          8.5270   69.5770  -62.7900 C.2   364  THR364      0.2313
    172  O          9.1590   69.5460  -63.8490 O.2   364  THR364     -0.2863
    173  CB         9.7080   69.6410  -60.5800 C.3   364  THR364      0.1794
    174  OG1       10.7900   70.3140  -61.2070 O.3   364  THR364     -0.2208
    175  CG2       10.1730   68.8960  -59.3370 C.3   364  THR364      0.0378
    176  N          8.7450   72.7630  -63.2590 N.3   366  GLU366     -0.1231
    177  CA         9.8260   73.7050  -63.5540 C.3   366  GLU366      0.1699
    178  C         10.8890   73.0740  -64.4560 C.2   366  GLU366      0.2592
    179  O         11.3560   73.7330  -65.3820 O.2   366  GLU366     -0.2718
    180  CB        10.4620   74.2260  -62.2540 C.3   366  GLU366      0.0402
    181  CG         9.5320   75.0530  -61.3770 C.3   366  GLU366      0.1161
    182  CD         8.4540   74.3070  -60.6080 C.2   366  GLU366      0.3649
    183  OE1        8.7620   73.2530  -60.0060 O.co2 366  GLU366     -0.2457
    184  OE2        7.2970   74.7850  -60.6010 O.co2 366  GLU366     -0.2457
    185  N         11.2550   71.8040  -64.1980 N.am  367  ILE367     -0.1980
    186  CA        12.2320   71.0340  -64.9700 C.3   367  ILE367      0.1595
    187  C         11.7760   70.8400  -66.3980 C.2   367  ILE367      0.2287
    188  O         12.5720   71.0660  -67.3110 O.2   367  ILE367     -0.2864
    189  CB        12.6180   69.7080  -64.2470 C.3   367  ILE367      0.0276
    190  CG1       13.6050   69.9760  -63.1010 C.3   367  ILE367      0.0022
    191  CG2       13.1380   68.5940  -65.1930 C.3   367  ILE367      0.0022
    192  CD1       14.7790   70.9840  -63.4010 C.3   367  ILE367      0.0001
    193  N         12.1100   74.0020  -68.2970 N.3   370  VAL370     -0.1245
    194  CA        13.5300   74.1910  -68.6200 C.3   370  VAL370      0.1561
    195  C         13.8940   73.3120  -69.8410 C.2   370  VAL370      0.2260
    196  O         14.5510   73.8080  -70.7610 O.2   370  VAL370     -0.2867
    197  CB        14.4460   73.9370  -67.3880 C.3   370  VAL370      0.0252
    198  CG1       15.9160   73.8320  -67.7820 C.3   370  VAL370      0.0019
    199  CG2       14.2520   75.0170  -66.3270 C.3   370  VAL370      0.0019
@<TRIPOS>BOND
     1   196   195    2
     2   125   126    2
     3   125   124    1
     4   195   194    1
     5   123   124    1
     6   124   127    1
     7   127   128    1
     8   194   193    1
     9   194   197    1
    10   128   129    1
    11   198   197    1
    12   197   199    1
    13   188   187    2
    14   129   130    1
    15   187   186    1
    16   179   178    2
    17   162   161    2
    18   191   189    1
    19   186   189    1
    20   186   185    1
    21   163   164    1
    22   163   160    1
    23   178   185   am
    24   178   177    1
    25    26    24   ar
    26    26    25   ar
    27   189   190    1
    28   161   160    1
    29   161   165   am
    30    24    22   ar
    31    15    14    2
    32   160   159    1
    33   172   171    2
    34   177   176    1
    35   177   180    1
    36    14    13    1
    37    12    13    1
    38   192   190    1
    39    25    23   ar
    40   166   165    1
    41   166   167    1
    42    13    16    1
    43    22    23   ar
    44    22    21    1
    45   168   167    2
    46    67    66    2
    47   171   170    1
    48   167   169   am
    49   159   149   am
    50   180   181    1
    51    21    18    1
    52   150   149    2
    53   169   170    1
    54   155   153   ar
    55   155   157   ar
    56   149   148    1
    57    66    65    1
    58   170   173    1
    59   153   152   ar
    60    36    33    1
    61   181   182    1
    62   158   157    1
    63     4     3    2
    64   174   173    1
    65    18    17    1
    66    18    19    1
    67   157   156   ar
    68    65    68    1
    69    65    64    1
    70    68    69    1
    71     1     2    1
    72     2     3    1
    73     2     5    1
    74   182   184   ar
    75   182   183   ar
    76   173   175    1
    77    63    62    2
    78   152   151    1
    79   152   154   ar
    80    33    32    1
    81    33    34    1
    82     7     9   ar
    83     7     6   ar
    84   148   151    1
    85   148   147    1
    86    19    27   am
    87    19    20    2
    88     9    11   ar
    89    27    28    1
    90    30    29    2
    91   156   154   ar
    92   139   138    2
    93    64    62   am
    94    32    29   am
    95     5     6    1
    96   147   138   am
    97    62    61    1
    98    29    28    1
    99    34    35    2
   100    34    37   am
   101   138   137    1
   102     6     8   ar
   103   136   137    1
   104    37    38    1
   105    28    31    1
   106   137   140    1
   107    11    10   ar
   108   134   133    2
   109   115   114    1
   110   133   132    1
   111    61    60    1
   112     8    10   ar
   113    38    41    1
   114    38    39    1
   115    41    42    1
   116    41    43    1
   117    98    96    1
   118    96    97    1
   119    96    93    1
   120    95    94    2
   121   140   141    1
   122    51    50   ar
   123   114   113    1
   124   132   131    1
   125   132   135    1
   126    39    44   am
   127    39    40    2
   128   142   141   ar
   129   142   144   ar
   130   141   143   ar
   131    94    93    1
   132    50    49    1
   133    50    52   ar
   134    93    92    1
   135    44    45    1
   136    49    48    1
   137   144   146   ar
   138   113   112    1
   139   143   145   ar
   140    83    82    2
   141   146   145   ar
   142    48    45    1
   143    45    46    1
   144    47    46    2
   145   112   109    1
   146    82    81    1
   147    73    72    2
   148    84    81    1
   149    84    85    1
   150    46    53   am
   151   109   108    1
   152   109   110    1
   153    78    76   ar
   154    78    79   ar
   155   122   120    1
   156    87    85   ar
   157    87    89   ar
   158    81    80    1
   159    76    75   ar
   160    85    86   ar
   161   121   120    1
   162    72    80   am
   163    72    71    1
   164    70    71    1
   165    53    54    1
   166    53    59    1
   167   111   110    2
   168    89    90   ar
   169    55    56    2
   170    55    54    1
   171    79    77   ar
   172   120   117    1
   173    86    88   ar
   174    71    74    1
   175    54    57    1
   176    75    77   ar
   177    75    74    1
   178   117   116    1
   179   117   118    1
   180    59    58    1
   181    90    88   ar
   182    90    91    1
   183   106   107    1
   184   106   105    1
   185   105   104    1
   186    58    57    1
   187   118   119    2
   188   104   103    1
   189   103   100    1
   190   101   100    1
   191   101   102    2
   192   100    99    1
