@<TRIPOS>MOLECULE
tmp/4irnA01.pdb
 153 151 0 0 0
SMALL
GASTEIGER

@<TRIPOS>ATOM
      1  N        -23.4940   65.1700  -60.3230 N.3   263  TYR263     -0.1241
      2  CA       -23.7410   65.9460  -59.0990 C.3   263  TYR263      0.1605
      3  C        -24.3020   67.3500  -59.3880 C.2   263  TYR263      0.2264
      4  O        -25.2150   67.7990  -58.6880 O.2   263  TYR263     -0.2867
      5  CB       -22.4770   66.0310  -58.2270 C.3   263  TYR263      0.0534
      6  CG       -22.7780   66.4520  -56.8120 C.ar  263  TYR263     -0.0201
      7  CD1      -23.1960   65.5220  -55.8640 C.ar  263  TYR263     -0.0009
      8  CD2      -22.6580   67.7850  -56.4160 C.ar  263  TYR263     -0.0009
      9  CE1      -23.4990   65.9060  -54.5600 C.ar  263  TYR263      0.0417
     10  CE2      -22.9490   68.1800  -55.1110 C.ar  263  TYR263      0.0417
     11  CZ       -23.3740   67.2350  -54.1870 C.ar  263  TYR263      0.1957
     12  OH       -23.6640   67.5840  -52.8950 O.3   263  TYR263     -0.2866
     13  N        -27.7300   67.6430  -57.5480 N.3   267  HIS267     -0.1241
     14  CA       -27.7970   68.5280  -56.3900 C.3   267  HIS267      0.1621
     15  C        -28.4800   69.8460  -56.6830 C.2   267  HIS267      0.2264
     16  O        -28.1260   70.5270  -57.6470 O.2   267  HIS267     -0.2867
     17  CB       -26.4340   68.7140  -55.7250 C.3   267  HIS267      0.0745
     18  CG       -26.5300   69.2770  -54.3450 C.ar  267  HIS267      0.0817
     19  ND1      -27.1630   68.5830  -53.3230 N.ar  267  HIS267     -0.2268
     20  CD2      -26.0890   70.4590  -53.8600 C.ar  267  HIS267      0.1154
     21  CE1      -27.0770   69.3590  -52.2580 C.ar  267  HIS267      0.1986
     22  NE2      -26.4290   70.4930  -52.5280 N.ar  267  HIS267     -0.2212
     23  N        -30.1450   73.6710  -55.1690 N.3   269  GLN269     -0.1231
     24  CA       -30.0360   74.8100  -54.2490 C.3   269  GLN269      0.1698
     25  C        -30.7190   76.0170  -54.9170 C.2   269  GLN269      0.2592
     26  O        -30.5850   76.1980  -56.1380 O.2   269  GLN269     -0.2718
     27  CB       -28.5550   75.1120  -53.9340 C.3   269  GLN269      0.0381
     28  CG       -28.2570   75.5410  -52.4880 C.3   269  GLN269      0.0905
     29  CD       -28.4750   74.5040  -51.3980 C.2   269  GLN269      0.2608
     30  OE1      -28.6710   74.8450  -50.2290 O.2   269  GLN269     -0.2717
     31  NE2      -28.3930   73.2240  -51.7210 N.am  269  GLN269     -0.0878
     32  N        -31.4370   76.8330  -54.1290 N.am  270  PHE270     -0.1976
     33  CA       -32.1950   78.0110  -54.5890 C.3   270  PHE270      0.1639
     34  C        -33.2840   77.6370  -55.6470 C.2   270  PHE270      0.2290
     35  O        -33.5560   78.4160  -56.5710 O.2   270  PHE270     -0.2864
     36  CB       -31.2640   79.1550  -55.0740 C.3   270  PHE270      0.0560
     37  CG       -30.1840   79.5840  -54.1080 C.ar  270  PHE270     -0.0200
     38  CD1      -30.4210   80.5850  -53.1720 C.ar  270  PHE270     -0.0042
     39  CD2      -28.9280   78.9860  -54.1320 C.ar  270  PHE270     -0.0042
     40  CE1      -29.4250   80.9710  -52.2660 C.ar  270  PHE270     -0.0003
     41  CE2      -27.9400   79.3580  -53.2150 C.ar  270  PHE270     -0.0003
     42  CZ       -28.1830   80.3680  -52.3060 C.ar  270  PHE270     -0.0000
     43  N        -27.6010   72.9620  -59.2170 N.3   274  ILE274     -0.1245
     44  CA       -26.4210   73.8200  -59.0620 C.3   274  ILE274      0.1561
     45  C        -25.7260   74.1640  -60.3900 C.2   274  ILE274      0.2260
     46  O        -25.1850   75.2620  -60.5220 O.2   274  ILE274     -0.2867
     47  CB       -25.4380   73.3160  -57.9580 C.3   274  ILE274      0.0252
     48  CG1      -25.0740   71.8300  -58.1700 C.3   274  ILE274      0.0019
     49  CG2      -26.0200   73.5560  -56.5500 C.3   274  ILE274      0.0019
     50  CD1      -23.6600   71.4710  -57.8320 C.3   274  ILE274      0.0001
     51  N        -26.2750   77.4790  -62.3920 N.3   277  PHE277     -0.1241
     52  CA       -25.4990   78.6620  -62.0260 C.3   277  PHE277      0.1605
     53  C        -24.1970   78.5680  -62.8220 C.2   277  PHE277      0.2264
     54  O        -23.5140   77.5340  -62.7780 O.2   277  PHE277     -0.2867
     55  CB       -25.2220   78.7180  -60.5110 C.3   277  PHE277      0.0534
     56  CG       -26.4520   78.6880  -59.6340 C.ar  277  PHE277     -0.0203
     57  CD1      -27.2690   79.8090  -59.5090 C.ar  277  PHE277     -0.0042
     58  CD2      -26.7830   77.5450  -58.9110 C.ar  277  PHE277     -0.0042
     59  CE1      -28.4030   79.7780  -58.6840 C.ar  277  PHE277     -0.0003
     60  CE2      -27.9200   77.5130  -58.0950 C.ar  277  PHE277     -0.0003
     61  CZ       -28.7180   78.6290  -57.9830 C.ar  277  PHE277     -0.0000
     62  N        -21.2090   79.8380  -62.4720 N.3   279  LEU279     -0.1231
     63  CA       -19.9410   79.6420  -61.7580 C.3   279  LEU279      0.1693
     64  C        -19.6380   78.1520  -61.5510 C.2   279  LEU279      0.2591
     65  O        -18.4590   77.7750  -61.4880 O.2   279  LEU279     -0.2718
     66  CB       -19.8990   80.4020  -60.4150 C.3   279  LEU279      0.0284
     67  CG       -19.8040   81.9310  -60.4660 C.3   279  LEU279      0.0019
     68  CD1      -19.9520   82.5140  -59.0830 C.3   279  LEU279      0.0001
     69  CD2      -18.5010   82.4010  -61.1220 C.3   279  LEU279      0.0001
     70  N        -20.7130   77.3120  -61.4520 N.am  280  VAL280     -0.1980
     71  CA       -20.6180   75.8590  -61.2910 C.3   280  VAL280      0.1595
     72  C        -20.4090   75.2150  -62.6710 C.2   280  VAL280      0.2287
     73  O        -19.4880   74.4190  -62.8270 O.2   280  VAL280     -0.2864
     74  CB       -21.8450   75.2820  -60.5370 C.3   280  VAL280      0.0276
     75  CG1      -21.8040   73.7600  -60.4660 C.3   280  VAL280      0.0022
     76  CG2      -21.9700   75.8800  -59.1400 C.3   280  VAL280      0.0022
     77  N        -16.8570   75.3570  -64.2600 N.3   283  LYS283     -0.1245
     78  CA       -15.8560   74.4260  -63.7120 C.3   283  LYS283      0.1561
     79  C        -15.8660   73.1300  -64.5070 C.2   283  LYS283      0.2260
     80  O        -14.8280   72.5050  -64.6860 O.2   283  LYS283     -0.2867
     81  CB       -16.1050   74.1280  -62.2320 C.3   283  LYS283      0.0271
     82  CG       -15.8550   75.2990  -61.3310 C.3   283  LYS283      0.0035
     83  CD       -16.5390   75.1050  -59.9920 C.3   283  LYS283      0.0206
     84  CE       -16.1710   76.1500  -58.9680 C.3   283  LYS283      0.1093
     85  NZ       -14.7450   76.5490  -59.0140 N.3   283  LYS283     -0.1314
     86  N        -14.7460   71.3970  -55.3320 N.3   335  GLU335     -0.1231
     87  CA       -15.4720   72.6710  -55.2840 C.3   335  GLU335      0.1699
     88  C        -16.9420   72.5080  -55.6560 C.2   335  GLU335      0.2592
     89  O        -17.7930   72.9920  -54.9190 O.2   335  GLU335     -0.2718
     90  CB       -14.8030   73.7280  -56.1650 C.3   335  GLU335      0.0402
     91  CG       -13.5160   74.2940  -55.5830 C.3   335  GLU335      0.1161
     92  CD       -12.6090   74.9940  -56.5800 C.2   335  GLU335      0.3649
     93  OE1      -13.0300   75.2140  -57.7400 O.co2 335  GLU335     -0.2457
     94  OE2      -11.4600   75.3140  -56.2010 O.co2 335  GLU335     -0.2457
     95  N        -17.2350   71.7980  -56.7700 N.am  336  ILE336     -0.1966
     96  CA       -18.5960   71.5070  -57.2630 C.3   336  ILE336      0.1727
     97  C        -19.4430   70.8030  -56.1770 C.2   336  ILE336      0.2616
     98  O        -20.6090   71.1510  -55.9980 O.2   336  ILE336     -0.2715
     99  CB       -18.5360   70.7060  -58.6120 C.3   336  ILE336      0.0290
    100  CG1      -17.9850   71.5770  -59.7590 C.3   336  ILE336      0.0022
    101  CG2      -19.8870   70.0880  -59.0020 C.3   336  ILE336      0.0023
    102  CD1      -17.2930   70.8160  -60.8630 C.3   336  ILE336      0.0001
    103  N        -18.8350   69.8420  -55.4460 N.am  337  HIS337     -0.1959
    104  CA       -19.4850   69.0760  -54.3710 C.3   337  HIS337      0.1787
    105  C        -19.6480   69.8440  -53.0400 C.2   337  HIS337      0.2621
    106  O        -20.4190   69.4110  -52.1820 O.2   337  HIS337     -0.2715
    107  CB       -18.7730   67.7300  -54.1490 C.3   337  HIS337      0.0785
    108  CG       -18.9570   66.7570  -55.2710 C.ar  337  HIS337      0.0821
    109  ND1      -18.3050   66.9170  -56.4790 N.ar  337  HIS337     -0.2267
    110  CD2      -19.6790   65.6170  -55.3130 C.ar  337  HIS337      0.1154
    111  CE1      -18.6670   65.8870  -57.2210 C.ar  337  HIS337      0.1986
    112  NE2      -19.4830   65.0740  -56.5600 N.ar  337  HIS337     -0.2212
    113  N        -18.9530   70.9760  -52.8990 N.am  338  GLY338     -0.1940
    114  CA       -18.9980   71.7930  -51.6920 C.3   338  GLY338      0.2014
    115  C        -18.2830   71.1210  -50.5370 C.2   338  GLY338      0.2639
    116  O        -17.2700   70.4460  -50.7510 O.2   338  GLY338     -0.2714
    117  N        -18.8130   71.2810  -49.3020 N.am  339  ALA339     -0.1963
    118  CA       -18.2370   70.6620  -48.0920 C.3   339  ALA339      0.1728
    119  C        -18.2310   69.1460  -48.2070 C.2   339  ALA339      0.2616
    120  O        -17.3400   68.4940  -47.6680 O.2   339  ALA339     -0.2715
    121  CB       -19.0200   71.0740  -46.8640 C.3   339  ALA339      0.0334
    122  N        -19.2190   68.5960  -48.9390 N.am  340  TYR340     -0.1974
    123  CA       -19.3980   67.1790  -49.2290 C.3   340  TYR340      0.1639
    124  C        -18.1510   66.5870  -49.9090 C.2   340  TYR340      0.2290
    125  O        -17.7440   65.4770  -49.5620 O.2   340  TYR340     -0.2864
    126  CB       -20.6880   66.9810  -50.0560 C.3   340  TYR340      0.0560
    127  CG       -20.9570   65.5670  -50.5270 C.ar  340  TYR340     -0.0198
    128  CD1      -21.1380   64.5270  -49.6180 C.ar  340  TYR340     -0.0009
    129  CD2      -21.0800   65.2760  -51.8820 C.ar  340  TYR340     -0.0009
    130  CE1      -21.3870   63.2220  -50.0490 C.ar  340  TYR340      0.0417
    131  CE2      -21.3230   63.9770  -52.3240 C.ar  340  TYR340      0.0417
    132  CZ       -21.4790   62.9530  -51.4040 C.ar  340  TYR340      0.1957
    133  OH       -21.7420   61.6740  -51.8320 O.3   340  TYR340     -0.2866
    134  N        -15.1230   67.4880  -49.4280 N.3   342  TYR342     -0.1227
    135  CA       -14.0110   67.5930  -48.4690 C.3   342  TYR342      0.1736
    136  C        -13.9780   66.4080  -47.4680 C.2   342  TYR342      0.2595
    137  O        -12.9980   66.2380  -46.7320 O.2   342  TYR342     -0.2718
    138  CB       -14.1060   68.9550  -47.7310 C.3   342  TYR342      0.0548
    139  CG       -12.8990   69.3480  -46.9150 C.ar  342  TYR342     -0.0200
    140  CD1      -11.7430   69.8230  -47.5270 C.ar  342  TYR342     -0.0009
    141  CD2      -12.9210   69.2810  -45.5230 C.ar  342  TYR342     -0.0009
    142  CE1      -10.6250   70.1930  -46.7780 C.ar  342  TYR342      0.0417
    143  CE2      -11.8070   69.6370  -44.7620 C.ar  342  TYR342      0.0417
    144  CZ       -10.6620   70.0980  -45.3940 C.ar  342  TYR342      0.1957
    145  OH        -9.5840   70.4780  -44.6360 O.3   342  TYR342     -0.2866
    146  N        -15.0390   65.5830  -47.4650 N.am  343  LEU343     -0.1980
    147  CA       -15.1730   64.4320  -46.5750 C.3   343  LEU343      0.1596
    148  C        -14.4150   63.2250  -47.0930 C.2   343  LEU343      0.2287
    149  O        -14.4070   63.0010  -48.3030 O.2   343  LEU343     -0.2864
    150  CB       -16.6680   64.0920  -46.3890 C.3   343  LEU343      0.0297
    151  CG       -17.5650   65.2150  -45.8200 C.3   343  LEU343      0.0022
    152  CD1      -19.0080   64.7770  -45.7350 C.3   343  LEU343      0.0001
    153  CD2      -17.0990   65.6610  -44.4330 C.3   343  LEU343      0.0001
@<TRIPOS>BOND
     1    80    79    2
     2    79    78    1
     3    77    78    1
     4    78    81    1
     5    73    72    2
     6    53    54    2
     7    53    52    1
     8    72    71    1
     9    62    63    1
    10    51    52    1
    11    81    82    1
    12    52    55    1
    13    63    64    1
    14    63    66    1
    15    64    65    2
    16    64    70   am
    17    70    71    1
    18    82    83    1
    19    71    74    1
    20    69    67    1
    21   102   100    1
    22    74    75    1
    23    74    76    1
    24    46    45    2
    25    55    56    1
    26    67    66    1
    27    67    68    1
    28    45    44    1
    29     1     2    1
    30    83    84    1
    31   100    99    1
    32    56    57   ar
    33    56    58   ar
    34    57    59   ar
    35     3     2    1
    36     3     4    2
    37    43    44    1
    38     2     5    1
    39    44    47    1
    40    85    84    1
    41   101    99    1
    42    58    60   ar
    43    59    61   ar
    44    99    96    1
    45     5     6    1
    46    48    47    1
    47    48    50    1
    48    60    61   ar
    49    47    49    1
    50    93    92   ar
    51    16    15    2
    52    13    14    1
    53    96    95    1
    54    96    97    1
    55   111   112   ar
    56   111   109   ar
    57     6     8   ar
    58     6     7   ar
    59    95    88   am
    60    15    14    1
    61    92    94   ar
    62    92    91    1
    63    35    34    2
    64   112   110   ar
    65   109   108   ar
    66     8    10   ar
    67    14    17    1
    68    97    98    2
    69    97   103   am
    70    90    91    1
    71    90    87    1
    72    26    25    2
    73     7     9   ar
    74    17    18    1
    75    88    87    1
    76    88    89    2
    77    34    33    1
    78   103   104    1
    79    86    87    1
    80   110   108   ar
    81   108   107    1
    82    23    24    1
    83    10    11   ar
    84    36    33    1
    85    36    37    1
    86    25    24    1
    87    25    32   am
    88    33    32    1
    89     9    11   ar
    90   104   107    1
    91   104   105    1
    92    18    20   ar
    93    18    19   ar
    94    24    27    1
    95    11    12    1
    96    39    37   ar
    97    39    41   ar
    98    37    38   ar
    99    27    28    1
   100    20    22   ar
   101    19    21   ar
   102    41    42   ar
   103    38    40   ar
   104   105   113   am
   105   105   106    2
   106   113   114    1
   107    22    21   ar
   108    28    29    1
   109   131   129   ar
   110   131   132   ar
   111    42    40   ar
   112   129   127   ar
   113   133   132    1
   114    31    29   am
   115   114   115    1
   116   132   130   ar
   117    29    30    2
   118   116   115    2
   119   115   117   am
   120   127   126    1
   121   127   128   ar
   122   126   123    1
   123   130   128   ar
   124   124   125    2
   125   124   123    1
   126   134   135    1
   127   117   118    1
   128   123   122    1
   129   122   119   am
   130   135   138    1
   131   135   136    1
   132   149   148    2
   133   119   118    1
   134   119   120    2
   135   118   121    1
   136   138   139    1
   137   140   139   ar
   138   140   142   ar
   139   136   146   am
   140   136   137    2
   141   146   147    1
   142   148   147    1
   143   139   141   ar
   144   142   144   ar
   145   147   150    1
   146   150   151    1
   147   151   152    1
   148   151   153    1
   149   141   143   ar
   150   144   143   ar
   151   144   145    1
