@<TRIPOS>MOLECULE
tmp/4irqC00.pdb
 168 165 0 0 0
SMALL
GASTEIGER

@<TRIPOS>ATOM
      1  N         21.6140    1.9920    2.1510 N.3    22  PRO22      -0.2102
      2  CA        21.4100    0.5990    2.5870 C.3    22  PRO22       0.1504
      3  C         22.2710   -0.3090    1.7250 C.2    22  PRO22       0.2576
      4  O         22.2470   -0.1980    0.4950 O.2    22  PRO22      -0.2718
      5  CB        19.9210    0.3420    2.3170 C.3    22  PRO22       0.0282
      6  CG        19.5200    1.3660    1.3050 C.3    22  PRO22       0.0208
      7  CD        20.4210    2.5620    1.5040 C.3    22  PRO22       0.0893
      8  N         23.0470   -1.1790    2.3530 N.am   23  PHE23      -0.1963
      9  CA        24.0340   -1.9110    1.5920 C.3    23  PHE23       0.1771
     10  C         24.2370   -3.3680    2.0190 C.2    23  PHE23       0.2619
     11  O         24.3870   -3.6790    3.1970 O.2    23  PHE23      -0.2715
     12  CB        25.3680   -1.1550    1.6100 C.3    23  PHE23       0.0574
     13  CG        26.3960   -1.7020    0.6380 C.ar   23  PHE23      -0.0200
     14  CD1       26.3850   -1.3050   -0.6960 C.ar   23  PHE23      -0.0042
     15  CD2       27.3720   -2.6160    1.0600 C.ar   23  PHE23      -0.0042
     16  CE1       27.3270   -1.8030   -1.5950 C.ar   23  PHE23      -0.0003
     17  CE2       28.3110   -3.1130    0.1720 C.ar   23  PHE23      -0.0003
     18  CZ        28.2910   -2.6980   -1.1590 C.ar   23  PHE23      -0.0000
     19  N         24.2260   -4.2580    1.0370 N.am   24  ARG24      -0.1977
     20  CA        24.7890   -5.5920    1.2090 C.3    24  ARG24       0.1597
     21  C         25.1420   -6.1410   -0.1480 C.2    24  ARG24       0.2287
     22  O         24.2750   -6.2810   -1.0060 O.2    24  ARG24      -0.2864
     23  CB        23.8350   -6.5690    1.8900 C.3    24  ARG24       0.0334
     24  CG        24.3940   -8.0150    1.9000 C.3    24  ARG24       0.0492
     25  CD        23.3400   -9.0330    2.3330 C.3    24  ARG24       0.2205
     26  NE        23.2750   -9.1360    3.7860 N.pl3  24  ARG24      -0.0865
     27  CZ        22.2340   -9.6100    4.4570 C.cat  24  ARG24       0.5346
     28  NH1       21.1500  -10.0200    3.8150 N.pl3  24  ARG24       0.1354
     29  NH2       22.2830   -9.6730    5.7770 N.pl3  24  ARG24       0.1354
     30  N         26.7020   -5.1780   -3.0270 N.3    26  ARG26      -0.1245
     31  CA        26.5020   -4.4870   -4.2990 C.3    26  ARG26       0.1563
     32  C         27.7670   -3.7010   -4.6490 C.2    26  ARG26       0.2260
     33  O         27.7160   -2.5150   -4.9640 O.2    26  ARG26      -0.2867
     34  CB        25.2950   -3.5550   -4.2130 C.3    26  ARG26       0.0307
     35  CG        23.9900   -4.2720   -3.8740 C.3    26  ARG26       0.0489
     36  CD        23.5800   -5.2020   -4.9890 C.3    26  ARG26       0.2205
     37  NE        22.2150   -5.6960   -4.8320 N.pl3  26  ARG26      -0.0865
     38  CZ        21.8910   -6.8940   -4.3480 C.cat  26  ARG26       0.5346
     39  NH1       22.8350   -7.7470   -3.9660 N.pl3  26  ARG26       0.1354
     40  NH2       20.6180   -7.2400   -4.2640 N.pl3  26  ARG26       0.1354
     41  N         17.7140   -9.1730    4.0010 N.3    61  PHE61      -0.1241
     42  CA        18.1050   -7.7820    3.8780 C.3    61  PHE61       0.1605
     43  C         17.0190   -6.8380    4.3900 C.2    61  PHE61       0.2264
     44  O         15.8680   -6.8740    3.9300 O.2    61  PHE61      -0.2867
     45  CB        18.4920   -7.4300    2.4430 C.3    61  PHE61       0.0534
     46  CG        19.0600   -6.0460    2.3050 C.ar   61  PHE61      -0.0203
     47  CD1       20.3720   -5.7850    2.6640 C.ar   61  PHE61      -0.0042
     48  CD2       18.2760   -5.0020    1.8530 C.ar   61  PHE61      -0.0042
     49  CE1       20.8930   -4.5180    2.5420 C.ar   61  PHE61      -0.0003
     50  CE2       18.7930   -3.7440    1.7360 C.ar   61  PHE61      -0.0003
     51  CZ        20.1040   -3.5010    2.0760 C.ar   61  PHE61      -0.0000
     52  N         16.2690   -3.1280    4.5610 N.3    63  ARG63      -0.1245
     53  CA        16.5700   -1.7620    4.1360 C.3    63  ARG63       0.1563
     54  C         16.1920   -0.7200    5.1960 C.2    63  ARG63       0.2260
     55  O         17.0160    0.1210    5.5560 O.2    63  ARG63      -0.2867
     56  CB        15.9090   -1.4080    2.7940 C.3    63  ARG63       0.0307
     57  CG        16.3420   -0.0190    2.3150 C.3    63  ARG63       0.0489
     58  CD        16.0240    0.2690    0.8610 C.3    63  ARG63       0.2205
     59  NE        14.7830    1.0120    0.7530 N.pl3  63  ARG63      -0.0865
     60  CZ        14.6940    2.3140    0.5210 C.cat  63  ARG63       0.5346
     61  NH1       15.7780    3.0440    0.3290 N.pl3  63  ARG63       0.1354
     62  NH2       13.5030    2.8840    0.4650 N.pl3  63  ARG63       0.1354
     63  N         19.1900    4.5050   -2.4530 N.3    85  ASP85      -0.1225
     64  CA        19.6170    3.2080   -2.9950 C.3    85  ASP85       0.1805
     65  C         20.9600    3.3350   -3.7210 C.2    85  ASP85       0.2598
     66  O         21.2330    4.3510   -4.3570 O.2    85  ASP85      -0.2718
     67  CB        18.5490    2.6130   -3.9070 C.3    85  ASP85       0.1424
     68  CG        17.3180    2.1410   -3.1390 C.2    85  ASP85       0.3668
     69  OD1       17.3610    2.0810   -1.8810 O.co2  85  ASP85      -0.2456
     70  OD2       16.3090    1.8070   -3.7970 O.co2  85  ASP85      -0.2456
     71  N         21.8060    2.3200   -3.5780 N.am   86  VAL86      -0.1966
     72  CA        23.1800    2.3600   -4.0660 C.3    86  VAL86       0.1727
     73  C         23.2620    2.2190   -5.5890 C.2    86  VAL86       0.2616
     74  O         24.3320    2.3950   -6.1750 O.2    86  VAL86      -0.2715
     75  CB        24.0120    1.2290   -3.4490 C.3    86  VAL86       0.0290
     76  CG1       23.6710   -0.0900   -4.1210 C.3    86  VAL86       0.0023
     77  CG2       25.5140    1.5230   -3.5440 C.3    86  VAL86       0.0023
     78  N         22.1320    1.9290   -6.2290 N.am   87  ASP87      -0.1971
     79  CA        22.1300    1.5930   -7.6470 C.3    87  ASP87       0.1709
     80  C         21.2640    2.5500   -8.4440 C.2    87  ASP87       0.2293
     81  O         20.9370    2.2840   -9.6020 O.2    87  ASP87      -0.2864
     82  CB        21.6260    0.1600   -7.8350 C.3    87  ASP87       0.1436
     83  CG        20.1600    0.0090   -7.4930 C.2    87  ASP87       0.3671
     84  OD1       19.5490    0.9890   -7.0040 O.co2  87  ASP87      -0.2456
     85  OD2       19.6160   -1.0980   -7.7030 O.co2  87  ASP87      -0.2456
     86  N         10.6330    7.2760  -11.8770 N.3   113  HIS113     -0.1241
     87  CA        11.2330    5.9720  -11.6180 C.3   113  HIS113      0.1621
     88  C         10.9320    5.0130  -12.7770 C.2   113  HIS113      0.2264
     89  O          9.8050    4.9540  -13.2640 O.2   113  HIS113     -0.2867
     90  CB        10.7200    5.4030  -10.2960 C.3   113  HIS113      0.0745
     91  CG        11.5220    4.2460   -9.7930 C.ar  113  HIS113      0.0817
     92  ND1       11.3610    2.9620  -10.2750 N.ar  113  HIS113     -0.2268
     93  CD2       12.5120    4.1800   -8.8720 C.ar  113  HIS113      0.1154
     94  CE1       12.2060    2.1550   -9.6620 C.ar  113  HIS113      0.1986
     95  NE2       12.9190    2.8680   -8.8080 N.ar  113  HIS113     -0.2212
     96  N          8.5970    1.6730  -10.8420 N.3   116  TYR116     -0.1241
     97  CA         7.4650    1.7850   -9.9280 C.3   116  TYR116      0.1605
     98  C          6.7360    3.0960  -10.1110 C.2   116  TYR116      0.2264
     99  O          7.3370    4.1590   -9.9750 O.2   116  TYR116     -0.2867
    100  CB         7.9450    1.6270   -8.4840 C.3   116  TYR116      0.0534
    101  CG         8.7720    0.3790   -8.2990 C.ar  116  TYR116     -0.0201
    102  CD1        8.2950   -0.8620   -8.7210 C.ar  116  TYR116     -0.0009
    103  CD2       10.0470    0.4440   -7.7640 C.ar  116  TYR116     -0.0009
    104  CE1        9.0510   -2.0070   -8.5730 C.ar  116  TYR116      0.0417
    105  CE2       10.8080   -0.6910   -7.6160 C.ar  116  TYR116      0.0417
    106  CZ        10.3060   -1.9170   -8.0270 C.ar  116  TYR116      0.1957
    107  OH        11.0700   -3.0480   -7.8720 O.3   116  TYR116     -0.2866
    108  N          4.0660    5.3630   -3.9510 N.3   121  TYR121     -0.1241
    109  CA         5.4550    4.8960   -3.9670 C.3   121  TYR121      0.1605
    110  C          6.4240    5.9120   -3.3830 C.2   121  TYR121      0.2264
    111  O          6.5170    7.0420   -3.8650 O.2   121  TYR121     -0.2867
    112  CB         5.9090    4.4840   -5.3780 C.3   121  TYR121      0.0534
    113  CG         7.3410    4.0020   -5.4010 C.ar  121  TYR121     -0.0201
    114  CD1        7.6870    2.7630   -4.8720 C.ar  121  TYR121     -0.0009
    115  CD2        8.3510    4.7860   -5.9370 C.ar  121  TYR121     -0.0009
    116  CE1        9.0090    2.3220   -4.8750 C.ar  121  TYR121      0.0417
    117  CE2        9.6760    4.3490   -5.9550 C.ar  121  TYR121      0.0417
    118  CZ         9.9980    3.1180   -5.4200 C.ar  121  TYR121      0.1957
    119  OH        11.3090    2.6930   -5.4230 O.3   121  TYR121     -0.2866
    120  N         13.3930    4.1840   -3.0940 N.3   124  GLY124     -0.1225
    121  CA        14.4900    4.6250   -3.9390 C.3   124  GLY124      0.1811
    122  C         15.3690    5.7040   -3.3430 C.2   124  GLY124      0.2280
    123  O         16.4670    5.4300   -2.8600 O.2   124  GLY124     -0.2866
    124  N         12.7920   -8.0920    0.4960 N.3   146  TRP146     -0.1241
    125  CA        12.2630   -7.0290   -0.3470 C.3   146  TRP146      0.1605
    126  C         10.8020   -6.7340   -0.0430 C.2   146  TRP146      0.2264
    127  O         10.0540   -7.6270    0.3240 O.2   146  TRP146     -0.2867
    128  CB        12.3830   -7.4650   -1.8090 C.3   146  TRP146      0.0550
    129  CG        12.0100   -6.4010   -2.8190 C.ar  146  TRP146      0.0003
    130  CD1       12.8590   -5.5220   -3.4380 C.ar  146  TRP146      0.0946
    131  CD2       10.7010   -6.1380   -3.3520 C.ar  146  TRP146      0.0152
    132  NE1       12.1570   -4.7280   -4.3160 N.ar  146  TRP146     -0.2442
    133  CE2       10.8350   -5.0850   -4.2870 C.ar  146  TRP146      0.0810
    134  CE3        9.4330   -6.6940   -3.1360 C.ar  146  TRP146      0.0012
    135  CZ2        9.7470   -4.5670   -4.9980 C.ar  146  TRP146      0.0191
    136  CZ3        8.3500   -6.1720   -3.8260 C.ar  146  TRP146      0.0001
    137  CH2        8.5160   -5.1110   -4.7520 C.ar  146  TRP146      0.0015
    138  N         19.3220    3.2390  -13.3850 N.3   179  HIS179     -0.1241
    139  CA        19.0830    2.1430  -12.4690 C.3   179  HIS179      0.1621
    140  C         20.0060    0.9780  -12.8170 C.2   179  HIS179      0.2264
    141  O         19.6940    0.1580  -13.6740 O.2   179  HIS179     -0.2867
    142  CB        17.6170    1.7150  -12.5160 C.3   179  HIS179      0.0745
    143  CG        17.2220    0.8080  -11.3920 C.ar  179  HIS179      0.0817
    144  ND1       16.1150   -0.0060  -11.4480 N.ar  179  HIS179     -0.2268
    145  CD2       17.7870    0.5910  -10.1830 C.ar  179  HIS179      0.1154
    146  CE1       16.0170   -0.6920  -10.3230 C.ar  179  HIS179      0.1986
    147  NE2       17.0190   -0.3420   -9.5360 N.ar  179  HIS179     -0.2212
    148  N         20.7760   -2.1060  -12.2420 N.3   181  HIS181     -0.1241
    149  CA        20.2090   -3.2470  -11.5400 C.3   181  HIS181      0.1621
    150  C         19.7780   -4.3090  -12.5110 C.2   181  HIS181      0.2264
    151  O         18.6500   -4.2970  -12.9800 O.2   181  HIS181     -0.2867
    152  CB        19.0190   -2.8170  -10.6600 C.3   181  HIS181      0.0745
    153  CG        18.5030   -3.8980   -9.7480 C.ar  181  HIS181      0.0817
    154  ND1       17.8290   -3.6240   -8.5770 N.ar  181  HIS181     -0.2268
    155  CD2       18.5500   -5.2510   -9.8420 C.ar  181  HIS181      0.1154
    156  CE1       17.4990   -4.7550   -7.9800 C.ar  181  HIS181      0.1986
    157  NE2       17.9230   -5.7580   -8.7280 N.ar  181  HIS181     -0.2212
    158  N         15.7740  -10.0590   -6.5440 N.3   188  ARG188     -0.1245
    159  CA        15.0550   -9.5350   -5.4000 C.3   188  ARG188      0.1563
    160  C         14.5140  -10.6640   -4.5420 C.2   188  ARG188      0.2260
    161  O         13.9160  -11.6140   -5.0490 O.2   188  ARG188     -0.2867
    162  CB        13.9150   -8.6350   -5.8510 C.3   188  ARG188      0.0307
    163  CG        14.3920   -7.3700   -6.4960 C.3   188  ARG188      0.0489
    164  CD        13.2700   -6.7090   -7.2340 C.3   188  ARG188      0.2205
    165  NE        13.6980   -5.4260   -7.7580 N.pl3 188  ARG188     -0.0865
    166  CZ        14.2360   -5.2510   -8.9610 C.cat 188  ARG188      0.5346
    167  NH1       14.4030   -6.2920   -9.7700 N.pl3 188  ARG188      0.1354
    168  NH2       14.6020   -4.0310   -9.3510 N.pl3 188  ARG188      0.1354
@<TRIPOS>BOND
     1   141   140    2
     2   138   139    1
     3    89    88    2
     4   151   150    2
     5   140   139    1
     6    88    87    1
     7   142   139    1
     8   142   143    1
     9   150   149    1
    10   148   149    1
    11    86    87    1
    12    87    90    1
    13   149   152    1
    14   144   143   ar
    15   144   146   ar
    16   143   145   ar
    17    96    97    1
    18   152   153    1
    19   146   147   ar
    20    90    91    1
    21    92    91   ar
    22    92    94   ar
    23   145   147   ar
    24    98    99    2
    25    98    97    1
    26    97   100    1
    27   155   153   ar
    28   155   157   ar
    29    91    93   ar
    30   167   166    1
    31   153   154   ar
    32    94    95   ar
    33    81    80    2
    34   168   166    1
    35   166   165    2
    36    93    95   ar
    37   157   156   ar
    38   102   104   ar
    39   102   101   ar
    40   154   156   ar
    41   104   106   ar
    42   100   101    1
    43    80    79    1
    44   101   103   ar
    45   106   107    1
    46   106   105   ar
    47    82    79    1
    48    82    83    1
    49   103   105   ar
    50   165   164    1
    51    85    83   ar
    52    79    78    1
    53    83    84   ar
    54   164   163    1
    55   158   159    1
    56   163   162    1
    57    78    73   am
    58    74    73    2
    59   117   115   ar
    60   117   118   ar
    61   115   113   ar
    62   162   159    1
    63    73    72    1
    64   119   118    1
    65   118   116   ar
    66   113   112    1
    67   113   114   ar
    68   159   160    1
    69   112   109    1
    70   161   160    2
    71   135   137   ar
    72   135   133   ar
    73    36    37    1
    74    36    35    1
    75    33    32    2
    76   116   114   ar
    77    37    38    2
    78   137   136   ar
    79    32    31    1
    80    66    65    2
    81    38    40    1
    82    38    39    1
    83   132   133   ar
    84   132   130   ar
    85    31    34    1
    86    31    30    1
    87   133   131   ar
    88    34    35    1
    89    76    75    1
    90    72    71    1
    91    72    75    1
    92   109   108    1
    93   109   110    1
    94   121   122    1
    95   121   120    1
    96    67    68    1
    97    67    64    1
    98   111   110    2
    99   136   134   ar
   100    70    68   ar
   101    65    71   am
   102    65    64    1
   103    77    75    1
   104   130   129   ar
   105   131   134   ar
   106   131   129   ar
   107   122   123    2
   108    68    69   ar
   109    64    63    1
   110   129   128    1
   111   128   125    1
   112    16    18   ar
   113    16    14   ar
   114    18    17   ar
   115    22    21    2
   116    14    13   ar
   117   125   126    1
   118   125   124    1
   119    21    20    1
   120   126   127    2
   121    17    15   ar
   122    61    60    1
   123    62    60    1
   124     4     3    2
   125    60    59    2
   126    13    15   ar
   127    13    12    1
   128    59    58    1
   129    58    57    1
   130    19    20    1
   131    19    10   am
   132    20    23    1
   133     6     7    1
   134     6     5    1
   135     7     1    1
   136     9    12    1
   137     9    10    1
   138     9     8    1
   139     3     8   am
   140     3     2    1
   141    50    48   ar
   142    50    51   ar
   143    48    46   ar
   144    23    24    1
   145    24    25    1
   146    10    11    2
   147    51    49   ar
   148     1     2    1
   149    46    45    1
   150    46    47   ar
   151    57    56    1
   152     5     2    1
   153    25    26    1
   154    45    42    1
   155    49    47   ar
   156    56    53    1
   157    26    27    2
   158    28    27    1
   159    42    41    1
   160    42    43    1
   161    44    43    2
   162    53    52    1
   163    53    54    1
   164    27    29    1
   165    54    55    2
