@<TRIPOS>MOLECULE
tmp/4irqC01.pdb
 118 116 0 0 0
SMALL
GASTEIGER

@<TRIPOS>ATOM
      1  N         17.7140   -9.1730    4.0010 N.3    61  PHE61      -0.1241
      2  CA        18.1050   -7.7820    3.8780 C.3    61  PHE61       0.1605
      3  C         17.0190   -6.8380    4.3900 C.2    61  PHE61       0.2264
      4  O         15.8680   -6.8740    3.9300 O.2    61  PHE61      -0.2867
      5  CB        18.4920   -7.4300    2.4430 C.3    61  PHE61       0.0534
      6  CG        19.0600   -6.0460    2.3050 C.ar   61  PHE61      -0.0203
      7  CD1       20.3720   -5.7850    2.6640 C.ar   61  PHE61      -0.0042
      8  CD2       18.2760   -5.0020    1.8530 C.ar   61  PHE61      -0.0042
      9  CE1       20.8930   -4.5180    2.5420 C.ar   61  PHE61      -0.0003
     10  CE2       18.7930   -3.7440    1.7360 C.ar   61  PHE61      -0.0003
     11  CZ        20.1040   -3.5010    2.0760 C.ar   61  PHE61      -0.0000
     12  N         16.2690   -3.1280    4.5610 N.3    63  ARG63      -0.1245
     13  CA        16.5700   -1.7620    4.1360 C.3    63  ARG63       0.1563
     14  C         16.1920   -0.7200    5.1960 C.2    63  ARG63       0.2260
     15  O         17.0160    0.1210    5.5560 O.2    63  ARG63      -0.2867
     16  CB        15.9090   -1.4080    2.7940 C.3    63  ARG63       0.0307
     17  CG        16.3420   -0.0190    2.3150 C.3    63  ARG63       0.0489
     18  CD        16.0240    0.2690    0.8610 C.3    63  ARG63       0.2205
     19  NE        14.7830    1.0120    0.7530 N.pl3  63  ARG63      -0.0865
     20  CZ        14.6940    2.3140    0.5210 C.cat  63  ARG63       0.5346
     21  NH1       15.7780    3.0440    0.3290 N.pl3  63  ARG63       0.1354
     22  NH2       13.5030    2.8840    0.4650 N.pl3  63  ARG63       0.1354
     23  N         19.1900    4.5050   -2.4530 N.3    85  ASP85      -0.1239
     24  CA        19.6170    3.2080   -2.9950 C.3    85  ASP85       0.1674
     25  C         20.9600    3.3350   -3.7210 C.2    85  ASP85       0.2266
     26  O         21.2330    4.3510   -4.3570 O.2    85  ASP85      -0.2867
     27  CB        18.5490    2.6130   -3.9070 C.3    85  ASP85       0.1410
     28  CG        17.3180    2.1410   -3.1390 C.2    85  ASP85       0.3668
     29  OD1       17.3610    2.0810   -1.8810 O.co2  85  ASP85      -0.2456
     30  OD2       16.3090    1.8070   -3.7970 O.co2  85  ASP85      -0.2456
     31  N         10.6330    7.2760  -11.8770 N.3   113  HIS113     -0.1241
     32  CA        11.2330    5.9720  -11.6180 C.3   113  HIS113      0.1621
     33  C         10.9320    5.0130  -12.7770 C.2   113  HIS113      0.2264
     34  O          9.8050    4.9540  -13.2640 O.2   113  HIS113     -0.2867
     35  CB        10.7200    5.4030  -10.2960 C.3   113  HIS113      0.0745
     36  CG        11.5220    4.2460   -9.7930 C.ar  113  HIS113      0.0817
     37  ND1       11.3610    2.9620  -10.2750 N.ar  113  HIS113     -0.2268
     38  CD2       12.5120    4.1800   -8.8720 C.ar  113  HIS113      0.1154
     39  CE1       12.2060    2.1550   -9.6620 C.ar  113  HIS113      0.1986
     40  NE2       12.9190    2.8680   -8.8080 N.ar  113  HIS113     -0.2212
     41  N          8.5970    1.6730  -10.8420 N.3   116  TYR116     -0.1241
     42  CA         7.4650    1.7850   -9.9280 C.3   116  TYR116      0.1605
     43  C          6.7360    3.0960  -10.1110 C.2   116  TYR116      0.2264
     44  O          7.3370    4.1590   -9.9750 O.2   116  TYR116     -0.2867
     45  CB         7.9450    1.6270   -8.4840 C.3   116  TYR116      0.0534
     46  CG         8.7720    0.3790   -8.2990 C.ar  116  TYR116     -0.0201
     47  CD1        8.2950   -0.8620   -8.7210 C.ar  116  TYR116     -0.0009
     48  CD2       10.0470    0.4440   -7.7640 C.ar  116  TYR116     -0.0009
     49  CE1        9.0510   -2.0070   -8.5730 C.ar  116  TYR116      0.0417
     50  CE2       10.8080   -0.6910   -7.6160 C.ar  116  TYR116      0.0417
     51  CZ        10.3060   -1.9170   -8.0270 C.ar  116  TYR116      0.1957
     52  OH        11.0700   -3.0480   -7.8720 O.3   116  TYR116     -0.2866
     53  N          4.0660    5.3630   -3.9510 N.3   121  TYR121     -0.1241
     54  CA         5.4550    4.8960   -3.9670 C.3   121  TYR121      0.1605
     55  C          6.4240    5.9120   -3.3830 C.2   121  TYR121      0.2264
     56  O          6.5170    7.0420   -3.8650 O.2   121  TYR121     -0.2867
     57  CB         5.9090    4.4840   -5.3780 C.3   121  TYR121      0.0534
     58  CG         7.3410    4.0020   -5.4010 C.ar  121  TYR121     -0.0201
     59  CD1        7.6870    2.7630   -4.8720 C.ar  121  TYR121     -0.0009
     60  CD2        8.3510    4.7860   -5.9370 C.ar  121  TYR121     -0.0009
     61  CE1        9.0090    2.3220   -4.8750 C.ar  121  TYR121      0.0417
     62  CE2        9.6760    4.3490   -5.9550 C.ar  121  TYR121      0.0417
     63  CZ         9.9980    3.1180   -5.4200 C.ar  121  TYR121      0.1957
     64  OH        11.3090    2.6930   -5.4230 O.3   121  TYR121     -0.2866
     65  N          9.8140    4.8150   -2.3320 N.3   123  GLY123     -0.1210
     66  CA        11.1070    4.1510   -2.2800 C.3   123  GLY123      0.1956
     67  C         12.2020    4.7750   -3.1350 C.2   123  GLY123      0.2612
     68  O         11.9790    5.7840   -3.8080 O.2   123  GLY123     -0.2717
     69  N         13.3930    4.1840   -3.0940 N.am  124  GLY124     -0.1956
     70  CA        14.4900    4.6250   -3.9390 C.3   124  GLY124      0.1869
     71  C         15.3690    5.7040   -3.3430 C.2   124  GLY124      0.2309
     72  O         16.4670    5.4300   -2.8600 O.2   124  GLY124     -0.2863
     73  N         12.7920   -8.0920    0.4960 N.3   146  TRP146     -0.1227
     74  CA        12.2630   -7.0290   -0.3470 C.3   146  TRP146      0.1737
     75  C         10.8020   -6.7340   -0.0430 C.2   146  TRP146      0.2596
     76  O         10.0540   -7.6270    0.3240 O.2   146  TRP146     -0.2718
     77  CB        12.3830   -7.4650   -1.8090 C.3   146  TRP146      0.0564
     78  CG        12.0100   -6.4010   -2.8190 C.ar  146  TRP146      0.0003
     79  CD1       12.8590   -5.5220   -3.4380 C.ar  146  TRP146      0.0946
     80  CD2       10.7010   -6.1380   -3.3520 C.ar  146  TRP146      0.0152
     81  NE1       12.1570   -4.7280   -4.3160 N.ar  146  TRP146     -0.2442
     82  CE2       10.8350   -5.0850   -4.2870 C.ar  146  TRP146      0.0810
     83  CE3        9.4330   -6.6940   -3.1360 C.ar  146  TRP146      0.0012
     84  CZ2        9.7470   -4.5670   -4.9980 C.ar  146  TRP146      0.0191
     85  CZ3        8.3500   -6.1720   -3.8260 C.ar  146  TRP146      0.0001
     86  CH2        8.5160   -5.1110   -4.7520 C.ar  146  TRP146      0.0015
     87  N         10.3940   -5.4800   -0.2090 N.am  147  GLY147     -0.1942
     88  CA         8.9800   -5.1390   -0.1940 C.3   147  GLY147      0.2014
     89  C          8.4220   -4.4060    1.0100 C.2   147  GLY147      0.2639
     90  O          8.8390   -4.6270    2.1360 O.2   147  GLY147     -0.2714
     91  N          7.4910   -3.4980    0.7370 N.am  148  ARG148     -0.1963
     92  CA         6.5510   -2.9700    1.7290 C.3   148  ARG148      0.1729
     93  C          7.0740   -2.0710    2.8570 C.2   148  ARG148      0.2616
     94  O          6.2780   -1.4880    3.5850 O.2   148  ARG148     -0.2715
     95  CB         5.7140   -4.1100    2.3150 C.3   148  ARG148      0.0348
     96  CG         4.8320   -4.8030    1.2940 C.3   148  ARG148      0.0492
     97  CD         3.7980   -3.8730    0.6770 C.3   148  ARG148      0.2205
     98  NE         3.0050   -3.1740    1.6900 N.pl3 148  ARG148     -0.0865
     99  CZ         1.9680   -2.3780    1.4240 C.cat 148  ARG148      0.5346
    100  NH1        1.5690   -2.1790    0.1710 N.pl3 148  ARG148      0.1354
    101  NH2        1.3170   -1.7850    2.4170 N.pl3 148  ARG148      0.1354
    102  N          8.3870   -1.9600    3.0190 N.am  149  GLU149     -0.1963
    103  CA         8.9280   -1.1010    4.0680 C.3   149  GLU149      0.1733
    104  C          8.7260    0.3870    3.7120 C.2   149  GLU149      0.2616
    105  O          8.6260    1.2430    4.5920 O.2   149  GLU149     -0.2715
    106  CB        10.4100   -1.4120    4.3170 C.3   149  GLU149      0.0429
    107  CG        11.4100   -0.5870    3.4590 C.3   149  GLU149      0.1163
    108  CD        11.4710   -1.0020    1.9820 C.2   149  GLU149      0.3649
    109  OE1       10.9180   -2.0680    1.6230 O.co2 149  GLU149     -0.2457
    110  OE2       12.0930   -0.2640    1.1790 O.co2 149  GLU149     -0.2457
    111  N          8.6600    0.6900    2.4180 N.am  150  ASP150     -0.1971
    112  CA         8.4420    2.0610    1.9700 C.3   150  ASP150      0.1709
    113  C          6.9570    2.4360    2.0230 C.2   150  ASP150      0.2293
    114  O          6.6040    3.5380    2.4390 O.2   150  ASP150     -0.2864
    115  CB         9.0360    2.2940    0.5680 C.3   150  ASP150      0.1436
    116  CG         8.8130    1.1140   -0.3680 C.2   150  ASP150      0.3671
    117  OD1        8.0030    0.2060   -0.0190 O.co2 150  ASP150     -0.2456
    118  OD2        9.4480    1.1060   -1.4560 O.co2 150  ASP150     -0.2456
@<TRIPOS>BOND
     1    34    33    2
     2    33    32    1
     3    31    32    1
     4    32    35    1
     5    41    42    1
     6    35    36    1
     7    37    36   ar
     8    37    39   ar
     9    43    44    2
    10    43    42    1
    11    42    45    1
    12    36    38   ar
    13    39    40   ar
    14    38    40   ar
    15    47    49   ar
    16    47    46   ar
    17    49    51   ar
    18    45    46    1
    19    46    48   ar
    20    51    52    1
    21    51    50   ar
    22    48    50   ar
    23    62    60   ar
    24    62    63   ar
    25    60    58   ar
    26    64    63    1
    27    63    61   ar
    28    58    57    1
    29    58    59   ar
    30    57    54    1
    31    84    86   ar
    32    84    82   ar
    33    61    59   ar
    34    86    85   ar
    35    26    25    2
    36    81    82   ar
    37    81    79   ar
    38    82    80   ar
    39    54    53    1
    40    54    55    1
    41    70    71    1
    42    70    69    1
    43    27    28    1
    44    27    24    1
    45    56    55    2
    46    85    83   ar
    47    68    67    2
    48    30    28   ar
    49    25    24    1
    50    79    78   ar
    51    80    83   ar
    52    80    78   ar
    53    71    72    2
    54    28    29   ar
    55    67    69   am
    56    67    66    1
    57    24    23    1
    58    78    77    1
    59    65    66    1
    60    77    74    1
    61   118   116   ar
    62   116   117   ar
    63   116   115    1
    64    74    75    1
    65    74    73    1
    66    87    88    1
    67    87    75   am
    68    88    89    1
    69    75    76    2
    70   100    99    1
    71    21    20    1
    72    22    20    1
    73    20    19    2
    74   115   112    1
    75    97    96    1
    76    97    98    1
    77    91    89   am
    78    91    92    1
    79    19    18    1
    80    18    17    1
    81    89    90    2
    82   110   108   ar
    83    96    95    1
    84    99    98    2
    85    99   101    1
    86   109   108   ar
    87    92    95    1
    88    92    93    1
    89    10     8   ar
    90    10    11   ar
    91     8     6   ar
    92   112   113    1
    93   112   111    1
    94   108   107    1
    95   113   114    2
    96    11     9   ar
    97     6     5    1
    98     6     7   ar
    99    17    16    1
   100   111   104   am
   101     5     2    1
   102     9     7   ar
   103    16    13    1
   104    93   102   am
   105    93    94    2
   106   102   103    1
   107   107   106    1
   108   104   103    1
   109   104   105    2
   110     2     1    1
   111     2     3    1
   112     4     3    2
   113   103   106    1
   114    13    12    1
   115    13    14    1
   116    14    15    2
