@<TRIPOS>MOLECULE
tmp/4irrA00.pdb
 130 125 0 0 0
SMALL
GASTEIGER

@<TRIPOS>ATOM
      1  N        -52.3000   19.2510  -17.7200 N.3    28  ASP28      -0.1225
      2  CA       -53.5300   19.8360  -18.2730 C.3    28  ASP28       0.1805
      3  C        -54.3890   20.6150  -17.2630 C.2    28  ASP28       0.2597
      4  O        -53.9170   20.9750  -16.1800 O.2    28  ASP28      -0.2718
      5  CB       -54.3610   18.7480  -18.9850 C.3    28  ASP28       0.1424
      6  CG       -54.9050   17.6780  -18.0280 C.2    28  ASP28       0.3668
      7  OD1      -54.3750   17.5300  -16.9060 O.co2  28  ASP28      -0.2456
      8  OD2      -55.8690   16.9750  -18.4070 O.co2  28  ASP28      -0.2456
      9  N        -55.6430   20.8720  -17.6480 N.am   29  ARG29      -0.1979
     10  CA       -56.6430   21.5610  -16.8190 C.3    29  ARG29       0.1597
     11  C        -56.9650   20.7990  -15.5240 C.2    29  ARG29       0.2287
     12  O        -57.1850   21.4150  -14.4750 O.2    29  ARG29      -0.2864
     13  CB       -57.9200   21.8050  -17.6440 C.3    29  ARG29       0.0334
     14  CG       -59.1630   22.2010  -16.8540 C.3    29  ARG29       0.0492
     15  CD       -60.4380   21.6640  -17.4980 C.3    29  ARG29       0.2205
     16  NE       -60.3060   20.2640  -17.9140 N.pl3  29  ARG29      -0.0865
     17  CZ       -61.2950   19.3720  -17.9220 C.cat  29  ARG29       0.5346
     18  NH1      -62.5140   19.7050  -17.5180 N.pl3  29  ARG29       0.1354
     19  NH2      -61.0580   18.1320  -18.3230 N.pl3  29  ARG29       0.1354
     20  N        -74.9910   18.4570  -26.7110 N.3   115  TYR115     -0.1241
     21  CA       -75.1030   17.7670  -28.0050 C.3   115  TYR115      0.1605
     22  C        -76.5050   17.6170  -28.5870 C.2   115  TYR115      0.2264
     23  O        -76.8150   18.1670  -29.6550 O.2   115  TYR115     -0.2867
     24  CB       -74.4910   16.3730  -27.8950 C.3   115  TYR115      0.0534
     25  CG       -73.0400   16.3380  -27.5060 C.ar  115  TYR115     -0.0201
     26  CD1      -72.0410   16.6050  -28.4400 C.ar  115  TYR115     -0.0009
     27  CD2      -72.6660   15.9990  -26.2130 C.ar  115  TYR115     -0.0009
     28  CE1      -70.7020   16.5510  -28.0830 C.ar  115  TYR115      0.0417
     29  CE2      -71.3300   15.9370  -25.8440 C.ar  115  TYR115      0.0417
     30  CZ       -70.3560   16.2120  -26.7790 C.ar  115  TYR115      0.1957
     31  OH       -69.0360   16.1570  -26.4030 O.3   115  TYR115     -0.2866
     32  N        -70.5270   20.8830  -19.8760 N.3   172  LEU172     -0.1231
     33  CA       -69.2080   20.6610  -20.4790 C.3   172  LEU172      0.1678
     34  C        -69.2700   21.1160  -21.9350 C.2   172  LEU172      0.2434
     35  O        -70.3090   20.9790  -22.5740 O.2   172  LEU172     -0.2733
     36  CB       -68.8090   19.1760  -20.4330 C.3   172  LEU172      0.0284
     37  CG       -68.5770   18.4410  -19.1020 C.3   172  LEU172      0.0019
     38  CD1      -68.4640   16.9400  -19.3350 C.3   172  LEU172      0.0001
     39  CD2      -67.3520   18.9620  -18.3570 C.3   172  LEU172      0.0001
     40  N        -68.1640   21.6650  -22.4690 N.am  173  PRO173     -0.2729
     41  CA       -68.1720   22.0180  -23.8910 C.3   173  PRO173      0.1401
     42  C        -68.1170   20.7460  -24.7560 C.2   173  PRO173      0.2269
     43  O        -67.5920   19.7260  -24.3020 O.2   173  PRO173     -0.2865
     44  CB       -66.9000   22.8570  -24.0470 C.3   173  PRO173      0.0296
     45  CG       -65.9860   22.3390  -22.9900 C.3   173  PRO173      0.0237
     46  CD       -66.8620   21.9460  -21.8330 C.3   173  PRO173      0.0939
     47  N        -67.1050   17.7360  -26.9780 N.3   175  CYS175     -0.1221
     48  CA       -65.8220   17.1340  -27.2330 C.3   175  CYS175      0.1808
     49  C        -65.7340   16.6220  -28.6730 C.2   175  CYS175      0.2601
     50  O        -64.7490   16.8630  -29.3680 O.2   175  CYS175     -0.2717
     51  CB       -65.5870   16.0110  -26.2470 C.3   175  CYS175      0.0970
     52  SG       -63.8550   15.5560  -26.1600 S.3   175  CYS175     -0.0800
     53  N        -66.7580   15.8920  -29.1030 N.am  176  HIS176     -0.1975
     54  CA       -66.9240   15.5870  -30.5100 C.3   176  HIS176      0.1656
     55  C        -67.6930   16.7370  -31.0880 C.2   176  HIS176      0.2291
     56  O        -68.9290   16.8090  -30.9770 O.2   176  HIS176     -0.2864
     57  CB       -67.5830   14.2180  -30.7500 C.3   176  HIS176      0.0771
     58  CG       -68.6730   13.8450  -29.7560 C.ar  176  HIS176      0.0820
     59  ND1      -69.9830   13.7810  -30.0990 N.ar  176  HIS176     -0.2267
     60  CD2      -68.6030   13.4620  -28.4140 C.ar  176  HIS176      0.1154
     61  CE1      -70.7130   13.3980  -29.0290 C.ar  176  HIS176      0.1986
     62  NE2      -69.8710   13.2040  -27.9980 N.ar  176  HIS176     -0.2212
     63  N        -62.7580   15.5650  -33.4470 N.3   194  GLN194     -0.1231
     64  CA       -62.7320   15.5420  -31.9850 C.3   194  GLN194      0.1698
     65  C        -61.5820   16.4160  -31.4910 C.2   194  GLN194      0.2592
     66  O        -60.4090   16.1360  -31.7780 O.2   194  GLN194     -0.2718
     67  CB       -62.6030   14.1060  -31.4710 C.3   194  GLN194      0.0381
     68  CG       -62.7230   13.9620  -29.9610 C.3   194  GLN194      0.0905
     69  CD       -62.7720   12.5080  -29.5020 C.2   194  GLN194      0.2608
     70  OE1      -63.1200   11.6130  -30.2720 O.2   194  GLN194     -0.2717
     71  NE2      -62.4340   12.2710  -28.2320 N.am  194  GLN194     -0.0878
     72  N        -61.9290   17.4780  -30.7650 N.am  195  ARG195     -0.1966
     73  CA       -60.9640   18.4980  -30.3370 C.3   195  ARG195      0.1729
     74  C        -59.9840   17.9630  -29.2990 C.2   195  ARG195      0.2616
     75  O        -58.8660   18.4830  -29.1430 O.2   195  ARG195     -0.2715
     76  CB       -61.6890   19.7250  -29.7660 C.3   195  ARG195      0.0348
     77  CG       -62.5230   19.4220  -28.5240 C.3   195  ARG195      0.0492
     78  CD       -62.9580   20.6650  -27.7540 C.3   195  ARG195      0.2205
     79  NE       -63.7420   20.2810  -26.5830 N.pl3 195  ARG195     -0.0865
     80  CZ       -63.2240   19.9160  -25.4100 C.cat 195  ARG195      0.5346
     81  NH1      -61.9110   19.9020  -25.2190 N.pl3 195  ARG195      0.1354
     82  NH2      -64.0330   19.5720  -24.4200 N.pl3 195  ARG195      0.1354
     83  N        -60.4130   16.9240  -28.5910 N.am  196  SER196     -0.1950
     84  CA       -59.6700   16.4190  -27.4610 C.3   196  SER196      0.1924
     85  C        -60.0250   14.9690  -27.2390 C.2   196  SER196      0.2314
     86  O        -61.2030   14.6180  -27.1390 O.2   196  SER196     -0.2863
     87  CB       -60.0130   17.2390  -26.2240 C.3   196  SER196      0.2116
     88  OG       -59.3900   16.7180  -25.0690 O.3   196  SER196     -0.2180
     89  N        -58.9960   11.3010  -25.0960 N.3   198  ASP198     -0.1239
     90  CA       -58.3150   10.3770  -24.2120 C.3   198  ASP198      0.1674
     91  C        -58.2780    9.0110  -24.8960 C.2   198  ASP198      0.2266
     92  O        -59.3090    8.3420  -25.0270 O.2   198  ASP198     -0.2867
     93  CB       -59.0640   10.3090  -22.8820 C.3   198  ASP198      0.1410
     94  CG       -58.5660    9.2010  -21.9670 C.2   198  ASP198      0.3668
     95  OD1      -57.4710    8.6350  -22.1780 O.co2 198  ASP198     -0.2456
     96  OD2      -59.2940    8.9020  -21.0020 O.co2 198  ASP198     -0.2456
     97  N        -61.7470    7.6570  -23.5020 N.3   202  GLY202     -0.1225
     98  CA       -62.7000    8.4330  -24.2880 C.3   202  GLY202      0.1811
     99  C        -62.8230    8.0020  -25.7410 C.2   202  GLY202      0.2280
    100  O        -63.9150    7.6650  -26.2140 O.2   202  GLY202     -0.2866
    101  N        -66.0110    7.1250  -28.3120 N.3   206  ASN206     -0.1240
    102  CA       -66.3850    8.0180  -29.4170 C.3   206  ASN206      0.1653
    103  C        -66.3820    7.2970  -30.7620 C.2   206  ASN206      0.2266
    104  O        -67.2310    7.5700  -31.6100 O.2   206  ASN206     -0.2867
    105  CB       -65.4680    9.2470  -29.4840 C.3   206  ASN206      0.1155
    106  CG       -65.4720   10.0590  -28.2010 C.2   206  ASN206      0.2627
    107  OD1      -64.4550   10.1470  -27.5090 O.2   206  ASN206     -0.2716
    108  ND2      -66.6150   10.6560  -27.8770 N.am  206  ASN206     -0.0877
    109  N        -54.3130   12.4320  -26.6120 N.3   236  HIS236     -0.1241
    110  CA       -53.5210   12.2370  -25.4030 C.3   236  HIS236      0.1621
    111  C        -53.7530   10.9660  -24.6400 C.2   236  HIS236      0.2264
    112  O        -54.8200   10.3440  -24.7000 O.2   236  HIS236     -0.2867
    113  CB       -53.6570   13.4450  -24.4710 C.3   236  HIS236      0.0745
    114  CG       -55.0740   13.7230  -24.0370 C.ar  236  HIS236      0.0817
    115  ND1      -55.8700   14.6070  -24.6770 N.ar  236  HIS236     -0.2268
    116  CD2      -55.8320   13.1910  -23.0010 C.ar  236  HIS236      0.1154
    117  CE1      -57.0750   14.6420  -24.0780 C.ar  236  HIS236      0.1986
    118  NE2      -57.0540   13.7740  -23.0530 N.ar  236  HIS236     -0.2212
    119  N        -53.2640    9.7500  -20.6160 N.3   238  TYR238     -0.1241
    120  CA       -52.9640   10.1380  -19.2260 C.3   238  TYR238      0.1605
    121  C        -51.7620    9.3610  -18.6950 C.2   238  TYR238      0.2264
    122  O        -51.7080    8.1410  -18.8090 O.2   238  TYR238     -0.2867
    123  CB       -54.1970    9.9880  -18.3220 C.3   238  TYR238      0.0534
    124  CG       -55.1760   11.1140  -18.5260 C.ar  238  TYR238     -0.0201
    125  CD1      -55.0040   12.3330  -17.8740 C.ar  238  TYR238     -0.0009
    126  CD2      -56.2490   10.9840  -19.4100 C.ar  238  TYR238     -0.0009
    127  CE1      -55.8820   13.3890  -18.0790 C.ar  238  TYR238      0.0417
    128  CE2      -57.1370   12.0330  -19.6210 C.ar  238  TYR238      0.0417
    129  CZ       -56.9470   13.2360  -18.9530 C.ar  238  TYR238      0.1957
    130  OH       -57.8170   14.2940  -19.1540 O.3   238  TYR238     -0.2866
@<TRIPOS>BOND
     1    63    64    1
     2    64    65    1
     3    64    67    1
     4    66    65    2
     5   104   103    2
     6    65    72   am
     7    67    68    1
     8    55    56    2
     9    55    54    1
    10    72    73    1
    11   103   102    1
    12    57    54    1
    13    57    58    1
    14    54    53    1
    15    73    76    1
    16    73    74    1
    17    70    69    2
    18    59    58   ar
    19    59    61   ar
    20    68    69    1
    21    76    77    1
    22    58    60   ar
    23    23    22    2
    24    69    71   am
    25   105   102    1
    26   105   106    1
    27   102   101    1
    28    50    49    2
    29    74    75    2
    30    74    83   am
    31    53    49   am
    32    61    62   ar
    33    49    48    1
    34    83    84    1
    35    22    21    1
    36    77    78    1
    37    26    28   ar
    38    26    25   ar
    39    60    62   ar
    40   106   108   am
    41   106   107    2
    42    28    30   ar
    43    21    24    1
    44    21    20    1
    45    24    25    1
    46    78    79    1
    47    25    27   ar
    48    84    85    1
    49    84    87    1
    50    85    86    2
    51    48    47    1
    52    48    51    1
    53    30    31    1
    54    30    29   ar
    55   109   110    1
    56    79    80    2
    57    51    52    1
    58    87    88    1
    59   100    99    2
    60    27    29   ar
    61    99    98    1
    62    80    81    1
    63    80    82    1
    64   110   111    1
    65   110   113    1
    66    89    90    1
    67    92    91    2
    68    91    90    1
    69    42    43    2
    70    42    41    1
    71   112   111    2
    72   115   117   ar
    73   115   114   ar
    74   113   114    1
    75    98    97    1
    76    90    93    1
    77   117   118   ar
    78    44    41    1
    79    44    45    1
    80   114   116   ar
    81    41    40    1
    82   118   116   ar
    83    45    46    1
    84    93    94    1
    85    35    34    2
    86    40    34   am
    87    40    46    1
    88    95    94   ar
    89    94    96   ar
    90    34    33    1
    91   119   120    1
    92    33    36    1
    93    33    32    1
    94    36    37    1
    95   128   126   ar
    96   128   129   ar
    97   126   124   ar
    98    38    37    1
    99   120   121    1
   100   120   123    1
   101   130   129    1
   102    37    39    1
   103     5     2    1
   104     5     6    1
   105   129   127   ar
   106   122   121    2
   107   124   123    1
   108   124   125   ar
   109     8     6   ar
   110    19    17    1
   111     2     1    1
   112     2     3    1
   113   127   125   ar
   114     6     7   ar
   115    17    16    2
   116    17    18    1
   117    16    15    1
   118     9     3   am
   119     9    10    1
   120    13    14    1
   121    13    10    1
   122    15    14    1
   123     3     4    2
   124    10    11    1
   125    11    12    2
