@<TRIPOS>MOLECULE
tmp/4irrB01.pdb
 107 106 0 0 0
SMALL
GASTEIGER

@<TRIPOS>ATOM
      1  N        -51.7990   32.9720  -55.0390 N.3    60  TYR60      -0.1241
      2  CA       -52.0650   34.4070  -55.0930 C.3    60  TYR60       0.1605
      3  C        -51.9250   35.0420  -53.7010 C.2    60  TYR60       0.2264
      4  O        -52.9090   35.2430  -52.9830 O.2    60  TYR60      -0.2867
      5  CB       -53.4500   34.6240  -55.7180 C.3    60  TYR60       0.0534
      6  CG       -53.9370   36.0550  -55.8660 C.ar   60  TYR60      -0.0201
      7  CD1      -53.0480   37.1240  -56.0370 C.ar   60  TYR60      -0.0009
      8  CD2      -55.3100   36.3280  -55.8670 C.ar   60  TYR60      -0.0009
      9  CE1      -53.5140   38.4240  -56.1830 C.ar   60  TYR60       0.0417
     10  CE2      -55.7900   37.6180  -56.0170 C.ar   60  TYR60       0.0417
     11  CZ       -54.8930   38.6690  -56.1810 C.ar   60  TYR60       0.1957
     12  OH       -55.3850   39.9580  -56.3330 O.3    60  TYR60      -0.2866
     13  N        -57.5950   39.0670  -48.0100 N.3    67  GLU67      -0.1245
     14  CA       -58.7940   38.3660  -47.5530 C.3    67  GLU67       0.1567
     15  C        -58.7320   38.0530  -46.0630 C.2    67  GLU67       0.2260
     16  O        -59.7290   38.1940  -45.3610 O.2    67  GLU67      -0.2867
     17  CB       -59.0330   37.0730  -48.3310 C.3    67  GLU67       0.0388
     18  CG       -60.3700   36.4330  -47.9950 C.3    67  GLU67       0.1160
     19  CD       -60.5000   35.0190  -48.5060 C.2    67  GLU67       0.3649
     20  OE1      -59.5830   34.2120  -48.2500 O.co2  67  GLU67      -0.2457
     21  OE2      -61.5280   34.7120  -49.1500 O.co2  67  GLU67      -0.2457
     22  N        -61.2980   39.2620  -43.3500 N.3    71  PHE71      -0.1241
     23  CA       -61.9860   38.3210  -42.4590 C.3    71  PHE71       0.1605
     24  C        -61.9150   38.8260  -41.0110 C.2    71  PHE71       0.2264
     25  O        -62.9340   38.9630  -40.3280 O.2    71  PHE71      -0.2867
     26  CB       -61.3380   36.9280  -42.5110 C.3    71  PHE71       0.0534
     27  CG       -61.7140   36.0910  -43.7090 C.ar   71  PHE71      -0.0203
     28  CD1      -62.8650   36.3470  -44.4510 C.ar   71  PHE71      -0.0042
     29  CD2      -60.9230   34.9950  -44.0630 C.ar   71  PHE71      -0.0042
     30  CE1      -63.2000   35.5470  -45.5350 C.ar   71  PHE71      -0.0003
     31  CE2      -61.2550   34.1990  -45.1460 C.ar   71  PHE71      -0.0003
     32  CZ       -62.3960   34.4740  -45.8790 C.ar   71  PHE71      -0.0000
     33  N        -61.5060   38.0830  -55.7540 N.3    88  ILE88      -0.1231
     34  CA       -61.8920   36.6740  -55.6140 C.3    88  ILE88       0.1692
     35  C        -63.3330   36.4470  -55.1490 C.2    88  ILE88       0.2592
     36  O        -63.8850   35.3700  -55.3790 O.2    88  ILE88      -0.2718
     37  CB       -60.9180   35.8970  -54.7050 C.3    88  ILE88       0.0266
     38  CG1      -60.9280   36.4670  -53.2770 C.3    88  ILE88       0.0019
     39  CG2      -59.5190   35.9070  -55.3130 C.3    88  ILE88       0.0020
     40  CD1      -60.0100   35.7470  -52.3110 C.3    88  ILE88       0.0001
     41  N        -63.9300   37.4560  -54.5110 N.am   89  TRP89      -0.1976
     42  CA       -65.3170   37.3820  -54.0400 C.3    89  TRP89       0.1640
     43  C        -66.2890   38.1570  -54.9020 C.2    89  TRP89       0.2290
     44  O        -67.5140   38.0410  -54.7310 O.2    89  TRP89      -0.2864
     45  CB       -65.4260   37.8980  -52.6130 C.3    89  TRP89       0.0576
     46  CG       -64.9960   36.9320  -51.5340 C.ar   89  TRP89       0.0006
     47  CD1      -63.7320   36.8110  -50.9570 C.ar   89  TRP89       0.0946
     48  CD2      -65.8320   35.9510  -50.8250 C.ar   89  TRP89       0.0152
     49  NE1      -63.7260   35.8480  -49.9840 N.ar   89  TRP89      -0.2442
     50  CE2      -64.9500   35.2900  -49.8500 C.ar   89  TRP89       0.0810
     51  CE3      -67.1650   35.5620  -50.9030 C.ar   89  TRP89       0.0012
     52  CZ2      -65.4060   34.2850  -49.0030 C.ar   89  TRP89       0.0191
     53  CZ3      -67.6150   34.5490  -50.0450 C.ar   89  TRP89       0.0001
     54  CH2      -66.7540   33.9260  -49.1160 C.ar   89  TRP89       0.0015
     55  N        -67.7280   34.3030  -43.1630 N.3   115  TYR115     -0.1241
     56  CA       -66.6240   34.1460  -42.2070 C.3   115  TYR115      0.1605
     57  C        -66.4330   35.2790  -41.1920 C.2   115  TYR115      0.2264
     58  O        -66.4940   35.0420  -39.9870 O.2   115  TYR115     -0.2867
     59  CB       -65.3050   33.8860  -42.9380 C.3   115  TYR115      0.0534
     60  CG       -65.3140   32.7080  -43.8850 C.ar  115  TYR115     -0.0201
     61  CD1      -65.1280   31.4060  -43.4160 C.ar  115  TYR115     -0.0009
     62  CD2      -65.4800   32.8990  -45.2590 C.ar  115  TYR115     -0.0009
     63  CE1      -65.1200   30.3280  -44.2860 C.ar  115  TYR115      0.0417
     64  CE2      -65.4750   31.8330  -46.1380 C.ar  115  TYR115      0.0417
     65  CZ       -65.2900   30.5500  -45.6520 C.ar  115  TYR115      0.1957
     66  OH       -65.2770   29.4870  -46.5320 O.3   115  TYR115     -0.2866
     67  N        -63.5750   26.5140  -45.1210 N.3   176  HIS176     -0.1241
     68  CA       -62.7910   26.2930  -43.9220 C.3   176  HIS176      0.1621
     69  C        -63.7240   26.4930  -42.7600 C.2   176  HIS176      0.2264
     70  O        -64.0460   27.6190  -42.3820 O.2   176  HIS176     -0.2867
     71  CB       -61.5240   27.1550  -43.8670 C.3   176  HIS176      0.0745
     72  CG       -61.6930   28.5740  -44.3870 C.ar  176  HIS176      0.0817
     73  ND1      -61.6500   29.6520  -43.5800 N.ar  176  HIS176     -0.2268
     74  CD2      -61.8660   29.0620  -45.6790 C.ar  176  HIS176      0.1154
     75  CE1      -61.8020   30.7690  -44.3110 C.ar  176  HIS176      0.1986
     76  NE2      -61.9390   30.4070  -45.5950 N.ar  176  HIS176     -0.2212
     77  N        -56.2060   24.6510  -56.5620 N.3   201  LEU201     -0.1231
     78  CA       -56.3350   26.0860  -56.2760 C.3   201  LEU201      0.1693
     79  C        -56.7480   26.4050  -54.8260 C.2   201  LEU201      0.2592
     80  O        -56.0120   27.0790  -54.0980 O.2   201  LEU201     -0.2718
     81  CB       -57.2950   26.7600  -57.2740 C.3   201  LEU201      0.0284
     82  CG       -57.3020   28.3040  -57.3430 C.3   201  LEU201      0.0019
     83  CD1      -56.0300   28.8560  -57.9880 C.3   201  LEU201      0.0001
     84  CD2      -58.5410   28.8130  -58.0740 C.3   201  LEU201      0.0001
     85  N        -57.9200   25.9300  -54.4140 N.am  202  GLY202     -0.1957
     86  CA       -58.4400   26.2020  -53.0810 C.3   202  GLY202      0.1869
     87  C        -57.5020   25.8380  -51.9460 C.2   202  GLY202      0.2309
     88  O        -57.1390   26.6980  -51.1440 O.2   202  GLY202     -0.2863
     89  N        -54.3400   27.9040  -51.2400 N.3   205  PHE205     -0.1227
     90  CA       -54.7930   29.1950  -50.7440 C.3   205  PHE205      0.1736
     91  C        -55.1770   29.1130  -49.2550 C.2   205  PHE205      0.2595
     92  O        -54.7320   29.9420  -48.4610 O.2   205  PHE205     -0.2718
     93  CB       -55.9840   29.6700  -51.5870 C.3   205  PHE205      0.0547
     94  CG       -56.2980   31.1390  -51.4550 C.ar  205  PHE205     -0.0202
     95  CD1      -55.8800   32.0430  -52.4320 C.ar  205  PHE205     -0.0042
     96  CD2      -57.0230   31.6190  -50.3720 C.ar  205  PHE205     -0.0042
     97  CE1      -56.1710   33.3940  -52.3210 C.ar  205  PHE205     -0.0003
     98  CE2      -57.3170   32.9730  -50.2550 C.ar  205  PHE205     -0.0003
     99  CZ       -56.8990   33.8590  -51.2360 C.ar  205  PHE205     -0.0000
    100  N        -56.0030   28.1260  -48.8830 N.am  206  ASN206     -0.1974
    101  CA       -56.4320   27.9530  -47.4860 C.3   206  ASN206      0.1688
    102  C        -55.2270   27.6540  -46.5970 C.2   206  ASN206      0.2292
    103  O        -55.1340   28.1400  -45.4710 O.2   206  ASN206     -0.2864
    104  CB       -57.4620   26.8170  -47.3300 C.3   206  ASN206      0.1181
    105  CG       -58.7350   27.0380  -48.1360 C.2   206  ASN206      0.2629
    106  OD1      -59.0610   26.2430  -49.0300 O.2   206  ASN206     -0.2716
    107  ND2      -59.4750   28.0990  -47.8150 N.am  206  ASN206     -0.0877
@<TRIPOS>BOND
     1    84    82    1
     2    83    82    1
     3    82    81    1
     4    81    78    1
     5    77    78    1
     6    12    11    1
     7    78    79    1
     8     9    11   ar
     9     9     7   ar
    10    11    10   ar
    11     7     6   ar
    12    10     8   ar
    13     8     6   ar
    14     6     5    1
    15    33    34    1
    16     5     2    1
    17    34    35    1
    18    34    37    1
    19    36    35    2
    20    39    37    1
    21    35    41   am
    22     2     1    1
    23     2     3    1
    24    43    44    2
    25    43    42    1
    26    79    85   am
    27    79    80    2
    28    37    38    1
    29    41    42    1
    30    85    86    1
    31    42    45    1
    32     3     4    2
    33    38    40    1
    34    86    87    1
    35    45    46    1
    36    95    97   ar
    37    95    94   ar
    38    97    99   ar
    39    87    88    2
    40    93    94    1
    41    93    90    1
    42    46    47   ar
    43    46    48   ar
    44    94    96   ar
    45    89    90    1
    46    99    98   ar
    47    47    49   ar
    48    51    48   ar
    49    51    53   ar
    50    48    50   ar
    51    90    91    1
    52    96    98   ar
    53    53    54   ar
    54    49    50   ar
    55    50    52   ar
    56    91   100   am
    57    91    92    2
    58    21    19   ar
    59    54    52   ar
    60   106   105    2
    61   100   101    1
    62    19    20   ar
    63    19    18    1
    64    17    18    1
    65    17    14    1
    66   105   107   am
    67   105   104    1
    68    13    14    1
    69    14    15    1
    70   101   104    1
    71   101   102    1
    72   102   103    2
    73    66    65    1
    74    64    65   ar
    75    64    62   ar
    76    15    16    2
    77    32    30   ar
    78    32    31   ar
    79    74    76   ar
    80    74    72   ar
    81    65    63   ar
    82    76    75   ar
    83    30    28   ar
    84    62    60   ar
    85    31    29   ar
    86    67    68    1
    87    28    27   ar
    88    72    71    1
    89    72    73   ar
    90    75    73   ar
    91    63    61   ar
    92    29    27   ar
    93    68    71    1
    94    68    69    1
    95    60    61   ar
    96    60    59    1
    97    27    26    1
    98    22    23    1
    99    55    56    1
   100    59    56    1
   101    69    70    2
   102    26    23    1
   103    23    24    1
   104    56    57    1
   105    57    58    2
   106    24    25    2
