@<TRIPOS>MOLECULE
tmp/4irxB00.pdb
 114 106 0 0 0
SMALL
GASTEIGER

@<TRIPOS>ATOM
      1  N         20.4710   11.9230   19.4010 N.3    19  GLN19      -0.1245
      2  CA        20.9090   12.7430   20.5380 C.3    19  GLN19       0.1566
      3  C         19.9060   12.6460   21.6590 C.2    19  GLN19       0.2260
      4  O         18.7260   12.8930   21.4450 O.2    19  GLN19      -0.2867
      5  CB        21.0400   14.2120   20.1310 C.3    19  GLN19       0.0367
      6  CG        22.0970   14.5140   19.0830 C.3    19  GLN19       0.0905
      7  CD        22.3710   15.9980   18.9710 C.2    19  GLN19       0.2608
      8  OE1       22.0230   16.7660   19.8660 O.2    19  GLN19      -0.2717
      9  NE2       23.0070   16.4070   17.8880 N.am   19  GLN19      -0.0878
     10  N         19.1120   14.5820   24.1120 N.3    21  PHE21      -0.1227
     11  CA        18.3290   15.8020   24.3270 C.3    21  PHE21       0.1736
     12  C         17.0960   15.8050   23.4380 C.2    21  PHE21       0.2595
     13  O         15.9970   16.1360   23.8690 O.2    21  PHE21      -0.2718
     14  CB        19.2170   16.9990   24.0170 C.3    21  PHE21       0.0547
     15  CG        18.5320   18.3370   24.0830 C.ar   21  PHE21      -0.0202
     16  CD1       18.3700   18.9960   25.2880 C.ar   21  PHE21      -0.0042
     17  CD2       18.0970   18.9490   22.9240 C.ar   21  PHE21      -0.0042
     18  CE1       17.7660   20.2410   25.3340 C.ar   21  PHE21      -0.0003
     19  CE2       17.5030   20.2220   22.9510 C.ar   21  PHE21      -0.0003
     20  CZ        17.3460   20.8560   24.1640 C.ar   21  PHE21      -0.0000
     21  N         17.2840   15.3980   22.1880 N.am   22  PHE22      -0.1976
     22  CA        16.1830   15.4620   21.2170 C.3    22  PHE22       0.1639
     23  C         15.1950   14.3230   21.3160 C.2    22  PHE22       0.2290
     24  O         13.9970   14.5080   21.0640 O.2    22  PHE22      -0.2864
     25  CB        16.7330   15.6230   19.8060 C.3    22  PHE22       0.0560
     26  CG        17.3150   16.9820   19.5570 C.ar   22  PHE22      -0.0200
     27  CD1       16.4710   18.0990   19.4890 C.ar   22  PHE22      -0.0042
     28  CD2       18.6790   17.1680   19.4640 C.ar   22  PHE22      -0.0042
     29  CE1       16.9940   19.3700   19.2740 C.ar   22  PHE22      -0.0003
     30  CE2       19.2100   18.4230   19.2460 C.ar   22  PHE22      -0.0003
     31  CZ        18.3690   19.5410   19.1570 C.ar   22  PHE22      -0.0000
     32  N         15.0460   25.2200   18.8760 N.3    94  ASP94      -0.1225
     33  CA        16.3510   24.9010   19.4880 C.3    94  ASP94       0.1805
     34  C         17.5260   25.6770   18.9100 C.2    94  ASP94       0.2597
     35  O         18.3020   26.3000   19.6530 O.2    94  ASP94      -0.2718
     36  CB        16.6630   23.4020   19.4910 C.3    94  ASP94       0.1424
     37  CG        17.9780   23.1290   20.1660 C.2    94  ASP94       0.3668
     38  OD1       18.0160   23.2230   21.4170 O.co2  94  ASP94      -0.2456
     39  OD2       18.9970   22.9130   19.4770 O.co2  94  ASP94      -0.2456
     40  N         17.6710   25.6400   17.5900 N.am   95  ARG95      -0.1979
     41  CA        18.6540   26.4600   16.8940 C.3    95  ARG95       0.1597
     42  C         17.9560   27.1110   15.6920 C.2    95  ARG95       0.2287
     43  O         16.9540   26.5700   15.1850 O.2    95  ARG95      -0.2864
     44  CB        19.9080   25.6690   16.4880 C.3    95  ARG95       0.0334
     45  CG        19.7480   24.6900   15.3140 C.3    95  ARG95       0.0492
     46  CD        19.0600   23.3910   15.7110 C.3    95  ARG95       0.2205
     47  NE        19.8570   22.6410   16.6920 N.pl3  95  ARG95      -0.0865
     48  CZ        20.8540   21.8110   16.3940 C.cat  95  ARG95       0.5346
     49  NH1       21.1860   21.5660   15.1280 N.pl3  95  ARG95       0.1354
     50  NH2       21.5530   21.2410   17.3750 N.pl3  95  ARG95       0.1354
     51  N         29.3490   21.7500   21.1720 N.3   136  ASN136     -0.1225
     52  CA        28.3370   20.9340   20.5280 C.3   136  ASN136      0.1785
     53  C         28.2540   21.2300   19.0220 C.2   136  ASN136      0.2597
     54  O         28.8780   22.1750   18.5680 O.2   136  ASN136     -0.2718
     55  CB        26.9930   21.2340   21.1870 C.3   136  ASN136      0.1169
     56  CG        26.5720   22.6860   21.0020 C.2   136  ASN136      0.2627
     57  OD1       27.3270   23.6020   21.3470 O.2   136  ASN136     -0.2716
     58  ND2       25.3640   22.9100   20.4400 N.am  136  ASN136     -0.0877
     59  N         27.4580   20.4260   18.2920 N.am  137  ASP137     -0.1974
     60  CA        27.0480   20.6540   16.8770 C.3   137  ASP137      0.1709
     61  C         27.5590   21.9500   16.2190 C.2   137  ASP137      0.2293
     62  O         26.8940   22.9960   16.2970 O.2   137  ASP137     -0.2864
     63  CB        25.5030   20.6880   16.7780 C.3   137  ASP137      0.1436
     64  CG        24.8440   19.3290   16.9420 C.2   137  ASP137      0.3671
     65  OD1       25.3660   18.3070   16.4450 O.co2 137  ASP137     -0.2456
     66  OD2       23.7530   19.2570   17.5660 O.co2 137  ASP137     -0.2456
     67  N         23.0750   27.3040   18.1130 N.3   142  SER142     -0.1217
     68  CA        23.2140   27.1120   19.5680 C.3   142  SER142      0.1889
     69  C         24.6650   26.9660   19.9950 C.2   142  SER142      0.2288
     70  O         25.0570   27.5120   21.0260 O.2   142  SER142     -0.2866
     71  CB        22.3930   25.9180   20.0480 C.3   142  SER142      0.2089
     72  OG        22.8390   24.7480   19.3880 O.3   142  SER142     -0.2183
     73  N         26.3770   29.7860   22.2440 N.3   146  ARG146     -0.1245
     74  CA        26.9230   29.3310   23.5250 C.3   146  ARG146      0.1563
     75  C         28.3970   29.6440   23.6750 C.2   146  ARG146      0.2260
     76  O         28.8470   30.0930   24.7300 O.2   146  ARG146     -0.2867
     77  CB        26.7620   27.8200   23.6790 C.3   146  ARG146      0.0307
     78  CG        25.6060   27.4320   24.4940 C.3   146  ARG146      0.0489
     79  CD        25.3010   25.9410   24.3790 C.3   146  ARG146      0.2205
     80  NE        23.8650   25.8140   24.1580 N.pl3 146  ARG146     -0.0865
     81  CZ        23.2260   24.6900   23.8630 C.cat 146  ARG146      0.5346
     82  NH1       23.8990   23.5420   23.8420 N.pl3 146  ARG146      0.1354
     83  NH2       21.9180   24.7290   23.6560 N.pl3 146  ARG146      0.1354
     84  N         28.6280   16.9300   19.5840 N.3   171  SER171     -0.1217
     85  CA        27.4790   16.4510   20.3480 C.3   171  SER171      0.1889
     86  C         27.4220   14.9180   20.4250 C.2   171  SER171      0.2288
     87  O         26.3430   14.3080   20.3530 O.2   171  SER171     -0.2866
     88  CB        26.1710   16.9920   19.7510 C.3   171  SER171      0.2089
     89  OG        26.0490   18.4010   19.8870 O.3   171  SER171     -0.2183
     90  N         27.1310   20.3580   25.9280 N.3   198  ASN198     -0.1240
     91  CA        25.9310   19.5930   26.2680 C.3   198  ASN198      0.1653
     92  C         26.2410   18.5240   27.3340 C.2   198  ASN198      0.2266
     93  O         27.4090   18.2280   27.6240 O.2   198  ASN198     -0.2867
     94  CB        25.1520   19.0550   25.0320 C.3   198  ASN198      0.1155
     95  CG        25.7180   17.7440   24.4550 C.2   198  ASN198      0.2627
     96  OD1       26.7090   17.1920   24.9380 O.2   198  ASN198     -0.2716
     97  ND2       25.0680   17.2390   23.4010 N.am  198  ASN198     -0.0877
     98  N         22.0210   21.3560   29.4140 N.3   223  ASP223     -0.1239
     99  CA        20.7590   20.6500   29.0540 C.3   223  ASP223      0.1674
    100  C         19.9610   20.1930   30.2700 C.2   223  ASP223      0.2266
    101  O         18.7720   19.9250   30.1470 O.2   223  ASP223     -0.2867
    102  CB        20.9050   19.4000   28.1500 C.3   223  ASP223      0.1410
    103  CG        21.3360   19.7240   26.7420 C.2   223  ASP223      0.3668
    104  OD1       21.2460   20.9030   26.3300 O.co2 223  ASP223     -0.2456
    105  OD2       21.8070   18.7740   26.0560 O.co2 223  ASP223     -0.2456
    106  N         17.4900   24.7290   29.9120 N.3   242  GLN242     -0.1245
    107  CA        16.9780   25.5300   28.7920 C.3   242  GLN242      0.1566
    108  C         15.5310   25.2200   28.3720 C.2   242  GLN242      0.2260
    109  O         15.0810   25.6770   27.3180 O.2   242  GLN242     -0.2867
    110  CB        17.9010   25.4300   27.5850 C.3   242  GLN242      0.0367
    111  CG        18.1250   24.0140   27.0610 C.3   242  GLN242      0.0905
    112  CD        18.6340   23.9940   25.6470 C.2   242  GLN242      0.2608
    113  OE1       18.1860   24.7890   24.7990 O.2   242  GLN242     -0.2717
    114  NE2       19.5930   23.1070   25.3710 N.am  242  GLN242     -0.0878
@<TRIPOS>BOND
     1    49    48    1
     2    43    42    2
     3    45    46    1
     4    45    44    1
     5    42    41    1
     6    46    47    1
     7    61    62    2
     8    61    60    1
     9    48    47    2
    10    48    50    1
    11    65    64   ar
    12    44    41    1
    13    63    60    1
    14    63    64    1
    15    60    59    1
    16    41    40    1
    17    64    66   ar
    18    40    34   am
    19     9     7   am
    20    67    68    1
    21    59    53   am
    22    54    53    2
    23    32    33    1
    24    34    33    1
    25    34    35    2
    26     7     6    1
    27     7     8    2
    28    53    52    1
    29     6     5    1
    30    31    30   ar
    31    31    29   ar
    32    30    28   ar
    33    29    27   ar
    34    72    71    1
    35     1     2    1
    36    28    26   ar
    37    39    37   ar
    38    33    36    1
    39    27    26   ar
    40    36    37    1
    41    26    25    1
    42    68    69    1
    43    68    71    1
    44    84    85    1
    45    88    89    1
    46    88    85    1
    47    25    22    1
    48    69    70    2
    49     5     2    1
    50    37    38   ar
    51    85    86    1
    52    87    86    2
    53    58    56   am
    54    52    51    1
    55    52    55    1
    56     2     3    1
    57    56    55    1
    58    56    57    2
    59    24    23    2
    60    22    23    1
    61    22    21    1
    62     4     3    2
    63    21    12   am
    64    73    74    1
    65    17    19   ar
    66    17    15   ar
    67    19    20   ar
    68    97    95   am
    69    12    13    2
    70    12    11    1
    71    74    75    1
    72    74    77    1
    73    83    81    1
    74    75    76    2
    75    77    78    1
    76    82    81    1
    77    81    80    2
    78    14    15    1
    79    14    11    1
    80    15    16   ar
    81    10    11    1
    82    80    79    1
    83    20    18   ar
    84    79    78    1
    85    95    96    2
    86    95    94    1
    87   113   112    2
    88    94    91    1
    89    16    18   ar
    90   114   112   am
    91   112   111    1
    92    90    91    1
    93   105   103   ar
    94    91    92    1
    95   104   103   ar
    96   103   102    1
    97   111   110    1
    98   109   108    2
    99    92    93    2
   100   110   107    1
   101   102    99    1
   102   108   107    1
   103   107   106    1
   104    99    98    1
   105    99   100    1
   106   101   100    2
