@<TRIPOS>MOLECULE
tmp/4is9B00.pdb
 190 180 0 0 0
SMALL
GASTEIGER

@<TRIPOS>ATOM
      1  N         44.4690  -18.3200   24.4040 N.3    18  LEU18      -0.1245
      2  CA        44.4540  -19.1460   23.2030 C.3    18  LEU18       0.1561
      3  C         44.7260  -20.6110   23.5370 C.2    18  LEU18       0.2260
      4  O         44.0080  -21.5020   23.0830 O.2    18  LEU18      -0.2867
      5  CB        45.4890  -18.6370   22.1980 C.3    18  LEU18       0.0270
      6  CG        45.4220  -19.2730   20.8080 C.3    18  LEU18       0.0019
      7  CD1       44.0590  -19.0360   20.1760 C.3    18  LEU18       0.0001
      8  CD2       46.5260  -18.7280   19.9190 C.3    18  LEU18       0.0001
      9  N         54.5460  -22.0360   17.5330 N.3    61  MET61      -0.1230
     10  CA        53.7530  -22.1610   16.3160 C.3    61  MET61       0.1702
     11  C         52.5170  -21.2640   16.3450 C.2    61  MET61       0.2592
     12  O         51.9900  -20.8960   15.2950 O.2    61  MET61      -0.2718
     13  CB        53.3240  -23.6160   16.1130 C.3    61  MET61       0.0401
     14  CG        54.4800  -24.5850   15.9380 C.3    61  MET61       0.0596
     15  SD        55.4920  -24.2050   14.4940 S.3    61  MET61      -0.1393
     16  CE        56.6840  -25.5400   14.5530 C.3    61  MET61       0.0692
     17  N         52.0580  -20.9110   17.5430 N.am   62  LEU62      -0.1966
     18  CA        50.8200  -20.1510   17.6900 C.3    62  LEU62       0.1728
     19  C         50.9890  -18.8710   18.5070 C.2    62  LEU62       0.2616
     20  O         50.0300  -18.1230   18.6970 O.2    62  LEU62      -0.2715
     21  CB        49.7480  -21.0220   18.3470 C.3    62  LEU62       0.0311
     22  CG        49.4540  -22.3530   17.6550 C.3    62  LEU62       0.0022
     23  CD1       48.3790  -23.1060   18.4120 C.3    62  LEU62       0.0001
     24  CD2       49.0420  -22.1320   16.2080 C.3    62  LEU62       0.0001
     25  N         52.2000  -18.6190   18.9900 N.am   63  CYS63      -0.1954
     26  CA        52.4480  -17.4410   19.8100 C.3    63  CYS63       0.1843
     27  C         53.9390  -17.1530   19.9230 C.2    63  CYS63       0.2626
     28  O         54.7690  -17.9160   19.4310 O.2    63  CYS63      -0.2714
     29  CB        51.8640  -17.6400   21.2080 C.3    63  CYS63       0.0997
     30  SG        52.8410  -18.7410   22.2570 S.3    63  CYS63      -0.0797
     31  N         54.2680  -16.0410   20.5700 N.am   64  THR64      -0.1950
     32  CA        55.6550  -15.6990   20.8510 C.3    64  THR64       0.1897
     33  C         55.7880  -15.3560   22.3290 C.2    64  THR64       0.2313
     34  O         54.8820  -14.7700   22.9210 O.2    64  THR64      -0.2863
     35  CB        56.1390  -14.5250   19.9840 C.3    64  THR64       0.1794
     36  OG1       55.3000  -13.3860   20.2000 O.3    64  THR64      -0.2208
     37  CG2       56.1020  -14.9040   18.5100 C.3    64  THR64       0.0378
     38  N         52.1450  -15.1160   24.0680 N.3    76  THR76      -0.1218
     39  CA        51.3140  -14.1320   23.3780 C.3    76  THR76       0.1862
     40  C         51.5900  -12.6980   23.8340 C.2    76  THR76       0.2287
     41  O         50.7160  -12.0340   24.3920 O.2    76  THR76      -0.2866
     42  CB        49.8080  -14.4410   23.5440 C.3    76  THR76       0.1770
     43  OG1       49.5710  -15.8330   23.3060 O.3    76  THR76      -0.2211
     44  CG2       48.9790  -13.6150   22.5680 C.3    76  THR76       0.0375
     45  N         53.1390  -10.6960   21.4630 N.3    78  GLU78      -0.1231
     46  CA        53.3920  -10.0710   20.1660 C.3    78  GLU78       0.1699
     47  C         52.4770   -8.8890   19.8480 C.2    78  GLU78       0.2592
     48  O         52.9240   -7.8900   19.2860 O.2    78  GLU78      -0.2718
     49  CB        53.2960  -11.1090   19.0390 C.3    78  GLU78       0.0402
     50  CG        51.9720  -11.8620   18.9620 C.3    78  GLU78       0.1161
     51  CD        51.9590  -13.1320   19.8000 C.2    78  GLU78       0.3649
     52  OE1       52.8450  -13.2920   20.6680 O.co2  78  GLU78      -0.2457
     53  OE2       51.0600  -13.9750   19.5870 O.co2  78  GLU78      -0.2457
     54  N         51.2020   -8.9990   20.1980 N.am   79  HIS79      -0.1976
     55  CA        50.2230   -7.9960   19.7880 C.3    79  HIS79       0.1656
     56  C         50.1160   -6.8390   20.7830 C.2    79  HIS79       0.2291
     57  O         49.9790   -5.6810   20.3880 O.2    79  HIS79      -0.2864
     58  CB        48.8630   -8.6560   19.5580 C.3    79  HIS79       0.0771
     59  CG        48.8730   -9.6710   18.4580 C.ar   79  HIS79       0.0820
     60  ND1       47.9100  -10.6500   18.3350 N.ar   79  HIS79      -0.2267
     61  CD2       49.7340   -9.8600   17.4290 C.ar   79  HIS79       0.1154
     62  CE1       48.1770  -11.3960   17.2780 C.ar   79  HIS79       0.1986
     63  NE2       49.2790  -10.9380   16.7110 N.ar   79  HIS79      -0.2212
     64  N         44.1040  -13.2840   23.8300 N.3   103  ILE103     -0.1245
     65  CA        44.2500  -13.0530   22.3970 C.3   103  ILE103      0.1561
     66  C         43.2500  -12.0090   21.9050 C.2   103  ILE103      0.2260
     67  O         43.3960  -11.4630   20.8090 O.2   103  ILE103     -0.2867
     68  CB        44.0580  -14.3610   21.5980 C.3   103  ILE103      0.0252
     69  CG1       44.4410  -14.1580   20.1290 C.3   103  ILE103      0.0019
     70  CG2       42.6200  -14.8500   21.7110 C.3   103  ILE103      0.0019
     71  CD1       45.8890  -13.7560   19.9210 C.3   103  ILE103      0.0001
     72  N         45.2050  -11.7470   13.1830 N.3   191  THR191     -0.1203
     73  CA        45.9340  -12.9380   12.7770 C.3   191  THR191      0.1994
     74  C         44.9780  -13.8630   12.0330 C.2   191  THR191      0.2618
     75  O         43.7920  -13.5570   11.8900 O.2   191  THR191     -0.2717
     76  CB        46.5090  -13.6890   13.9870 C.3   191  THR191      0.1784
     77  OG1       47.2100  -14.8540   13.5360 O.3   191  THR191     -0.2211
     78  CG2       45.3960  -14.1060   14.9400 C.3   191  THR191      0.0376
     79  N         45.4910  -14.9930   11.5630 N.am  192  PHE192     -0.1961
     80  CA        44.6630  -15.9530   10.8470 C.3   192  PHE192      0.1771
     81  C         45.1820  -17.3690   11.0480 C.2   192  PHE192      0.2620
     82  O         46.3090  -17.5720   11.5010 O.2   192  PHE192     -0.2715
     83  CB        44.6390  -15.6250    9.3540 C.3   192  PHE192      0.0574
     84  CG        45.7230  -16.3060    8.5710 C.ar  192  PHE192     -0.0200
     85  CD1       47.0080  -15.7950    8.5510 C.ar  192  PHE192     -0.0042
     86  CD2       45.4570  -17.4680    7.8650 C.ar  192  PHE192     -0.0042
     87  CE1       48.0080  -16.4250    7.8350 C.ar  192  PHE192     -0.0003
     88  CE2       46.4530  -18.1020    7.1450 C.ar  192  PHE192     -0.0003
     89  CZ        47.7300  -17.5810    7.1300 C.ar  192  PHE192     -0.0000
     90  N         44.3490  -18.3460   10.7040 N.am  193  GLY193     -0.1940
     91  CA        44.7230  -19.7440   10.7960 C.3   193  GLY193      0.2014
     92  C         43.8230  -20.6000    9.9280 C.2   193  GLY193      0.2638
     93  O         42.6970  -20.2110    9.6180 O.2   193  GLY193     -0.2714
     94  N         44.3170  -21.7670    9.5310 N.am  194  PHE194     -0.1973
     95  CA        43.5410  -22.6750    8.6950 C.3   194  PHE194      0.1639
     96  C         42.5330  -23.4570    9.5290 C.2   194  PHE194      0.2290
     97  O         42.8620  -23.9640   10.6010 O.2   194  PHE194     -0.2864
     98  CB        44.4660  -23.6440    7.9600 C.3   194  PHE194      0.0560
     99  CG        45.4130  -22.9720    7.0110 C.ar  194  PHE194     -0.0200
    100  CD1       45.0440  -22.7350    5.6970 C.ar  194  PHE194     -0.0042
    101  CD2       46.6720  -22.5760    7.4300 C.ar  194  PHE194     -0.0042
    102  CE1       45.9120  -22.1160    4.8210 C.ar  194  PHE194     -0.0003
    103  CE2       47.5440  -21.9570    6.5580 C.ar  194  PHE194     -0.0003
    104  CZ        47.1640  -21.7260    5.2520 C.ar  194  PHE194     -0.0000
    105  N         43.9000  -26.7790   10.4780 N.3   197  ASP197     -0.1225
    106  CA        44.9080  -26.7620   11.5300 C.3   197  ASP197      0.1805
    107  C         44.2630  -26.4780   12.8850 C.2   197  ASP197      0.2597
    108  O         44.7180  -26.9710   13.9170 O.2   197  ASP197     -0.2718
    109  CB        45.9740  -25.7080   11.2210 C.3   197  ASP197      0.1424
    110  CG        47.2570  -25.9260   12.0020 C.2   197  ASP197      0.3668
    111  OD1       47.1790  -26.3140   13.1860 O.co2 197  ASP197     -0.2456
    112  OD2       48.3460  -25.7100   11.4270 O.co2 197  ASP197     -0.2456
    113  N         43.1990  -25.6820   12.8720 N.am  198  ILE198     -0.1980
    114  CA        42.4820  -25.3430   14.0950 C.3   198  ILE198      0.1595
    115  C         41.8040  -26.5720   14.6880 C.2   198  ILE198      0.2287
    116  O         42.0030  -26.8950   15.8590 O.2   198  ILE198     -0.2864
    117  CB        41.4140  -24.2640   13.8400 C.3   198  ILE198      0.0276
    118  CG1       42.0750  -22.9530   13.4120 C.3   198  ILE198      0.0022
    119  CG2       40.5770  -24.0360   15.0890 C.3   198  ILE198      0.0022
    120  CD1       41.0890  -21.8700   13.0310 C.3   198  ILE198      0.0001
    121  N         44.4040  -29.1940   16.2330 N.3   201  LEU201     -0.1245
    122  CA        44.8920  -28.7720   17.5400 C.3   201  LEU201      0.1561
    123  C         43.8140  -28.9160   18.6080 C.2   201  LEU201      0.2260
    124  O         44.0520  -29.4990   19.6650 O.2   201  LEU201     -0.2867
    125  CB        45.3730  -27.3230   17.4790 C.3   201  LEU201      0.0270
    126  CG        46.6550  -27.1070   16.6770 C.3   201  LEU201      0.0019
    127  CD1       46.8940  -25.6280   16.4490 C.3   201  LEU201      0.0001
    128  CD2       47.8380  -27.7470   17.3850 C.3   201  LEU201      0.0001
    129  N         45.0820  -25.1350   21.6820 N.3   207  CYS207     -0.1235
    130  CA        44.5550  -23.9740   20.9790 C.3   207  CYS207      0.1677
    131  C         43.0380  -23.9340   21.1210 C.2   207  CYS207      0.2270
    132  O         42.3130  -23.8060   20.1350 O.2   207  CYS207     -0.2867
    133  CB        44.9470  -24.0310   19.5020 C.3   207  CYS207      0.0956
    134  SG        44.5780  -22.5330   18.5680 S.3   207  CYS207     -0.0801
    135  N         40.7970  -20.6400   20.1300 N.3   210  GLY210     -0.1210
    136  CA        40.4880  -20.2990   18.7530 C.3   210  GLY210      0.1956
    137  C         39.0040  -20.1120   18.5030 C.2   210  GLY210      0.2612
    138  O         38.1720  -20.8100   19.0810 O.2   210  GLY210     -0.2717
    139  N         38.6750  -19.1630   17.6330 N.am  211  SER211     -0.1952
    140  CA        37.2900  -18.8980   17.2610 C.3   211  SER211      0.1924
    141  C         37.2430  -17.8310   16.1760 C.2   211  SER211      0.2314
    142  O         38.2500  -17.1840   15.8860 O.2   211  SER211     -0.2863
    143  CB        36.4870  -18.4270   18.4750 C.3   211  SER211      0.2116
    144  OG        36.9720  -17.1840   18.9530 O.3   211  SER211     -0.2180
    145  N         38.4390  -14.3660   17.4810 N.3   214  CYS214     -0.1221
    146  CA        39.8120  -14.0360   17.8560 C.3   214  CYS214      0.1808
    147  C         40.8180  -14.2580   16.7310 C.2   214  CYS214      0.2601
    148  O         42.0240  -14.2640   16.9720 O.2   214  CYS214     -0.2717
    149  CB        40.2390  -14.8540   19.0750 C.3   214  CYS214      0.0970
    150  SG        40.6920  -16.5610   18.6920 S.3   214  CYS214     -0.0800
    151  N         40.3310  -14.4380   15.5070 N.am  215  ALA215     -0.1979
    152  CA        41.2230  -14.6310   14.3660 C.3   215  ALA215      0.1597
    153  C         40.4570  -14.7780   13.0590 C.2   215  ALA215      0.2287
    154  O         39.2520  -15.0250   13.0510 O.2   215  ALA215     -0.2864
    155  CB        42.1080  -15.8500   14.5860 C.3   215  ALA215      0.0319
    156  N         39.5670  -16.9780   10.1190 N.3   217  VAL217     -0.1245
    157  CA        39.5470  -18.3930    9.7620 C.3   217  VAL217      0.1561
    158  C         39.2710  -18.5500    8.2710 C.2   217  VAL217      0.2260
    159  O         38.3270  -17.9690    7.7360 O.2   217  VAL217     -0.2867
    160  CB        38.4950  -19.1660   10.5670 C.3   217  VAL217      0.0252
    161  CG1       38.6120  -20.6550   10.2930 C.3   217  VAL217      0.0019
    162  CG2       38.6570  -18.8830   12.0530 C.3   217  VAL217      0.0019
    163  N         48.6620   -7.5120    9.2160 N.3   238  HIS238     -0.1241
    164  CA        48.9130   -8.1330   10.5070 C.3   238  HIS238      0.1621
    165  C         50.3780   -8.5150   10.6680 C.2   238  HIS238      0.2264
    166  O         50.9360   -8.4080   11.7600 O.2   238  HIS238     -0.2867
    167  CB        48.0470   -9.3720   10.7160 C.3   238  HIS238      0.0745
    168  CG        48.2670  -10.0190   12.0470 C.ar  238  HIS238      0.0817
    169  ND1       47.6290   -9.5950   13.1920 N.ar  238  HIS238     -0.2268
    170  CD2       49.0910  -11.0250   12.4240 C.ar  238  HIS238      0.1154
    171  CE1       48.0310  -10.3280   14.2150 C.ar  238  HIS238      0.1986
    172  NE2       48.9210  -11.2010   13.7770 N.ar  238  HIS238     -0.2212
    173  N         52.8050   -7.4850   13.7570 N.3   242  ASP242     -0.1239
    174  CA        53.7320   -8.3360   14.4920 C.3   242  ASP242      0.1674
    175  C         55.1190   -7.7020   14.4970 C.2   242  ASP242      0.2266
    176  O         55.7640   -7.5990   15.5410 O.2   242  ASP242     -0.2867
    177  CB        53.8250   -9.7270   13.8510 C.3   242  ASP242      0.1410
    178  CG        52.5230  -10.5150   13.9280 C.2   242  ASP242      0.3668
    179  OD1       51.6950  -10.2690   14.8330 O.co2 242  ASP242     -0.2456
    180  OD2       52.3370  -11.4080   13.0740 O.co2 242  ASP242     -0.2456
    181  N         58.5030  -13.3990   13.1480 N.3   265  HIS265     -0.1241
    182  CA        58.9490  -12.9590   14.4650 C.3   265  HIS265      0.1621
    183  C         60.4250  -13.2670   14.6880 C.2   265  HIS265      0.2264
    184  O         61.1760  -12.4230   15.1760 O.2   265  HIS265     -0.2867
    185  CB        58.1100  -13.6200   15.5590 C.3   265  HIS265      0.0745
    186  CG        56.6890  -13.1510   15.5940 C.ar  265  HIS265      0.0817
    187  ND1       56.2930  -12.0290   16.2910 N.ar  265  HIS265     -0.2268
    188  CD2       55.5700  -13.6510   15.0180 C.ar  265  HIS265      0.1154
    189  CE1       54.9910  -11.8580   16.1420 C.ar  265  HIS265      0.1986
    190  NE2       54.5290  -12.8280   15.3740 N.ar  265  HIS265     -0.2212
@<TRIPOS>BOND
     1   102   104   ar
     2   102   100   ar
     3   104   103   ar
     4   100    99   ar
     5   103   101   ar
     6    99   101   ar
     7    99    98    1
     8    89    88   ar
     9    89    87   ar
    10    88    86   ar
    11   159   158    2
    12    87    85   ar
    13    86    84   ar
    14    98    95    1
    15   158   157    1
    16    85    84   ar
    17    84    83    1
    18    95    96    1
    19    95    94    1
    20   163   164    1
    21    83    80    1
    22    96    97    2
    23    94    92   am
    24    93    92    2
    25   157   156    1
    26   157   160    1
    27    92    91    1
    28   161   160    1
    29   105   106    1
    30   164   165    1
    31   164   167    1
    32   160   162    1
    33   165   166    2
    34    90    91    1
    35    90    81   am
    36   167   168    1
    37    80    81    1
    38    80    79    1
    39    81    82    2
    40   109   106    1
    41   109   110    1
    42   112   110   ar
    43   106   107    1
    44    79    74   am
    45    75    74    2
    46   110   111   ar
    47    74    73    1
    48   168   170   ar
    49   168   169   ar
    50   170   172   ar
    51    73    72    1
    52    73    76    1
    53   113   107   am
    54   113   114    1
    55   107   108    2
    56   120   118    1
    57   154   153    2
    58   153   152    1
    59   180   178   ar
    60   181   182    1
    61   169   171   ar
    62   118   117    1
    63    77    76    1
    64   173   174    1
    65   172   171   ar
    66   117   114    1
    67   117   119    1
    68   177   178    1
    69   177   174    1
    70   178   179   ar
    71    76    78    1
    72   114   115    1
    73   152   155    1
    74   152   151    1
    75   182   183    1
    76   182   185    1
    77   174   175    1
    78    15    16    1
    79    15    14    1
    80   175   176    2
    81   115   116    2
    82   183   184    2
    83   188   190   ar
    84   188   186   ar
    85    12    11    2
    86   190   189   ar
    87   151   147   am
    88   185   186    1
    89   186   187   ar
    90   142   141    2
    91    14    13    1
    92    13    10    1
    93   189   187   ar
    94   141   140    1
    95    24    22    1
    96   121   122    1
    97    10    11    1
    98    10     9    1
    99    11    17   am
   100   127   126    1
   101   126   128    1
   102   126   125    1
   103    63    62   ar
   104    63    61   ar
   105   147   148    2
   106   147   146    1
   107   140   139    1
   108   140   143    1
   109    62    60   ar
   110    61    59   ar
   111   125   122    1
   112   145   146    1
   113   122   123    1
   114    17    18    1
   115   139   137   am
   116    22    21    1
   117    22    23    1
   118    18    21    1
   119    18    19    1
   120   146   149    1
   121    60    59   ar
   122    59    58    1
   123   143   144    1
   124   137   136    1
   125   137   138    2
   126    19    20    2
   127    19    25   am
   128    37    35    1
   129   134   133    1
   130   123   124    2
   131   150   149    1
   132   136   135    1
   133    50    49    1
   134    50    51    1
   135    25    26    1
   136    49    46    1
   137    48    47    2
   138    28    27    2
   139   133   130    1
   140    58    55    1
   141    53    51   ar
   142    55    54    1
   143    55    56    1
   144    51    52   ar
   145    26    27    1
   146    26    29    1
   147    47    46    1
   148    47    54   am
   149     8     6    1
   150    71    69    1
   151    27    31   am
   152    35    36    1
   153    35    32    1
   154    69    68    1
   155   132   131    2
   156    46    45    1
   157     7     6    1
   158    57    56    2
   159    31    32    1
   160     6     5    1
   161    67    66    2
   162    32    33    1
   163   130   131    1
   164   130   129    1
   165    29    30    1
   166    68    70    1
   167    68    65    1
   168    66    65    1
   169     5     2    1
   170    33    34    2
   171    65    64    1
   172    44    42    1
   173     4     3    2
   174     2     3    1
   175     2     1    1
   176    43    42    1
   177    39    42    1
   178    39    40    1
   179    39    38    1
   180    40    41    2
