@<TRIPOS>MOLECULE
tmp/4isaA00.pdb
 185 176 0 0 0
SMALL
GASTEIGER

@<TRIPOS>ATOM
      1  N          7.6450  -38.4610  -22.9320 N.3    18  LEU18      -0.1245
      2  CA         8.5380  -37.4000  -22.4870 C.3    18  LEU18       0.1561
      3  C          9.9950  -37.8550  -22.5190 C.2    18  LEU18       0.2260
      4  O         10.8790  -37.1270  -22.9690 O.2    18  LEU18      -0.2867
      5  CB         8.1760  -36.9730  -21.0780 C.3    18  LEU18       0.0270
      6  CG         9.2540  -36.1000  -20.4510 C.3    18  LEU18       0.0019
      7  CD1        9.2990  -34.7160  -21.1200 C.3    18  LEU18       0.0001
      8  CD2        8.9850  -36.0070  -18.9680 C.3    18  LEU18       0.0001
      9  N         13.9720  -37.9970  -10.0940 N.3    61  MET61      -0.1230
     10  CA        14.2910  -36.5940  -10.2650 C.3    61  MET61       0.1702
     11  C         13.3270  -35.9480  -11.2630 C.2    61  MET61       0.2592
     12  O         13.1590  -34.7300  -11.2560 O.2    61  MET61      -0.2718
     13  CB        15.7530  -36.4120  -10.7150 C.3    61  MET61       0.0401
     14  CG        16.1020  -37.1040  -12.0310 C.3    61  MET61       0.0596
     15  SD        17.7870  -36.7850  -12.6100 S.3    61  MET61      -0.1393
     16  CE        18.7460  -37.8710  -11.5500 C.3    61  MET61       0.0692
     17  N         12.6830  -36.7650  -12.0960 N.am   62  LEU62      -0.1966
     18  CA        11.8340  -36.2610  -13.1860 C.3    62  LEU62       0.1728
     19  C         10.3410  -36.4900  -13.0170 C.2    62  LEU62       0.2616
     20  O          9.5440  -35.7000  -13.4990 O.2    62  LEU62      -0.2715
     21  CB        12.2130  -36.9330  -14.5090 C.3    62  LEU62       0.0311
     22  CG        13.1960  -36.2420  -15.4650 C.3    62  LEU62       0.0022
     23  CD1       14.0360  -35.2110  -14.7780 C.3    62  LEU62       0.0001
     24  CD2       14.0640  -37.2850  -16.1350 C.3    62  LEU62       0.0001
     25  N          9.9570  -37.6010  -12.3970 N.am   63  CYS63      -0.1968
     26  CA         8.5500  -37.9920  -12.3890 C.3    63  CYS63       0.1712
     27  C          8.2710  -39.0220  -11.3050 C.2    63  CYS63       0.2296
     28  O          9.1470  -39.3280  -10.5030 O.2    63  CYS63      -0.2864
     29  CB         8.1710  -38.5740  -13.7500 C.3    63  CYS63       0.0983
     30  SG         9.1100  -40.0920  -14.1680 S.3    63  CYS63      -0.0798
     31  N          5.8920  -41.7510  -15.3490 N.3    76  THR76      -0.1218
     32  CA         5.0310  -40.6200  -15.7240 C.3    76  THR76       0.1862
     33  C          3.5490  -40.9740  -15.5690 C.2    76  THR76       0.2287
     34  O          2.7310  -40.6840  -16.4500 O.2    76  THR76      -0.2866
     35  CB         5.3070  -40.1600  -17.1730 C.3    76  THR76       0.1770
     36  OG1        6.7110  -40.2550  -17.4400 O.3    76  THR76      -0.2211
     37  CG2        4.8500  -38.7150  -17.3920 C.3    76  THR76       0.0375
     38  N          1.6990  -39.7780  -13.0940 N.3    78  GLU78      -0.1231
     39  CA         1.1180  -38.7650  -12.1940 C.3    78  GLU78       0.1699
     40  C         -0.1270  -38.0290  -12.7110 C.2    78  GLU78       0.2592
     41  O         -1.0320  -37.7180  -11.9360 O.2    78  GLU78      -0.2718
     42  CB         2.1870  -37.7240  -11.7810 C.3    78  GLU78       0.0402
     43  CG         3.1260  -37.2340  -12.8940 C.3    78  GLU78       0.1161
     44  CD         4.5100  -37.8690  -12.7970 C.2    78  GLU78       0.3649
     45  OE1        4.5860  -39.1130  -12.7980 O.co2  78  GLU78      -0.2457
     46  OE2        5.5160  -37.1310  -12.6880 O.co2  78  GLU78      -0.2457
     47  N         -0.1680  -37.7150  -13.9960 N.am   79  HIS79      -0.1976
     48  CA        -1.2400  -36.8560  -14.5110 C.3    79  HIS79       0.1656
     49  C         -2.4550  -37.6730  -14.9650 C.2    79  HIS79       0.2291
     50  O         -3.5930  -37.2760  -14.7200 O.2    79  HIS79      -0.2864
     51  CB        -0.6930  -35.9600  -15.6180 C.3    79  HIS79       0.0771
     52  CG         0.4320  -35.0900  -15.1590 C.ar   79  HIS79       0.0820
     53  ND1        1.4000  -34.5940  -16.0090 N.ar   79  HIS79      -0.2267
     54  CD2        0.7480  -34.6310  -13.9220 C.ar   79  HIS79       0.1154
     55  CE1        2.2590  -33.8660  -15.3150 C.ar   79  HIS79       0.1986
     56  NE2        1.8870  -33.8750  -14.0490 N.ar   79  HIS79      -0.2212
     57  N          3.0960  -37.8360  -22.4020 N.3   103  ILE103     -0.1245
     58  CA         3.0870  -36.6270  -21.5820 C.3   103  ILE103      0.1561
     59  C          1.9420  -35.6740  -21.9820 C.2   103  ILE103      0.2260
     60  O          1.5300  -34.8180  -21.1920 O.2   103  ILE103     -0.2867
     61  CB         4.4620  -35.9280  -21.6570 C.3   103  ILE103      0.0252
     62  CG1        4.5470  -34.7750  -20.6500 C.3   103  ILE103      0.0019
     63  CG2        4.7420  -35.4650  -23.0770 C.3   103  ILE103      0.0019
     64  CD1        4.4170  -35.2270  -19.2020 C.3   103  ILE103      0.0001
     65  N          2.2440  -28.8570  -15.9650 N.3   191  THR191     -0.1203
     66  CA         3.5030  -28.9100  -15.2380 C.3   191  THR191      0.1994
     67  C          4.4270  -27.8070  -15.7460 C.2   191  THR191      0.2618
     68  O          4.1290  -27.1200  -16.7230 O.2   191  THR191     -0.2717
     69  CB         4.2110  -30.2820  -15.3750 C.3   191  THR191      0.1784
     70  OG1        5.3320  -30.3460  -14.4800 O.3   191  THR191     -0.2211
     71  CG2        4.6940  -30.5090  -16.7840 C.3   191  THR191      0.0376
     72  N          5.5640  -27.6500  -15.0860 N.am  192  PHE192     -0.1961
     73  CA         6.4160  -26.5120  -15.3710 C.3   192  PHE192      0.1771
     74  C          7.8700  -26.7790  -14.9960 C.2   192  PHE192      0.2620
     75  O          8.1600  -27.6090  -14.1330 O.2   192  PHE192     -0.2715
     76  CB         5.8910  -25.2990  -14.6090 C.3   192  PHE192      0.0574
     77  CG         5.7160  -25.5350  -13.1320 C.ar  192  PHE192     -0.0200
     78  CD1        6.7630  -25.3040  -12.2600 C.ar  192  PHE192     -0.0042
     79  CD2        4.5040  -25.9680  -12.6170 C.ar  192  PHE192     -0.0042
     80  CE1        6.6160  -25.5090  -10.9030 C.ar  192  PHE192     -0.0003
     81  CE2        4.3390  -26.1780  -11.2540 C.ar  192  PHE192     -0.0003
     82  CZ         5.4030  -25.9430  -10.3940 C.ar  192  PHE192     -0.0000
     83  N          8.7780  -26.0690  -15.6580 N.am  193  GLY193     -0.1940
     84  CA        10.1820  -26.1580  -15.3130 C.3   193  GLY193      0.2014
     85  C         11.0180  -25.1290  -16.0340 C.2   193  GLY193      0.2638
     86  O         10.4960  -24.3150  -16.8120 O.2   193  GLY193     -0.2714
     87  N         12.3300  -25.1750  -15.7840 N.am  194  PHE194     -0.1973
     88  CA        13.2560  -24.1920  -16.3310 C.3   194  PHE194      0.1639
     89  C         13.8080  -24.6160  -17.6870 C.2   194  PHE194      0.2290
     90  O         14.1850  -25.7710  -17.8950 O.2   194  PHE194     -0.2864
     91  CB        14.4460  -23.9700  -15.3740 C.3   194  PHE194      0.0560
     92  CG        14.1050  -23.1790  -14.1420 C.ar  194  PHE194     -0.0200
     93  CD1       14.1770  -21.7930  -14.1460 C.ar  194  PHE194     -0.0042
     94  CD2       13.7150  -23.8170  -12.9760 C.ar  194  PHE194     -0.0042
     95  CE1       13.8630  -21.0540  -13.0040 C.ar  194  PHE194     -0.0003
     96  CE2       13.3950  -23.0880  -11.8370 C.ar  194  PHE194     -0.0003
     97  CZ        13.4710  -21.6960  -11.8540 C.ar  194  PHE194     -0.0000
     98  N         17.1980  -26.1860  -17.4740 N.3   197  ASP197     -0.1225
     99  CA        17.1030  -27.5680  -17.0050 C.3   197  ASP197      0.1805
    100  C         16.7140  -28.5200  -18.1380 C.2   197  ASP197      0.2597
    101  O         17.3120  -29.5890  -18.2990 O.2   197  ASP197     -0.2718
    102  CB        16.0830  -27.6710  -15.8690 C.3   197  ASP197      0.1424
    103  CG        16.6250  -27.1580  -14.5550 C.2   197  ASP197      0.3668
    104  OD1       17.8680  -27.0200  -14.4270 O.co2 197  ASP197     -0.2456
    105  OD2       15.8120  -26.9110  -13.6400 O.co2 197  ASP197     -0.2456
    106  N         15.6970  -28.1490  -18.9160 N.am  198  ILE198     -0.1980
    107  CA        15.2920  -28.9760  -20.0540 C.3   198  ILE198      0.1595
    108  C         16.4400  -29.1180  -21.0690 C.2   198  ILE198      0.2287
    109  O         16.7440  -30.2260  -21.5320 O.2   198  ILE198     -0.2864
    110  CB        14.0540  -28.3970  -20.7520 C.3   198  ILE198      0.0276
    111  CG1       12.8900  -28.3210  -19.7550 C.3   198  ILE198      0.0022
    112  CG2       13.6960  -29.2510  -21.9780 C.3   198  ILE198      0.0022
    113  CD1       11.6700  -27.5380  -20.2690 C.3   198  ILE198      0.0001
    114  N         19.0990  -31.4840  -19.5410 N.3   201  LEU201     -0.1245
    115  CA        18.6560  -32.8750  -19.6050 C.3   201  LEU201      0.1561
    116  C         18.7170  -33.4120  -21.0360 C.2   201  LEU201      0.2260
    117  O         19.1380  -34.5450  -21.2630 O.2   201  LEU201     -0.2867
    118  CB        17.2340  -32.9910  -19.0510 C.3   201  LEU201      0.0270
    119  CG        17.1610  -32.8370  -17.5310 C.3   201  LEU201      0.0019
    120  CD1       15.7410  -32.5070  -17.0680 C.3   201  LEU201      0.0001
    121  CD2       17.7040  -34.0990  -16.8410 C.3   201  LEU201      0.0001
    122  N         14.6690  -36.6240  -21.3840 N.3   207  CYS207     -0.1235
    123  CA        13.5490  -35.7240  -21.6330 C.3   207  CYS207      0.1677
    124  C         13.4530  -35.2840  -23.0820 C.2   207  CYS207      0.2270
    125  O         13.1460  -34.1250  -23.3610 O.2   207  CYS207     -0.2867
    126  CB        13.6700  -34.4830  -20.7490 C.3   207  CYS207      0.0956
    127  SG        13.4050  -34.8470  -19.0300 S.3   207  CYS207     -0.0801
    128  N         10.4210  -33.4470  -24.2530 N.3   210  GLY210     -0.1210
    129  CA        10.1260  -32.1930  -23.5760 C.3   210  GLY210      0.1956
    130  C         10.0910  -31.0050  -24.5230 C.2   210  GLY210      0.2612
    131  O         10.9620  -30.8600  -25.3770 O.2   210  GLY210     -0.2717
    132  N          9.0770  -30.1520  -24.3790 N.am  211  SER211     -0.1952
    133  CA         8.9620  -28.9740  -25.2340 C.3   211  SER211      0.1924
    134  C          7.9550  -27.9820  -24.6620 C.2   211  SER211      0.2314
    135  O          7.3600  -28.2310  -23.6210 O.2   211  SER211     -0.2863
    136  CB         8.5210  -29.3870  -26.6320 C.3   211  SER211      0.2116
    137  OG         7.1420  -29.6850  -26.6360 O.3   211  SER211     -0.2180
    138  N          4.4380  -29.3400  -23.9370 N.3   214  CYS214     -0.1221
    139  CA         4.0440  -30.1780  -22.7920 C.3   214  CYS214      0.1808
    140  C          4.4780  -29.6220  -21.4370 C.2   214  CYS214      0.2601
    141  O          4.5200  -30.3530  -20.4500 O.2   214  CYS214     -0.2717
    142  CB         4.5250  -31.6280  -22.9640 C.3   214  CYS214      0.0970
    143  SG         6.3300  -31.8260  -22.9840 S.3   214  CYS214     -0.0800
    144  N          4.7630  -28.3240  -21.3760 N.am  215  ALA215     -0.1979
    145  CA         5.0650  -27.6870  -20.1000 C.3   215  ALA215      0.1597
    146  C          5.0170  -26.1710  -20.1860 C.2   215  ALA215      0.2287
    147  O          5.2580  -25.5950  -21.2440 O.2   215  ALA215     -0.2864
    148  CB         6.4450  -28.1040  -19.6120 C.3   215  ALA215      0.0319
    149  N         -1.5250  -26.7860  -10.7560 N.3   238  HIS238     -0.1226
    150  CA        -0.9190  -28.0160  -11.2080 C.3   238  HIS238      0.1752
    151  C         -0.4500  -28.8470  -10.0240 C.2   238  HIS238      0.2595
    152  O         -0.5530  -30.0750  -10.0450 O.2   238  HIS238     -0.2718
    153  CB         0.2520  -27.8220  -12.1660 C.3   238  HIS238      0.0759
    154  CG         0.7950  -29.1260  -12.6380 C.ar  238  HIS238      0.0818
    155  ND1        0.1720  -29.8660  -13.6200 N.ar  238  HIS238     -0.2268
    156  CD2        1.8100  -29.8960  -12.1730 C.ar  238  HIS238      0.1154
    157  CE1        0.8160  -31.0110  -13.7820 C.ar  238  HIS238      0.1986
    158  NE2        1.8120  -31.0500  -12.9130 N.ar  238  HIS238     -0.2212
    159  N          0.0720  -28.2030   -8.9880 N.am  239  LYS239     -0.1980
    160  CA         0.4670  -28.9630   -7.8080 C.3   239  LYS239      0.1596
    161  C         -0.7360  -29.6090   -7.1100 C.2   239  LYS239      0.2287
    162  O         -0.5920  -30.6560   -6.4860 O.2   239  LYS239     -0.2864
    163  CB         1.2800  -28.1050   -6.8330 C.3   239  LYS239      0.0298
    164  CG         2.6640  -27.7320   -7.3720 C.3   239  LYS239      0.0038
    165  CD         3.2760  -28.8590   -8.2200 C.3   239  LYS239      0.0206
    166  CE         3.8800  -29.9840   -7.3650 C.3   239  LYS239      0.1093
    167  NZ         4.2520  -31.2040   -8.1830 N.3   239  LYS239     -0.1314
    168  N         -1.4450  -32.6900   -9.1670 N.3   242  ASP242     -0.1239
    169  CA        -0.5110  -33.7360   -8.7370 C.3   242  ASP242      0.1674
    170  C         -0.9550  -34.4220   -7.4450 C.2   242  ASP242      0.2266
    171  O         -0.9220  -35.6520   -7.3440 O.2   242  ASP242     -0.2867
    172  CB         0.8830  -33.1500   -8.5290 C.3   242  ASP242      0.1410
    173  CG         1.6090  -32.8920   -9.8310 C.2   242  ASP242      0.3668
    174  OD1        1.2220  -33.4880  -10.8580 O.co2 242  ASP242     -0.2456
    175  OD2        2.5870  -32.1170   -9.8120 O.co2 242  ASP242     -0.2456
    176  N          5.1560  -34.7420   -4.5380 N.3   265  HIS265     -0.1241
    177  CA         4.8370  -36.1550   -4.7520 C.3   265  HIS265      0.1621
    178  C          5.2950  -37.0460   -3.5880 C.2   265  HIS265      0.2264
    179  O          4.5370  -37.9010   -3.1150 O.2   265  HIS265     -0.2867
    180  CB         5.4590  -36.6590   -6.0600 C.3   265  HIS265      0.0745
    181  CG         4.7210  -36.2350   -7.2950 C.ar  265  HIS265      0.0817
    182  ND1        3.4320  -36.6420   -7.5740 N.ar  265  HIS265     -0.2268
    183  CD2        5.1100  -35.4680   -8.3420 C.ar  265  HIS265      0.1154
    184  CE1        3.0530  -36.1320   -8.7310 C.ar  265  HIS265      0.1986
    185  NE2        4.0550  -35.4210   -9.2210 N.ar  265  HIS265     -0.2212
@<TRIPOS>BOND
     1   137   136    1
     2   136   133    1
     3   131   130    2
     4   133   134    1
     5   133   132    1
     6   134   135    2
     7   130   132   am
     8   130   129    1
     9   128   129    1
    10   138   139    1
    11   125   124    2
    12   124   123    1
    13    63    61    1
    14   143   142    1
    15     4     3    2
    16   142   139    1
    17     1     2    1
    18   139   140    1
    19     3     2    1
    20     2     5    1
    21    57    58    1
    22    59    58    1
    23    59    60    2
    24   112   110    1
    25    61    58    1
    26    61    62    1
    27   123   122    1
    28   123   126    1
    29   109   108    2
    30   140   144   am
    31   140   141    2
    32   144   145    1
    33   117   116    2
    34   147   146    2
    35     7     6    1
    36     5     6    1
    37   108   107    1
    38   116   115    1
    39   110   107    1
    40   110   111    1
    41   126   127    1
    42    62    64    1
    43     6     8    1
    44   113   111    1
    45   146   145    1
    46   145   148    1
    47   107   106    1
    48   115   114    1
    49   115   118    1
    50   118   119    1
    51   106   100   am
    52   101   100    2
    53   100    99    1
    54    90    89    2
    55    89    88    1
    56   119   120    1
    57   119   121    1
    58    98    99    1
    59    36    35    1
    60    37    35    1
    61    35    32    1
    62    99   102    1
    63    86    85    2
    64    71    69    1
    65    68    67    2
    66    34    33    2
    67    88    87    1
    68    88    91    1
    69    24    22    1
    70    85    87   am
    71    85    84    1
    72    53    55   ar
    73    53    52   ar
    74    65    66    1
    75   102   103    1
    76    67    66    1
    77    67    72   am
    78    32    33    1
    79    32    31    1
    80    83    84    1
    81    83    74   am
    82    51    52    1
    83    51    48    1
    84    22    23    1
    85    22    21    1
    86    69    66    1
    87    69    70    1
    88    91    92    1
    89    73    72    1
    90    73    74    1
    91    73    76    1
    92    55    56   ar
    93    52    54   ar
    94    74    75    2
    95    49    50    2
    96    49    48    1
    97    76    77    1
    98   103   104   ar
    99   103   105   ar
   100    48    47    1
   101    21    18    1
   102    30    29    1
   103    93    92   ar
   104    93    95   ar
   105    92    94   ar
   106    56    54   ar
   107    47    40   am
   108   157   155   ar
   109   157   158   ar
   110    29    26    1
   111   155   154   ar
   112    20    19    2
   113    18    19    1
   114    18    17    1
   115    77    79   ar
   116    77    78   ar
   117    38    39    1
   118    19    25   am
   119    95    97   ar
   120    94    96   ar
   121   158   156   ar
   122    43    44    1
   123    43    42    1
   124    45    44   ar
   125    44    46   ar
   126    40    39    1
   127    40    41    2
   128   154   156   ar
   129   154   153    1
   130    79    81   ar
   131    15    14    1
   132    15    16    1
   133    25    26    1
   134    26    27    1
   135    78    80   ar
   136    39    42    1
   137   153   150    1
   138    17    11   am
   139    14    13    1
   140    97    96   ar
   141    27    28    2
   142    11    12    2
   143    11    10    1
   144    81    82   ar
   145   150   149    1
   146   150   151    1
   147    80    82   ar
   148   174   173   ar
   149    13    10    1
   150    10     9    1
   151   152   151    2
   152   151   159   am
   153   173   175   ar
   154   173   172    1
   155   185   184   ar
   156   185   183   ar
   157   168   169    1
   158   159   160    1
   159   169   172    1
   160   169   170    1
   161   184   182   ar
   162   183   181   ar
   163   165   164    1
   164   165   166    1
   165   167   166    1
   166   160   161    1
   167   160   163    1
   168   182   181   ar
   169   170   171    2
   170   164   163    1
   171   181   180    1
   172   161   162    2
   173   180   177    1
   174   177   176    1
   175   177   178    1
   176   178   179    2
