@<TRIPOS>MOLECULE
tmp/4isdB00.pdb
 105 100 0 0 0
SMALL
GASTEIGER

@<TRIPOS>ATOM
      1  N        -41.6030  -80.4250   21.9960 N.3    13  SER13      -0.1217
      2  CA       -41.9460  -79.2930   22.8590 C.3    13  SER13       0.1889
      3  C        -41.6660  -77.9340   22.2250 C.2    13  SER13       0.2288
      4  O        -40.5570  -77.6800   21.7540 O.2    13  SER13      -0.2866
      5  CB       -41.1920  -79.3810   24.1820 C.3    13  SER13       0.2089
      6  OG       -41.5010  -78.2640   24.9960 O.3    13  SER13      -0.2183
      7  N        -41.2680  -75.2130   23.6820 N.3    15  PHE15      -0.1241
      8  CA       -40.4180  -74.3890   24.5310 C.3    15  PHE15       0.1605
      9  C        -38.9540  -74.7860   24.4150 C.2    15  PHE15       0.2264
     10  O        -38.0660  -73.9380   24.4780 O.2    15  PHE15      -0.2867
     11  CB       -40.9240  -74.4320   25.9740 C.3    15  PHE15       0.0534
     12  CG       -42.3710  -74.0440   26.1020 C.ar   15  PHE15      -0.0203
     13  CD1      -42.7960  -72.7750   25.7150 C.ar   15  PHE15      -0.0042
     14  CD2      -43.3130  -74.9550   26.5760 C.ar   15  PHE15      -0.0042
     15  CE1      -44.1360  -72.4110   25.8170 C.ar   15  PHE15      -0.0003
     16  CE2      -44.6570  -74.6030   26.6820 C.ar   15  PHE15      -0.0003
     17  CZ       -45.0670  -73.3210   26.3060 C.ar   15  PHE15      -0.0000
     18  N        -39.3560  -89.3340   27.7730 N.3    37  LEU37      -0.1245
     19  CA       -40.5450  -89.8380   28.4610 C.3    37  LEU37       0.1561
     20  C        -41.1050  -91.0090   27.6490 C.2    37  LEU37       0.2260
     21  O        -41.3580  -90.8640   26.4450 O.2    37  LEU37      -0.2867
     22  CB       -41.5960  -88.7380   28.6370 C.3    37  LEU37       0.0270
     23  CG       -42.6210  -88.9510   29.7590 C.3    37  LEU37       0.0019
     24  CD1      -43.0600  -87.6190   30.3710 C.3    37  LEU37       0.0001
     25  CD2      -43.8350  -89.7530   29.2700 C.3    37  LEU37       0.0001
     26  N        -36.9440  -87.7610   32.9260 N.3    41  GLN41      -0.1231
     27  CA       -36.7600  -86.4970   33.6520 C.3    41  GLN41       0.1698
     28  C        -37.0380  -86.5730   35.1690 C.2    41  GLN41       0.2592
     29  O        -37.2030  -85.5440   35.8210 O.2    41  GLN41      -0.2718
     30  CB       -37.5130  -85.3300   32.9820 C.3    41  GLN41       0.0381
     31  CG       -38.9880  -85.1990   33.3140 C.3    41  GLN41       0.0905
     32  CD       -39.8540  -86.2600   32.6550 C.2    41  GLN41       0.2608
     33  OE1      -39.3530  -87.1860   32.0180 O.2    41  GLN41      -0.2717
     34  NE2      -41.1680  -86.1250   32.8070 N.am   41  GLN41      -0.0878
     35  N        -37.0460  -87.7910   35.7190 N.am   42  GLN42      -0.1979
     36  CA       -37.2130  -88.0130   37.1620 C.3    42  GLN42       0.1601
     37  C        -36.1880  -88.9820   37.7840 C.2    42  GLN42       0.2287
     38  O        -34.9910  -88.9520   37.4800 O.2    42  GLN42      -0.2864
     39  CB       -38.6190  -88.5310   37.4640 C.3    42  GLN42       0.0394
     40  CG       -39.6280  -87.4710   37.8720 C.3    42  GLN42       0.0908
     41  CD       -40.4090  -86.9250   36.7030 C.2    42  GLN42       0.2608
     42  OE1      -40.0790  -87.1890   35.5510 O.2    42  GLN42      -0.2717
     43  NE2      -41.4550  -86.1590   36.9930 N.am   42  GLN42      -0.0878
     44  N        -37.6220  -80.2600   36.6160 N.3    48  ARG48      -0.1231
     45  CA       -37.9540  -81.5610   36.0250 C.3    48  ARG48       0.1694
     46  C        -38.7150  -81.4090   34.6990 C.2    48  ARG48       0.2592
     47  O        -39.6210  -82.1930   34.3860 O.2    48  ARG48      -0.2718
     48  CB       -38.7300  -82.4460   37.0120 C.3    48  ARG48       0.0321
     49  CG       -37.9370  -82.9230   38.2260 C.3    48  ARG48       0.0489
     50  CD       -38.8540  -83.7000   39.1580 C.3    48  ARG48       0.2205
     51  NE       -38.1510  -84.3870   40.2350 N.pl3  48  ARG48      -0.0865
     52  CZ       -38.7660  -85.0340   41.2230 C.cat  48  ARG48       0.5346
     53  NH1      -38.0600  -85.6400   42.1710 N.pl3  48  ARG48       0.1354
     54  NH2      -40.0920  -85.0710   41.2660 N.pl3  48  ARG48       0.1354
     55  N        -38.3390  -80.3870   33.9320 N.am   49  ARG49      -0.1966
     56  CA       -38.9220  -80.1420   32.6190 C.3    49  ARG49       0.1729
     57  C        -37.8580  -79.7450   31.5960 C.2    49  ARG49       0.2616
     58  O        -36.7620  -79.3020   31.9570 O.2    49  ARG49      -0.2715
     59  CB       -39.9990  -79.0610   32.6980 C.3    49  ARG49       0.0348
     60  CG       -41.1340  -79.4100   33.6350 C.3    49  ARG49       0.0492
     61  CD       -42.4250  -78.7330   33.2360 C.3    49  ARG49       0.2205
     62  NE       -42.3720  -77.2940   33.4630 N.pl3  49  ARG49      -0.0865
     63  CZ       -43.4330  -76.5000   33.3930 C.cat  49  ARG49       0.5346
     64  NH1      -43.3080  -75.1950   33.6080 N.pl3  49  ARG49       0.1354
     65  NH2      -44.6220  -77.0220   33.1100 N.pl3  49  ARG49       0.1354
     66  N        -38.1840  -79.9380   30.3180 N.am   50  VAL50      -0.1964
     67  CA       -37.3580  -79.4570   29.2150 C.3    50  VAL50       0.1712
     68  C        -37.9530  -78.1410   28.7090 C.2    50  VAL50       0.2458
     69  O        -39.1640  -77.9410   28.7800 O.2    50  VAL50      -0.2730
     70  CB       -37.3120  -80.4820   28.0400 C.3    50  VAL50       0.0289
     71  CG1      -36.4680  -81.6940   28.3930 C.3    50  VAL50       0.0023
     72  CG2      -38.7140  -80.8900   27.6190 C.3    50  VAL50       0.0023
     73  N        -37.1170  -77.2390   28.1770 N.am   51  PRO51      -0.2727
     74  CA       -35.6740  -77.3510   27.9850 C.3    51  PRO51       0.1402
     75  C        -34.8920  -76.9450   29.2160 C.2    51  PRO51       0.2269
     76  O        -35.4440  -76.3860   30.1690 O.2    51  PRO51      -0.2865
     77  CB       -35.4080  -76.3290   26.8880 C.3    51  PRO51       0.0296
     78  CG       -36.3900  -75.2550   27.1840 C.3    51  PRO51       0.0237
     79  CD       -37.6410  -75.9940   27.5910 C.3    51  PRO51       0.0939
     80  N        -36.6230  -73.3520   32.0960 N.3    62  GLU62      -0.1231
     81  CA       -37.5880  -72.3360   31.6500 C.3    62  GLU62       0.1699
     82  C        -37.1000  -71.5430   30.4250 C.2    62  GLU62       0.2592
     83  O        -36.1590  -70.7570   30.5140 O.2    62  GLU62      -0.2718
     84  CB       -37.9920  -71.4110   32.8040 C.3    62  GLU62       0.0402
     85  CG       -38.8680  -72.0780   33.8450 C.3    62  GLU62       0.1161
     86  CD       -40.2730  -72.3390   33.3380 C.2    62  GLU62       0.3649
     87  OE1      -40.8080  -71.4810   32.6100 O.co2  62  GLU62      -0.2457
     88  OE2      -40.8480  -73.4020   33.6570 O.co2  62  GLU62      -0.2457
     89  N        -37.7480  -71.7650   29.2830 N.am   63  SER63      -0.1952
     90  CA       -37.3110  -71.1780   28.0140 C.3    63  SER63       0.1924
     91  C        -37.1870  -69.6530   28.0340 C.2    63  SER63       0.2314
     92  O        -36.1670  -69.1070   27.5940 O.2    63  SER63      -0.2863
     93  CB       -38.2180  -71.6230   26.8550 C.3    63  SER63       0.2116
     94  OG       -39.5850  -71.4520   27.1760 O.3    63  SER63      -0.2180
     95  N        -47.1900  -68.8120   27.8210 N.3   101  ARG101     -0.1245
     96  CA       -46.7460  -69.9200   28.6600 C.3   101  ARG101      0.1563
     97  C        -47.6810  -70.2220   29.8170 C.2   101  ARG101      0.2260
     98  O        -47.4940  -71.2190   30.5160 O.2   101  ARG101     -0.2867
     99  CB       -45.3480  -69.6520   29.2050 C.3   101  ARG101      0.0307
    100  CG       -44.2330  -69.9090   28.2180 C.3   101  ARG101      0.0489
    101  CD       -42.9430  -69.2840   28.7290 C.3   101  ARG101      0.2205
    102  NE       -41.8150  -69.4830   27.8180 N.pl3 101  ARG101     -0.0865
    103  CZ       -41.7140  -68.9200   26.6170 C.cat 101  ARG101      0.5346
    104  NH1      -42.6800  -68.1290   26.1710 N.pl3 101  ARG101      0.1354
    105  NH2      -40.6470  -69.1490   25.8610 N.pl3 101  ARG101      0.1354
@<TRIPOS>BOND
     1     4     3    2
     2     1     2    1
     3     3     2    1
     4     2     5    1
     5     7     8    1
     6     5     6    1
     7     9    10    2
     8     9     8    1
     9     8    11    1
    10    13    15   ar
    11    13    12   ar
    12    15    17   ar
    13   105   103    1
    14    11    12    1
    15    12    14   ar
    16   104   103    1
    17    17    16   ar
    18    21    20    2
    19    14    16   ar
    20   103   102    2
    21    93    94    1
    22    93    90    1
    23    77    78    1
    24    77    74    1
    25    78    79    1
    26    79    73    1
    27    92    91    2
    28    72    70    1
    29    20    19    1
    30    18    19    1
    31   102   101    1
    32    95    96    1
    33    74    73    1
    34    74    75    1
    35    90    91    1
    36    90    89    1
    37    70    71    1
    38    70    67    1
    39    73    68   am
    40   100   101    1
    41   100    99    1
    42    19    22    1
    43    22    23    1
    44    96    99    1
    45    96    97    1
    46    68    69    2
    47    68    67    1
    48    67    66    1
    49    75    76    2
    50    25    23    1
    51    89    82   am
    52    23    24    1
    53    97    98    2
    54    66    57   am
    55    82    83    2
    56    82    81    1
    57    57    58    2
    58    57    56    1
    59    81    80    1
    60    81    84    1
    61    33    32    2
    62    87    86   ar
    63    56    59    1
    64    56    55    1
    65    32    34   am
    66    32    31    1
    67    59    60    1
    68    84    85    1
    69    26    27    1
    70    30    31    1
    71    30    27    1
    72    65    63    1
    73    61    62    1
    74    61    60    1
    75    86    88   ar
    76    86    85    1
    77    63    62    2
    78    63    64    1
    79    27    28    1
    80    55    46   am
    81    47    46    2
    82    46    45    1
    83    28    35   am
    84    28    29    2
    85    42    41    2
    86    35    36    1
    87    45    44    1
    88    45    48    1
    89    41    43   am
    90    41    40    1
    91    48    49    1
    92    36    39    1
    93    36    37    1
    94    39    40    1
    95    38    37    2
    96    49    50    1
    97    50    51    1
    98    51    52    2
    99    52    54    1
   100    52    53    1
