@<TRIPOS>MOLECULE
tmp/4isfA01.pdb
 193 186 0 0 0
SMALL
GASTEIGER

@<TRIPOS>ATOM
      1  N         23.1370   36.9890   55.9700 N.3    53  TYR53      -0.1227
      2  CA        24.2310   37.3020   56.9030 C.3    53  TYR53       0.1736
      3  C         25.5760   37.5410   56.2050 C.2    53  TYR53       0.2595
      4  O         26.6350   37.5610   56.8470 O.2    53  TYR53      -0.2718
      5  CB        24.3250   36.2460   58.0120 C.3    53  TYR53       0.0548
      6  CG        23.0410   36.1630   58.8050 C.ar   53  TYR53      -0.0200
      7  CD1       22.7390   37.1230   59.7590 C.ar   53  TYR53      -0.0009
      8  CD2       22.1070   35.1540   58.5710 C.ar   53  TYR53      -0.0009
      9  CE1       21.5570   37.0740   60.4780 C.ar   53  TYR53       0.0417
     10  CE2       20.9170   35.0980   59.2880 C.ar   53  TYR53       0.0417
     11  CZ        20.6500   36.0630   60.2380 C.ar   53  TYR53       0.1957
     12  OH        19.4760   36.0330   60.9630 O.3    53  TYR53      -0.2866
     13  N         25.5270   37.7550   54.8930 N.am   54  VAL54      -0.1966
     14  CA        26.6910   38.1960   54.1510 C.3    54  VAL54       0.1727
     15  C         26.6570   39.7160   54.2020 C.2    54  VAL54       0.2616
     16  O         25.8680   40.3560   53.4950 O.2    54  VAL54      -0.2715
     17  CB        26.6810   37.6660   52.7080 C.3    54  VAL54       0.0290
     18  CG1       27.8340   38.2520   51.9120 C.3    54  VAL54       0.0023
     19  CG2       26.7500   36.1420   52.7070 C.3    54  VAL54       0.0023
     20  N         27.5050   40.2810   55.0600 N.am   55  ARG55      -0.1963
     21  CA        27.4860   41.7100   55.3690 C.3    55  ARG55       0.1729
     22  C         28.5270   42.4720   54.5570 C.2    55  ARG55       0.2616
     23  O         29.4870   41.8910   54.0700 O.2    55  ARG55      -0.2715
     24  CB        27.7440   41.9370   56.8600 C.3    55  ARG55       0.0348
     25  CG        26.9070   41.0640   57.7860 C.3    55  ARG55       0.0492
     26  CD        27.3170   41.2260   59.2390 C.3    55  ARG55       0.2205
     27  NE        26.3910   42.0720   59.9860 N.pl3  55  ARG55      -0.0865
     28  CZ        25.4170   41.6350   60.7840 C.cat  55  ARG55       0.5346
     29  NH1       24.6460   42.5140   61.4060 N.pl3  55  ARG55       0.1354
     30  NH2       25.2000   40.3360   60.9700 N.pl3  55  ARG55       0.1354
     31  N         28.3170   43.7790   54.4300 N.am   56  SER56      -0.1950
     32  CA        29.2220   44.6710   53.7120 C.3    56  SER56       0.1924
     33  C         30.5020   44.9480   54.5000 C.2    56  SER56       0.2314
     34  O         31.4730   45.4500   53.9420 O.2    56  SER56      -0.2863
     35  CB        28.5150   45.9980   53.4250 C.3    56  SER56       0.2116
     36  OG        27.9640   46.5340   54.6190 O.3    56  SER56      -0.2180
     37  N         33.0020   42.7100   57.1040 N.3    58  PRO58      -0.2116
     38  CA        33.2540   41.4070   57.7090 C.3    58  PRO58       0.1372
     39  C         33.9650   41.5140   59.0590 C.2    58  PRO58       0.2244
     40  O         33.6360   42.3840   59.8650 O.2    58  PRO58      -0.2868
     41  CB        34.1620   40.7310   56.6810 C.3    58  PRO58       0.0268
     42  CG        34.8680   41.8580   55.9880 C.3    58  PRO58       0.0207
     43  CD        34.1570   43.1450   56.2990 C.3    58  PRO58       0.0892
     44  N         33.8490   36.2410   61.4890 N.3    59  SER59      -0.1217
     45  CA        34.9400   37.2590   61.3910 C.3    59  SER59       0.1889
     46  C         36.2820   36.5790   61.0400 C.2    59  SER59       0.2288
     47  O         36.3300   35.7980   60.0880 O.2    59  SER59      -0.2866
     48  CB        35.0070   38.0950   62.6800 C.3    59  SER59       0.2089
     49  OG        35.8480   39.2250   62.5220 O.3    59  SER59      -0.2183
     50  N         40.8260   45.8960   50.3260 N.3    84  GLN84      -0.1231
     51  CA        41.8480   45.1360   49.5360 C.3    84  GLN84       0.1698
     52  C         42.1430   43.7720   50.1730 C.2    84  GLN84       0.2592
     53  O         42.9440   43.6660   51.1030 O.2    84  GLN84      -0.2718
     54  CB        43.1450   45.9530   49.3740 C.3    84  GLN84       0.0381
     55  CG        43.1890   46.8360   48.1290 C.3    84  GLN84       0.0905
     56  CD        41.9440   47.6950   47.9540 C.2    84  GLN84       0.2608
     57  OE1       41.4980   48.3560   48.8910 O.2    84  GLN84      -0.2717
     58  NE2       41.3780   47.6850   46.7510 N.am   84  GLN84      -0.0878
     59  N         41.4730   42.7410   49.6660 N.am   85  TRP85      -0.1976
     60  CA        41.6810   41.3660   50.1160 C.3    85  TRP85       0.1640
     61  C         42.5520   40.6210   49.1140 C.2    85  TRP85       0.2290
     62  O         42.2470   40.5960   47.9260 O.2    85  TRP85      -0.2864
     63  CB        40.3440   40.6380   50.2500 C.3    85  TRP85       0.0576
     64  CG        39.6110   40.8750   51.5430 C.ar   85  TRP85       0.0006
     65  CD1       39.8430   41.8640   52.4580 C.ar   85  TRP85       0.0946
     66  CD2       38.5020   40.1180   52.0440 C.ar   85  TRP85       0.0152
     67  NE1       38.9600   41.7540   53.5060 N.ar   85  TRP85      -0.2442
     68  CE2       38.1250   40.6930   53.2740 C.ar   85  TRP85       0.0810
     69  CE3       37.7950   39.0050   51.5740 C.ar   85  TRP85       0.0012
     70  CZ2       37.0720   40.1920   54.0400 C.ar   85  TRP85       0.0191
     71  CZ3       36.7490   38.5050   52.3390 C.ar   85  TRP85       0.0001
     72  CH2       36.3990   39.0990   53.5590 C.ar   85  TRP85       0.0015
     73  N         43.8060   36.9810   47.8710 N.3    87  VAL87      -0.1245
     74  CA        43.3930   35.5840   47.9500 C.3    87  VAL87       0.1561
     75  C         44.5900   34.7010   47.6030 C.2    87  VAL87       0.2260
     76  O         44.8850   34.4690   46.4340 O.2    87  VAL87      -0.2867
     77  CB        42.1850   35.3000   47.0360 C.3    87  VAL87       0.0252
     78  CG1       41.6680   33.8830   47.2530 C.3    87  VAL87       0.0019
     79  CG2       41.0760   36.3040   47.3100 C.3    87  VAL87       0.0019
     80  N         27.1270   36.5630   43.0950 N.3   173  MET173     -0.1230
     81  CA        27.4420   37.9280   43.4760 C.3   173  MET173      0.1702
     82  C         28.8580   38.0640   44.0230 C.2   173  MET173      0.2592
     83  O         29.5750   38.9810   43.6490 O.2   173  MET173     -0.2718
     84  CB        26.4590   38.4370   44.5160 C.3   173  MET173      0.0401
     85  CG        26.6580   39.9040   44.8610 C.3   173  MET173      0.0596
     86  SD        25.6610   40.4230   46.2690 S.3   173  MET173     -0.1393
     87  CE        26.4250   39.4690   47.5790 C.3   173  MET173      0.0692
     88  N         29.2450   37.1500   44.9090 N.am  174  ILE174     -0.1980
     89  CA        30.5650   37.1860   45.5400 C.3   174  ILE174      0.1595
     90  C         31.6570   36.9360   44.5000 C.2   174  ILE174      0.2287
     91  O         32.6580   37.6540   44.4540 O.2   174  ILE174     -0.2864
     92  CB        30.6760   36.1400   46.6720 C.3   174  ILE174      0.0276
     93  CG1       29.7510   36.5010   47.8350 C.3   174  ILE174      0.0022
     94  CG2       32.1030   36.0520   47.1960 C.3   174  ILE174      0.0022
     95  CD1       29.4290   35.3350   48.7360 C.3   174  ILE174      0.0001
     96  N         31.8470   39.9030   42.3590 N.3   177  TYR177     -0.1227
     97  CA        32.4260   40.9930   43.1600 C.3   177  TYR177      0.1736
     98  C         33.9530   40.9310   43.1820 C.2   177  TYR177      0.2595
     99  O         34.6250   41.9640   43.1270 O.2   177  TYR177     -0.2718
    100  CB        31.8990   40.9690   44.5940 C.3   177  TYR177      0.0548
    101  CG        32.4700   42.0560   45.4850 C.ar  177  TYR177     -0.0200
    102  CD1       31.8340   43.2800   45.6070 C.ar  177  TYR177     -0.0009
    103  CD2       33.6320   41.8460   46.2240 C.ar  177  TYR177     -0.0009
    104  CE1       32.3400   44.2730   46.4280 C.ar  177  TYR177      0.0417
    105  CE2       34.1490   42.8360   47.0480 C.ar  177  TYR177      0.0417
    106  CZ        33.4980   44.0470   47.1420 C.ar  177  TYR177      0.1957
    107  OH        33.9890   45.0440   47.9470 O.3   177  TYR177     -0.2866
    108  N         34.4980   39.7210   43.2670 N.am  178  TYR178     -0.1976
    109  CA        35.9440   39.5450   43.1870 C.3   178  TYR178      0.1639
    110  C         36.5350   40.2660   41.9620 C.2   178  TYR178      0.2290
    111  O         37.6010   40.8590   42.0540 O.2   178  TYR178     -0.2864
    112  CB        36.3350   38.0670   43.1490 C.3   178  TYR178      0.0560
    113  CG        37.8260   37.8980   43.0490 C.ar  178  TYR178     -0.0198
    114  CD1       38.4290   37.4860   41.8630 C.ar  178  TYR178     -0.0009
    115  CD2       38.6440   38.2190   44.1250 C.ar  178  TYR178     -0.0009
    116  CE1       39.8080   37.3670   41.7680 C.ar  178  TYR178      0.0417
    117  CE2       40.0170   38.0990   44.0420 C.ar  178  TYR178      0.0417
    118  CZ        40.5970   37.6790   42.8610 C.ar  178  TYR178      0.1957
    119  OH        41.9650   37.5710   42.7910 O.3   178  TYR178     -0.2866
    120  N         34.2480   45.3270   42.0390 N.3   181  HIS181     -0.1241
    121  CA        33.8090   45.6800   43.3900 C.3   181  HIS181      0.1621
    122  C         32.5030   46.4660   43.4500 C.2   181  HIS181      0.2264
    123  O         32.0080   46.7590   44.5410 O.2   181  HIS181     -0.2867
    124  CB        34.9130   46.4520   44.1150 C.3   181  HIS181      0.0745
    125  CG        36.0670   45.5960   44.5330 C.ar  181  HIS181      0.0817
    126  ND1       36.9050   45.9320   45.5750 N.ar  181  HIS181     -0.2268
    127  CD2       36.5110   44.4080   44.0600 C.ar  181  HIS181      0.1154
    128  CE1       37.8220   44.9920   45.7180 C.ar  181  HIS181      0.1986
    129  NE2       37.6070   44.0580   44.8090 N.ar  181  HIS181     -0.2212
    130  N         29.8580   45.1090   42.0810 N.3   183  CYS183     -0.1221
    131  CA        28.8350   44.0740   41.9980 C.3   183  CYS183      0.1808
    132  C         28.1600   43.9040   43.3570 C.2   183  CYS183      0.2601
    133  O         28.7890   43.4780   44.3190 O.2   183  CYS183     -0.2717
    134  CB        29.4040   42.7470   41.5100 C.3   183  CYS183      0.0970
    135  SG        28.1430   41.4590   41.3380 S.3   183  CYS183     -0.0800
    136  N         26.8890   44.2790   43.4310 N.am  184  GLU184     -0.1979
    137  CA        26.1060   44.1300   44.6560 C.3   184  GLU184      0.1602
    138  C         24.7740   43.4320   44.3840 C.2   184  GLU184      0.2287
    139  O         23.8460   43.4970   45.1880 O.2   184  GLU184     -0.2864
    140  CB        25.8820   45.4980   45.3010 C.3   184  GLU184      0.0415
    141  CG        27.1730   46.2090   45.6810 C.3   184  GLU184      0.1163
    142  CD        26.9280   47.4400   46.5310 C.2   184  GLU184      0.3649
    143  OE1       26.4520   47.2990   47.6810 O.co2 184  GLU184     -0.2457
    144  OE2       27.2010   48.5570   46.0480 O.co2 184  GLU184     -0.2457
    145  N         22.5290   43.5530   47.8220 N.3   198  MET198     -0.1245
    146  CA        22.9650   44.1890   49.0650 C.3   198  MET198      0.1570
    147  C         21.9440   45.2410   49.4970 C.2   198  MET198      0.2261
    148  O         21.8970   46.3340   48.9410 O.2   198  MET198     -0.2867
    149  CB        24.3470   44.8270   48.8880 C.3   198  MET198      0.0387
    150  CG        25.4440   43.8410   48.5210 C.3   198  MET198      0.0595
    151  SD        25.6070   42.5000   49.7160 S.3   198  MET198     -0.1393
    152  CE        26.1310   43.4170   51.1600 C.3   198  MET198      0.0692
    153  N         36.9020   32.9690   47.0750 N.3   414  LEU414     -0.1245
    154  CA        36.2840   34.0330   47.8490 C.3   414  LEU414      0.1561
    155  C         34.8730   33.6410   48.3010 C.2   414  LEU414      0.2260
    156  O         34.4630   33.9840   49.4040 O.2   414  LEU414     -0.2867
    157  CB        36.2520   35.3350   47.0420 C.3   414  LEU414      0.0270
    158  CG        35.7750   36.5700   47.8070 C.3   414  LEU414      0.0019
    159  CD1       36.7430   36.8970   48.9300 C.3   414  LEU414      0.0001
    160  CD2       35.6060   37.7710   46.8790 C.3   414  LEU414      0.0001
    161  N         33.8160   33.6840   52.2630 N.3   418  VAL418     -0.1245
    162  CA        32.6350   34.2740   52.8770 C.3   418  VAL418      0.1561
    163  C         31.8030   33.2090   53.5900 C.2   418  VAL418      0.2260
    164  O         31.3630   33.4280   54.7080 O.2   418  VAL418     -0.2867
    165  CB        31.7720   35.0450   51.8500 C.3   418  VAL418      0.0252
    166  CG1       30.5150   35.5930   52.5170 C.3   418  VAL418      0.0019
    167  CG2       32.5790   36.1710   51.2170 C.3   418  VAL418      0.0019
    168  N         33.5650   32.3580   56.7810 N.3   421  LYS421     -0.1231
    169  CA        33.5170   33.4760   57.7150 C.3   421  LYS421      0.1693
    170  C         32.1110   33.6590   58.2670 C.2   421  LYS421      0.2591
    171  O         31.9500   33.9710   59.4430 O.2   421  LYS421     -0.2718
    172  CB        34.0050   34.7720   57.0580 C.3   421  LYS421      0.0285
    173  CG        35.4960   34.7660   56.7440 C.3   421  LYS421      0.0035
    174  CD        35.9200   35.9650   55.8970 C.3   421  LYS421      0.0206
    175  CE        36.6580   37.0140   56.7180 C.3   421  LYS421      0.1093
    176  NZ        38.0700   36.6190   56.9950 N.3   421  LYS421     -0.1314
    177  N         31.0990   33.4540   57.4220 N.am  422  LYS422     -0.1980
    178  CA        29.7080   33.4990   57.8820 C.3   422  LYS422      0.1596
    179  C         29.4450   32.4340   58.9450 C.2   422  LYS422      0.2287
    180  O         28.9100   32.7410   60.0160 O.2   422  LYS422     -0.2864
    181  CB        28.7440   33.3340   56.7080 C.3   422  LYS422      0.0298
    182  CG        27.2840   33.1280   57.0890 C.3   422  LYS422      0.0038
    183  CD        26.4800   32.7040   55.8710 C.3   422  LYS422      0.0206
    184  CE        25.0450   32.3490   56.2210 C.3   422  LYS422      0.1093
    185  NZ        24.2250   32.3100   54.9700 N.3   422  LYS422     -0.1314
    186  N         31.0100   33.4140   62.0990 N.3   425  MET425     -0.1245
    187  CA        30.2500   34.5120   62.6890 C.3   425  MET425      0.1570
    188  C         28.9780   34.0170   63.3880 C.2   425  MET425      0.2261
    189  O         28.6010   34.5430   64.4270 O.2   425  MET425     -0.2867
    190  CB        29.8910   35.5350   61.6090 C.3   425  MET425      0.0387
    191  CG        29.2840   36.8270   62.1310 C.3   425  MET425      0.0595
    192  SD        28.8010   37.9280   60.7850 S.3   425  MET425     -0.1393
    193  CE        27.3780   37.0620   60.1190 C.3   425  MET425      0.0692
@<TRIPOS>BOND
     1   135   134    1
     2   134   131    1
     3   116   114   ar
     4   116   118   ar
     5   114   113   ar
     6   110   111    2
     7   110   109    1
     8   131   130    1
     9   131   132    1
    10   120   121    1
    11    96    97    1
    12   119   118    1
    13   118   117   ar
    14   113   112    1
    15   113   115   ar
    16    80    81    1
    17    99    98    2
    18   112   109    1
    19    97    98    1
    20    97   100    1
    21    98   108   am
    22   109   108    1
    23   132   136   am
    24   132   133    2
    25   121   122    1
    26   121   124    1
    27   136   137    1
    28   122   123    2
    29    81    82    1
    30    81    84    1
    31    83    82    2
    32    82    88   am
    33   117   115   ar
    34   127   125   ar
    35   127   129   ar
    36   124   125    1
    37   138   137    1
    38   138   139    2
    39    91    90    2
    40    90    89    1
    41    84    85    1
    42   125   126   ar
    43   100   101    1
    44   137   140    1
    45   129   128   ar
    46    85    86    1
    47    88    89    1
    48   140   141    1
    49   101   102   ar
    50   101   103   ar
    51    89    92    1
    52   126   128   ar
    53   102   104   ar
    54   141   142    1
    55   144   142   ar
    56   103   105   ar
    57    86    87    1
    58   104   106   ar
    59    76    75    2
    60   142   143   ar
    61    92    94    1
    62    92    93    1
    63    58    56   am
    64   160   158    1
    65    77    78    1
    66    77    79    1
    67    77    74    1
    68   157   158    1
    69   157   154    1
    70   105   106   ar
    71   153   154    1
    72   106   107    1
    73    75    74    1
    74   158   159    1
    75   145   146    1
    76    93    95    1
    77   154   155    1
    78    73    74    1
    79    62    61    2
    80    56    55    1
    81    56    57    2
    82    55    54    1
    83   155   156    2
    84   150   149    1
    85   150   151    1
    86   149   146    1
    87   148   147    2
    88   146   147    1
    89    61    60    1
    90    54    51    1
    91    51    52    1
    92    51    50    1
    93    59    60    1
    94    59    52   am
    95   151   152    1
    96    60    63    1
    97    52    53    2
    98    63    64    1
    99   167   165    1
   100    64    66   ar
   101    64    65   ar
   102    69    66   ar
   103    69    71   ar
   104   165   166    1
   105   165   162    1
   106    18    17    1
   107    66    68   ar
   108   161   162    1
   109    71    72   ar
   110    65    67   ar
   111    19    17    1
   112    17    14    1
   113   162   163    1
   114    68    67   ar
   115    68    70   ar
   116    35    32    1
   117    35    36    1
   118    16    15    2
   119    72    70   ar
   120   163   164    2
   121    32    31    1
   122    32    33    1
   123    34    33    2
   124    23    22    2
   125    14    15    1
   126    14    13    1
   127    15    20   am
   128    31    22   am
   129    22    21    1
   130    13     3   am
   131   185   184    1
   132    20    21    1
   133    21    24    1
   134   183   184    1
   135   183   182    1
   136   174   175    1
   137   174   173    1
   138     1     2    1
   139    42    43    1
   140    42    41    1
   141     3     4    2
   142     3     2    1
   143    43    37    1
   144    41    38    1
   145   181   182    1
   146   181   178    1
   147   175   176    1
   148   173   172    1
   149   168   169    1
   150    24    25    1
   151     2     5    1
   152   172   169    1
   153    37    38    1
   154   177   178    1
   155   177   170   am
   156    38    39    1
   157   169   170    1
   158    25    26    1
   159   178   179    1
   160     5     6    1
   161   170   171    2
   162     8     6   ar
   163     8    10   ar
   164     6     7   ar
   165   179   180    2
   166    39    40    2
   167    26    27    1
   168    10    11   ar
   169     7     9   ar
   170    27    28    2
   171    47    46    2
   172   193   192    1
   173    11     9   ar
   174    11    12    1
   175    28    30    1
   176    28    29    1
   177   192   191    1
   178    46    45    1
   179    45    44    1
   180    45    48    1
   181   190   191    1
   182   190   187    1
   183   186   187    1
   184    49    48    1
   185   187   188    1
   186   188   189    2
