@<TRIPOS>MOLECULE
tmp/4isgA01.pdb
 174 169 0 0 0
SMALL
GASTEIGER

@<TRIPOS>ATOM
      1  N         22.8300   -1.5040   -3.6560 N.3    53  TYR53      -0.1227
      2  CA        23.9150   -1.2100   -2.6970 C.3    53  TYR53       0.1736
      3  C         25.2820   -0.9720   -3.3580 C.2    53  TYR53       0.2595
      4  O         26.3170   -0.9670   -2.6760 O.2    53  TYR53      -0.2718
      5  CB        23.9970   -2.2900   -1.6000 C.3    53  TYR53       0.0548
      6  CG        22.7420   -2.3300   -0.7730 C.ar   53  TYR53      -0.0200
      7  CD1       22.5240   -1.4030    0.2370 C.ar   53  TYR53      -0.0009
      8  CD2       21.7450   -3.2620   -1.0370 C.ar   53  TYR53      -0.0009
      9  CE1       21.3530   -1.4170    0.9760 C.ar   53  TYR53       0.0417
     10  CE2       20.5700   -3.2860   -0.2990 C.ar   53  TYR53       0.0417
     11  CZ        20.3780   -2.3620    0.7030 C.ar   53  TYR53       0.1957
     12  OH        19.2050   -2.3950    1.4290 O.3    53  TYR53      -0.2866
     13  N         25.2620   -0.7400   -4.6740 N.am   54  VAL54      -0.1966
     14  CA        26.4350   -0.3320   -5.4280 C.3    54  VAL54       0.1727
     15  C         26.4650    1.1860   -5.4010 C.2    54  VAL54       0.2616
     16  O         25.8520    1.8470   -6.2330 O.2    54  VAL54      -0.2715
     17  CB        26.3860   -0.8490   -6.8780 C.3    54  VAL54       0.0290
     18  CG1       27.4960   -0.2350   -7.7200 C.3    54  VAL54       0.0023
     19  CG2       26.4800   -2.3660   -6.8960 C.3    54  VAL54       0.0023
     20  N         27.1840    1.7300   -4.4290 N.am   55  ARG55      -0.1963
     21  CA        27.1880    3.1690   -4.1680 C.3    55  ARG55       0.1729
     22  C         28.1700    3.9200   -5.0650 C.2    55  ARG55       0.2617
     23  O         29.0900    3.3230   -5.6160 O.2    55  ARG55      -0.2715
     24  CB        27.5180    3.4230   -2.6950 C.3    55  ARG55       0.0348
     25  CG        26.5220    2.7830   -1.7380 C.3    55  ARG55       0.0492
     26  CD        26.8750    3.0650   -0.2960 C.3    55  ARG55       0.2205
     27  NE        25.9650    2.3980    0.6320 N.pl3  55  ARG55      -0.0865
     28  CZ        24.9540    2.9770    1.2860 C.cat  55  ARG55       0.5346
     29  NH1       24.2130    2.2420    2.1170 N.pl3  55  ARG55       0.1354
     30  NH2       24.6690    4.2720    1.1310 N.pl3  55  ARG55       0.1354
     31  N         27.9650    5.2300   -5.2010 N.am   56  SER56      -0.1936
     32  CA        28.8460    6.0880   -5.9940 C.3    56  SER56       0.2055
     33  C         30.1890    6.3630   -5.3120 C.2    56  SER56       0.2644
     34  O         31.0660    6.9820   -5.9060 O.2    56  SER56      -0.2714
     35  CB        28.1580    7.4180   -6.3010 C.3    56  SER56       0.2130
     36  OG        27.9670    8.1810   -5.1210 O.3    56  SER56      -0.2179
     37  N         30.3460    5.9240   -4.0680 N.am   57  THR57      -0.1937
     38  CA        31.6150    6.0570   -3.3710 C.3    57  THR57       0.2013
     39  C         32.2150    4.6770   -3.1720 C.2    57  THR57       0.2484
     40  O         31.4930    3.7290   -2.8680 O.2    57  THR57      -0.2729
     41  CB        31.4400    6.7220   -1.9930 C.3    57  THR57       0.1807
     42  OG1       30.3770    7.6760   -2.0530 O.3    57  THR57      -0.2208
     43  CG2       32.7250    7.4280   -1.5660 C.3    57  THR57       0.0379
     44  N         33.5390    4.5520   -3.3480 N.am   58  PRO58      -0.2715
     45  CA        34.1670    3.2700   -3.0410 C.3    58  PRO58       0.1536
     46  C         33.9910    2.8650   -1.5640 C.2    58  PRO58       0.2598
     47  O         34.3900    3.6040   -0.6590 O.2    58  PRO58      -0.2715
     48  CB        35.6470    3.5150   -3.3810 C.3    58  PRO58       0.0310
     49  CG        35.8150    5.0000   -3.3820 C.3    58  PRO58       0.0237
     50  CD        34.5100    5.5210   -3.8890 C.3    58  PRO58       0.0939
     51  N         33.3690    1.7080   -1.3460 N.am   59  GLU59      -0.1978
     52  CA        33.2070    1.1110   -0.0170 C.3    59  GLU59       0.1602
     53  C         33.9630   -0.2240    0.0600 C.2    59  GLU59       0.2287
     54  O         34.5120   -0.6980   -0.9380 O.2    59  GLU59      -0.2864
     55  CB        31.7140    0.9120    0.3020 C.3    59  GLU59       0.0415
     56  CG        31.1400    1.8800    1.3350 C.3    59  GLU59       0.1163
     57  CD        31.2580    3.3430    0.9400 C.2    59  GLU59       0.3649
     58  OE1       32.3260    3.9440    1.1830 O.co2  59  GLU59      -0.2457
     59  OE2       30.2730    3.9010    0.4110 O.co2  59  GLU59      -0.2457
     60  N         40.8950    7.1520   -8.5020 N.3    86  GLN86      -0.1231
     61  CA        40.9070    6.0480   -9.4600 C.3    86  GLN86       0.1698
     62  C         41.6010    4.7860   -8.9120 C.2    86  GLN86       0.2592
     63  O         42.6080    4.8850   -8.2020 O.2    86  GLN86      -0.2718
     64  CB        41.5850    6.4960  -10.7550 C.3    86  GLN86       0.0381
     65  CG        41.4430    5.5200  -11.9170 C.3    86  GLN86       0.0905
     66  CD        39.9990    5.1540  -12.2230 C.2    86  GLN86       0.2608
     67  OE1       39.6890    3.9880  -12.4620 O.2    86  GLN86      -0.2717
     68  NE2       39.1080    6.1450  -12.2070 N.am   86  GLN86      -0.0878
     69  N         41.0610    3.6100   -9.2550 N.am   87  TRP87      -0.1976
     70  CA        41.5420    2.3170   -8.7210 C.3    87  TRP87       0.1640
     71  C         42.5280    1.6100   -9.6490 C.2    87  TRP87       0.2290
     72  O         42.2890    1.4980  -10.8540 O.2    87  TRP87      -0.2864
     73  CB        40.3830    1.3390   -8.4660 C.3    87  TRP87       0.0576
     74  CG        39.6460    1.4930   -7.1600 C.ar   87  TRP87       0.0006
     75  CD1       40.0040    2.2570   -6.0810 C.ar   87  TRP87       0.0946
     76  CD2       38.4410    0.8150   -6.7840 C.ar   87  TRP87       0.0152
     77  NE1       39.0800    2.1150   -5.0740 N.ar   87  TRP87      -0.2442
     78  CE2       38.1130    1.2340   -5.4780 C.ar   87  TRP87       0.0810
     79  CE3       37.6030   -0.0980   -7.4320 C.ar   87  TRP87       0.0012
     80  CZ2       36.9850    0.7720   -4.8080 C.ar   87  TRP87       0.0191
     81  CZ3       36.4860   -0.5570   -6.7690 C.ar   87  TRP87       0.0001
     82  CH2       36.1810   -0.1180   -5.4690 C.ar   87  TRP87       0.0015
     83  N         26.8760   -2.1020  -16.5530 N.3   169  MET169     -0.1230
     84  CA        27.1670   -0.7180  -16.1810 C.3   169  MET169      0.1702
     85  C         28.5900   -0.5790  -15.6400 C.2   169  MET169      0.2592
     86  O         29.3060    0.3470  -16.0060 O.2   169  MET169     -0.2718
     87  CB        26.1900   -0.2070  -15.1240 C.3   169  MET169      0.0401
     88  CG        26.3760    1.2740  -14.8160 C.3   169  MET169      0.0596
     89  SD        25.4480    1.8740  -13.4030 S.3   169  MET169     -0.1393
     90  CE        26.0250    0.7850  -12.1100 C.3   169  MET169      0.0692
     91  N         28.9880   -1.5050  -14.7750 N.am  170  ILE170     -0.1980
     92  CA        30.2770   -1.4340  -14.1050 C.3   170  ILE170      0.1595
     93  C         31.4420   -1.6620  -15.0820 C.2   170  ILE170      0.2287
     94  O         32.4400   -0.9210  -15.0350 O.2   170  ILE170     -0.2864
     95  CB        30.3540   -2.4370  -12.9330 C.3   170  ILE170      0.0276
     96  CG1       29.3910   -2.0310  -11.8210 C.3   170  ILE170      0.0022
     97  CG2       31.7580   -2.4960  -12.3580 C.3   170  ILE170      0.0022
     98  CD1       29.0780   -3.1450  -10.8470 C.3   170  ILE170      0.0001
     99  N         31.7240    1.2390  -17.3170 N.3   173  TYR173     -0.1241
    100  CA        32.3120    2.3340  -16.5510 C.3   173  TYR173      0.1605
    101  C         33.8390    2.2690  -16.5230 C.2   173  TYR173      0.2264
    102  O         34.5050    3.2970  -16.4750 O.2   173  TYR173     -0.2867
    103  CB        31.7650    2.3480  -15.1250 C.3   173  TYR173      0.0534
    104  CG        32.4860    3.2900  -14.1900 C.ar  173  TYR173     -0.0201
    105  CD1       32.0880    4.6110  -14.0660 C.ar  173  TYR173     -0.0009
    106  CD2       33.5550    2.8480  -13.4230 C.ar  173  TYR173     -0.0009
    107  CE1       32.7400    5.4720  -13.2040 C.ar  173  TYR173      0.0417
    108  CE2       34.2160    3.6990  -12.5560 C.ar  173  TYR173      0.0417
    109  CZ        33.8060    5.0070  -12.4510 C.ar  173  TYR173      0.1957
    110  OH        34.4600    5.8520  -11.5960 O.3   173  TYR173     -0.2866
    111  N         29.8570    6.4690  -17.5830 N.3   179  CYS179     -0.1221
    112  CA        28.7760    5.4920  -17.6380 C.3   179  CYS179      0.1808
    113  C         28.0700    5.3660  -16.2880 C.2   179  CYS179      0.2601
    114  O         28.6970    5.0650  -15.2780 O.2   179  CYS179     -0.2717
    115  CB        29.2680    4.1260  -18.1060 C.3   179  CYS179      0.0970
    116  SG        27.9050    2.9520  -18.2770 S.3   179  CYS179     -0.0800
    117  N         26.7650    5.6190  -16.2880 N.am  180  GLU180     -0.1979
    118  CA        25.9550    5.5540  -15.0770 C.3   180  GLU180      0.1602
    119  C         24.6220    4.8390  -15.3030 C.2   180  GLU180      0.2287
    120  O         23.7060    4.9580  -14.4940 O.2   180  GLU180     -0.2864
    121  CB        25.7120    6.9660  -14.5410 C.3   180  GLU180      0.0415
    122  CG        26.9240    7.5890  -13.8590 C.3   180  GLU180      0.1163
    123  CD        26.5420    8.7890  -13.0110 C.2   180  GLU180      0.3649
    124  OE1       26.9590    8.8620  -11.8280 O.co2 180  GLU180     -0.2457
    125  OE2       25.7980    9.6460  -13.5300 O.co2 180  GLU180     -0.2457
    126  N         22.2320    4.9660  -11.7970 N.3   194  MET194     -0.1245
    127  CA        22.6560    5.5750  -10.5490 C.3   194  MET194      0.1570
    128  C         21.6410    6.6380  -10.0910 C.2   194  MET194      0.2261
    129  O         21.5750    7.7380  -10.6430 O.2   194  MET194     -0.2867
    130  CB        24.0600    6.1710  -10.7190 C.3   194  MET194      0.0387
    131  CG        25.1490    5.1560  -11.0820 C.3   194  MET194      0.0595
    132  SD        25.3810    3.8420   -9.8580 S.3   194  MET194     -0.1393
    133  CE        25.9220    4.7940   -8.4420 C.3   194  MET194      0.0692
    134  N         36.6860   -5.4890  -12.5420 N.3   404  LEU404     -0.1245
    135  CA        36.0160   -4.4140  -11.8260 C.3   404  LEU404      0.1561
    136  C         34.6230   -4.8320  -11.3560 C.2   404  LEU404      0.2260
    137  O         34.1680   -4.3870  -10.3120 O.2   404  LEU404     -0.2867
    138  CB        35.9340   -3.1440  -12.6800 C.3   404  LEU404      0.0270
    139  CG        35.2750   -1.9560  -11.9870 C.3   404  LEU404      0.0019
    140  CD1       36.0110   -1.6040  -10.7020 C.3   404  LEU404      0.0001
    141  CD2       35.2000   -0.7560  -12.9140 C.3   404  LEU404      0.0001
    142  N         33.7160   -4.8830   -7.1990 N.3   408  VAL408     -0.1245
    143  CA        32.5350   -4.2510   -6.6580 C.3   408  VAL408      0.1561
    144  C         31.6540   -5.2750   -5.9360 C.2   408  VAL408      0.2260
    145  O         31.2070   -5.0320   -4.8170 O.2   408  VAL408     -0.2867
    146  CB        31.7550   -3.5240   -7.7750 C.3   408  VAL408      0.0252
    147  CG1       30.3790   -3.0830   -7.3000 C.3   408  VAL408      0.0019
    148  CG2       32.5430   -2.3170   -8.2600 C.3   408  VAL408      0.0019
    149  N         33.3590   -6.1900   -2.7080 N.3   411  LYS411     -0.1231
    150  CA        33.3650   -5.0550   -1.7830 C.3   411  LYS411      0.1693
    151  C         31.9680   -4.7550   -1.2480 C.2   411  LYS411      0.2591
    152  O         31.8130   -4.4510   -0.0710 O.2   411  LYS411     -0.2718
    153  CB        33.9630   -3.8180   -2.4430 C.3   411  LYS411      0.0285
    154  CG        35.4780   -3.8750   -2.5530 C.3   411  LYS411      0.0035
    155  CD        36.0350   -2.7920   -3.4690 C.3   411  LYS411      0.0206
    156  CE        37.5560   -2.8620   -3.5720 C.3   411  LYS411      0.1093
    157  NZ        38.2450   -2.3380   -2.3570 N.3   411  LYS411     -0.1314
    158  N         30.9610   -4.8380   -2.1150 N.am  412  LYS412     -0.1980
    159  CA        29.5620   -4.8060   -1.6900 C.3   412  LYS412      0.1596
    160  C         29.2930   -5.8350   -0.5910 C.2   412  LYS412      0.2287
    161  O         28.6290   -5.5310    0.4030 O.2   412  LYS412     -0.2864
    162  CB        28.6390   -5.0970   -2.8760 C.3   412  LYS412      0.0298
    163  CG        27.1650   -5.2010   -2.5160 C.3   412  LYS412      0.0038
    164  CD        26.3120   -5.6770   -3.6870 C.3   412  LYS412      0.0206
    165  CE        24.9320   -6.1120   -3.2060 C.3   412  LYS412      0.1093
    166  NZ        23.9520   -6.2830   -4.3120 N.3   412  LYS412     -0.1314
    167  N         30.9340   -4.8800    2.7170 N.3   415  MET415     -0.1245
    168  CA        30.1290   -3.7700    3.2520 C.3   415  MET415      0.1570
    169  C         28.8540   -4.2510    3.9510 C.2   415  MET415      0.2261
    170  O         28.4890   -3.7350    5.0060 O.2   415  MET415     -0.2867
    171  CB        29.7600   -2.8040    2.1120 C.3   415  MET415      0.0387
    172  CG        29.1530   -1.4660    2.5290 C.3   415  MET415      0.0595
    173  SD        28.3770   -0.5840    1.1430 S.3   415  MET415     -0.1393
    174  CE        26.9250   -1.5890    0.8170 C.3   415  MET415      0.0692
@<TRIPOS>BOND
     1   116   115    1
     2   115   112    1
     3   112   111    1
     4   112   113    1
     5    99   100    1
     6    83    84    1
     7   100   101    1
     8   100   103    1
     9   101   102    2
    10   113   117   am
    11   113   114    2
    12   117   118    1
    13    84    85    1
    14    84    87    1
    15    86    85    2
    16    85    91   am
    17   119   118    1
    18   119   120    2
    19   103   104    1
    20    87    88    1
    21    93    94    2
    22    93    92    1
    23   118   121    1
    24    88    89    1
    25    91    92    1
    26   121   122    1
    27   104   105   ar
    28   104   106   ar
    29    92    95    1
    30   105   107   ar
    31   122   123    1
    32   125   123   ar
    33   106   108   ar
    34    89    90    1
    35   107   109   ar
    36   123   124   ar
    37    95    97    1
    38    95    96    1
    39   141   139    1
    40   138   139    1
    41   138   135    1
    42   108   109   ar
    43   134   135    1
    44    67    66    2
    45   109   110    1
    46    66    68   am
    47    66    65    1
    48   139   140    1
    49    65    64    1
    50   135   136    1
    51    96    98    1
    52   126   127    1
    53   136   137    2
    54   131   130    1
    55   131   132    1
    56    72    71    2
    57    64    61    1
    58   130   127    1
    59   129   128    2
    60   127   128    1
    61   132   133    1
    62    71    70    1
    63    61    62    1
    64    61    60    1
    65    69    62   am
    66    69    70    1
    67    62    63    2
    68    70    73    1
    69    73    74    1
    70   148   146    1
    71   146   147    1
    72   146   143    1
    73    18    17    1
    74    79    76   ar
    75    79    81   ar
    76   142   143    1
    77    74    76   ar
    78    74    75   ar
    79    19    17    1
    80    17    14    1
    81    76    78   ar
    82    81    82   ar
    83   143   144    1
    84    35    32    1
    85    35    36    1
    86    16    15    2
    87    75    77   ar
    88    32    33    1
    89    32    31    1
    90   144   145    2
    91    34    33    2
    92    23    22    2
    93    78    77   ar
    94    78    80   ar
    95    82    80   ar
    96    14    15    1
    97    14    13    1
    98    15    20   am
    99    33    37   am
   100    31    22   am
   101    22    21    1
   102    13     3   am
   103    20    21    1
   104   166   165    1
   105    21    24    1
   106    37    38    1
   107    50    49    1
   108    50    44    1
   109   164   165    1
   110   164   163    1
   111     1     2    1
   112   156   155    1
   113   156   157    1
   114   155   154    1
   115    49    48    1
   116    48    45    1
   117    38    39    1
   118    38    41    1
   119     3     2    1
   120     3     4    2
   121    44    39   am
   122    44    45    1
   123    39    40    2
   124    45    46    1
   125   162   163    1
   126   162   159    1
   127   149   150    1
   128     2     5    1
   129    24    25    1
   130   154   153    1
   131   153   150    1
   132   158   159    1
   133   158   151   am
   134    42    41    1
   135    41    43    1
   136   150   151    1
   137    25    26    1
   138   159   160    1
   139     5     6    1
   140    46    51   am
   141    46    47    2
   142    51    52    1
   143   151   152    2
   144     8     6   ar
   145     8    10   ar
   146    54    53    2
   147     6     7   ar
   148   160   161    2
   149    10    11   ar
   150    26    27    1
   151    52    53    1
   152    52    55    1
   153     7     9   ar
   154    55    56    1
   155    59    57   ar
   156    27    28    2
   157    11     9   ar
   158    11    12    1
   159   174   173    1
   160    57    58   ar
   161    57    56    1
   162    30    28    1
   163   173   172    1
   164    28    29    1
   165   171   172    1
   166   171   168    1
   167   167   168    1
   168   168   169    1
   169   169   170    2
