@<TRIPOS>MOLECULE
tmp/4ishA00.pdb
 193 189 0 0 0
SMALL
GASTEIGER

@<TRIPOS>ATOM
      1  N          4.7860   34.0030   17.2810 N.3    41  HIS41      -0.1241
      2  CA         4.5480   35.3570   17.7910 C.3    41  HIS41       0.1621
      3  C          5.6460   36.3500   17.4180 C.2    41  HIS41       0.2264
      4  O          5.4390   37.5640   17.4730 O.2    41  HIS41      -0.2867
      5  CB         4.3440   35.3360   19.3190 C.3    41  HIS41       0.0745
      6  CG         5.6130   35.3470   20.1200 C.ar   41  HIS41       0.0817
      7  ND1        6.0290   34.2650   20.8680 N.ar   41  HIS41      -0.2268
      8  CD2        6.5200   36.3270   20.3450 C.ar   41  HIS41       0.1154
      9  CE1        7.1330   34.5800   21.5210 C.ar   41  HIS41       0.1986
     10  NE2        7.4530   35.8260   21.2210 N.ar   41  HIS41      -0.2212
     11  N          4.2570   38.7010   14.5530 N.3    44  ASP44      -0.1225
     12  CA         2.9850   39.4120   14.7040 C.3    44  ASP44       0.1805
     13  C          3.0180   40.8350   14.1490 C.2    44  ASP44       0.2597
     14  O          2.0180   41.3230   13.6190 O.2    44  ASP44      -0.2718
     15  CB         2.5850   39.4890   16.1790 C.3    44  ASP44       0.1424
     16  CG         1.9230   38.2230   16.6830 C.2    44  ASP44       0.3668
     17  OD1        1.9260   37.2010   15.9630 O.co2  44  ASP44      -0.2456
     18  OD2        1.3910   38.2580   17.8140 O.co2  44  ASP44      -0.2456
     19  N          4.1560   41.5060   14.2880 N.am   45  LYS45      -0.1979
     20  CA         4.2360   42.9310   13.9820 C.3    45  LYS45       0.1596
     21  C          5.1010   43.2690   12.7740 C.2    45  LYS45       0.2287
     22  O          5.3990   44.4360   12.5350 O.2    45  LYS45      -0.2864
     23  CB         4.7590   43.6990   15.1960 C.3    45  LYS45       0.0298
     24  CG         3.8480   43.6450   16.4080 C.3    45  LYS45       0.0038
     25  CD         4.5490   44.2000   17.6350 C.3    45  LYS45       0.0206
     26  CE         3.6440   44.1700   18.8560 C.3    45  LYS45       0.1093
     27  NZ         4.3910   44.5260   20.0950 N.3    45  LYS45      -0.1314
     28  N         -1.1620   37.5440   18.9080 N.3    85  GLY85      -0.1210
     29  CA        -1.4020   38.1700   20.1960 C.3    85  GLY85       0.1956
     30  C         -1.7560   37.2040   21.3140 C.2    85  GLY85       0.2613
     31  O         -1.9240   37.6210   22.4600 O.2    85  GLY85      -0.2717
     32  N         -1.8760   35.9180   20.9950 N.am   86  THR86      -0.1938
     33  CA        -2.1590   34.9110   22.0120 C.3    86  THR86       0.2028
     34  C         -1.0050   33.9180   22.1200 C.2    86  THR86       0.2642
     35  O          0.0550   34.1240   21.5270 O.2    86  THR86      -0.2714
     36  CB        -3.4630   34.1500   21.7040 C.3    86  THR86       0.1808
     37  OG1       -3.3110   33.4010   20.4940 O.3    86  THR86      -0.2208
     38  CG2       -4.6210   35.1290   21.5450 C.3    86  THR86       0.0379
     39  N         -1.2080   32.8460   22.8790 N.am   87  THR87      -0.1950
     40  CA        -0.1010   31.9710   23.2560 C.3    87  THR87       0.1897
     41  C         -0.0850   30.5990   22.5800 C.2    87  THR87       0.2313
     42  O          0.9790   30.0190   22.3870 O.2    87  THR87      -0.2863
     43  CB        -0.0730   31.7530   24.7820 C.3    87  THR87       0.1794
     44  OG1       -1.3560   31.2860   25.2200 O.3    87  THR87      -0.2208
     45  CG2        0.2750   33.0550   25.5010 C.3    87  THR87       0.0378
     46  N          2.4020   28.2790   19.2830 N.3    90  ASP90      -0.1239
     47  CA         3.4060   29.3070   19.0600 C.3    90  ASP90       0.1674
     48  C          4.6280   28.7410   18.3410 C.2    90  ASP90       0.2266
     49  O          5.6790   28.5140   18.9480 O.2    90  ASP90      -0.2867
     50  CB         3.8250   29.9260   20.3960 C.3    90  ASP90       0.1410
     51  CG         4.5750   31.2250   20.2160 C.2    90  ASP90       0.3668
     52  OD1        4.6480   31.7130   19.0670 O.co2  90  ASP90      -0.2456
     53  OD2        5.0860   31.7590   21.2180 O.co2  90  ASP90      -0.2456
     54  N         17.3940   39.1530   27.2160 N.3   134  GLN134     -0.1245
     55  CA        17.7070   39.9210   28.4150 C.3   134  GLN134      0.1566
     56  C         18.4210   39.0650   29.4600 C.2   134  GLN134      0.2260
     57  O         18.0530   37.9100   29.6960 O.2   134  GLN134     -0.2867
     58  CB        16.4120   40.4970   29.0050 C.3   134  GLN134      0.0367
     59  CG        15.7070   41.5360   28.1250 C.3   134  GLN134      0.0905
     60  CD        14.9800   40.9360   26.9170 C.2   134  GLN134      0.2608
     61  OE1       14.7110   39.7330   26.8610 O.2   134  GLN134     -0.2717
     62  NE2       14.6610   41.7840   25.9460 N.am  134  GLN134     -0.0878
     63  N         15.3300   40.4770   34.0740 N.3   137  ASP137     -0.1239
     64  CA        14.0230   41.0480   33.7720 C.3   137  ASP137      0.1674
     65  C         14.1650   42.5710   33.7950 C.2   137  ASP137      0.2266
     66  O         14.7130   43.1350   34.7430 O.2   137  ASP137     -0.2867
     67  CB        12.9940   40.6010   34.8150 C.3   137  ASP137      0.1410
     68  CG        11.5610   40.7380   34.3230 C.2   137  ASP137      0.3668
     69  OD1       11.3490   41.3080   33.2300 O.co2 137  ASP137     -0.2456
     70  OD2       10.6440   40.2720   35.0290 O.co2 137  ASP137     -0.2456
     71  N         15.8210   31.5450   34.0190 N.3   186  ASP186     -0.1225
     72  CA        14.7020   31.4930   33.0770 C.3   186  ASP186      0.1805
     73  C         15.2240   31.9860   31.7310 C.2   186  ASP186      0.2598
     74  O         16.2690   32.6290   31.6680 O.2   186  ASP186     -0.2718
     75  CB        13.5740   32.4100   33.5730 C.3   186  ASP186      0.1424
     76  CG        12.2440   32.1820   32.8530 C.2   186  ASP186      0.3668
     77  OD1       12.1440   31.2770   31.9970 O.co2 186  ASP186     -0.2456
     78  OD2       11.2820   32.9250   33.1530 O.co2 186  ASP186     -0.2456
     79  N         14.5100   31.6830   30.6530 N.am  187  SER187     -0.1938
     80  CA        14.7090   32.4310   29.4160 C.3   187  SER187      0.2055
     81  C         13.8740   33.7120   29.5170 C.2   187  SER187      0.2643
     82  O         13.1340   33.8950   30.4850 O.2   187  SER187     -0.2714
     83  CB        14.2880   31.5890   28.2000 C.3   187  SER187      0.2130
     84  OG        12.9990   31.0290   28.3730 O.3   187  SER187     -0.2179
     85  N         14.0040   34.6030   28.5400 N.am  188  CYS188     -0.1953
     86  CA        13.2820   35.8730   28.5830 C.3   188  CYS188      0.1843
     87  C         12.7220   36.2050   27.2040 C.2   188  CYS188      0.2625
     88  O         12.9330   35.4600   26.2460 O.2   188  CYS188     -0.2714
     89  CB        14.2210   36.9880   29.0790 C.3   188  CYS188      0.0997
     90  SG        13.4170   38.5040   29.7230 S.3   188  CYS188     -0.0797
     91  N         11.9990   37.3160   27.1040 N.am  189  LYS189     -0.1963
     92  CA        11.2500   37.6240   25.8930 C.3   189  LYS189      0.1728
     93  C         12.1340   37.7110   24.6490 C.2   189  LYS189      0.2616
     94  O         11.7230   37.2980   23.5650 O.2   189  LYS189     -0.2715
     95  CB        10.4670   38.9280   26.0740 C.3   189  LYS189      0.0311
     96  CG        11.3270   40.1560   26.3370 C.3   189  LYS189      0.0038
     97  CD        10.4610   41.3390   26.7480 C.3   189  LYS189      0.0206
     98  CE        11.2740   42.6160   26.8510 C.3   189  LYS189      0.1093
     99  NZ        10.4260   43.7590   27.3060 N.3   189  LYS189     -0.1314
    100  N         13.3480   38.2320   24.8070 N.am  190  GLY190     -0.1955
    101  CA        14.2570   38.3450   23.6800 C.3   190  GLY190      0.1869
    102  C         14.8290   37.0160   23.2020 C.2   190  GLY190      0.2309
    103  O         15.4390   36.9470   22.1340 O.2   190  GLY190     -0.2863
    104  N         12.7810   34.5150   22.7310 N.3   192  SER192     -0.1217
    105  CA        11.6370   33.9400   22.0290 C.3   192  SER192      0.1889
    106  C         12.0500   33.3170   20.7050 C.2   192  SER192      0.2288
    107  O         12.8150   33.9110   19.9430 O.2   192  SER192     -0.2866
    108  CB        10.5810   35.0200   21.7580 C.3   192  SER192      0.2089
    109  OG         9.9310   35.4280   22.9520 O.3   192  SER192     -0.2183
    110  N         11.2500   28.6150   22.9240 N.3   210  VAL210     -0.1231
    111  CA        10.9950   29.6900   23.8880 C.3   210  VAL210      0.1692
    112  C          9.7540   30.4670   23.4400 C.2   210  VAL210      0.2593
    113  O          9.7310   31.0370   22.3460 O.2   210  VAL210     -0.2718
    114  CB        12.1960   30.6710   23.9820 C.3   210  VAL210      0.0266
    115  CG1       11.8900   31.7860   24.9910 C.3   210  VAL210      0.0020
    116  CG2       13.4550   29.9200   24.3990 C.3   210  VAL210      0.0020
    117  N          8.7210   30.4780   24.2790 N.am  211  SER211     -0.1938
    118  CA         7.4190   31.0000   23.8740 C.3   211  SER211      0.2055
    119  C          6.9070   32.1350   24.7590 C.2   211  SER211      0.2643
    120  O          6.7780   33.2720   24.3050 O.2   211  SER211     -0.2714
    121  CB         6.3890   29.8640   23.8460 C.3   211  SER211      0.2130
    122  OG         5.1280   30.3220   23.3830 O.3   211  SER211     -0.2179
    123  N          6.6040   31.8350   26.0160 N.am  212  TRP212     -0.1959
    124  CA         6.1070   32.8720   26.9150 C.3   212  TRP212      0.1771
    125  C          6.3570   32.5740   28.3860 C.2   212  TRP212      0.2620
    126  O          7.0500   31.6200   28.7330 O.2   212  TRP212     -0.2715
    127  CB         4.6080   33.1240   26.6780 C.3   212  TRP212      0.0590
    128  CG         3.7000   31.9570   26.9510 C.ar  212  TRP212      0.0006
    129  CD1        3.4580   30.8990   26.1260 C.ar  212  TRP212      0.0946
    130  CD2        2.8710   31.7610   28.1080 C.ar  212  TRP212      0.0152
    131  NE1        2.5300   30.0580   26.6920 N.ar  212  TRP212     -0.2442
    132  CE2        2.1540   30.5640   27.9090 C.ar  212  TRP212      0.0810
    133  CE3        2.6650   32.4820   29.2890 C.ar  212  TRP212      0.0012
    134  CZ2        1.2450   30.0700   28.8480 C.ar  212  TRP212      0.0191
    135  CZ3        1.7620   31.9900   30.2220 C.ar  212  TRP212      0.0001
    136  CH2        1.0640   30.7950   29.9950 C.ar  212  TRP212      0.0015
    137  N          5.7920   33.4170   29.2420 N.am  213  GLY213     -0.1940
    138  CA         6.0100   33.2990   30.6700 C.3   213  GLY213      0.2014
    139  C          5.5600   34.5820   31.3390 C.2   213  GLY213      0.2639
    140  O          5.2280   35.5570   30.6620 O.2   213  GLY213     -0.2714
    141  N          5.5410   34.5840   32.6660 N.am  214  GLN214     -0.1963
    142  CA         5.1840   35.7770   33.4210 C.3   214  GLN214      0.1733
    143  C          6.4650   36.5400   33.7300 C.2   214  GLN214      0.2617
    144  O          7.2640   36.1040   34.5530 O.2   214  GLN214     -0.2715
    145  CB         4.4820   35.3750   34.7230 C.3   214  GLN214      0.0408
    146  CG         4.0150   36.5460   35.5680 C.3   214  GLN214      0.0908
    147  CD         3.0300   37.4320   34.8330 C.2   214  GLN214      0.2608
    148  OE1        3.2540   38.6340   34.6800 O.2   214  GLN214     -0.2717
    149  NE2        1.9330   36.8420   34.3700 N.am  214  GLN214     -0.0878
    150  N          6.6620   37.6730   33.0640 N.am  215  GLY215     -0.1940
    151  CA         7.9190   38.3870   33.1930 C.3   215  GLY215      0.2014
    152  C          9.0780   37.4640   32.8640 C.2   215  GLY215      0.2639
    153  O          8.9280   36.5440   32.0600 O.2   215  GLY215     -0.2714
    154  N         10.2320   37.7020   33.4800 N.am  216  CYS216     -0.1967
    155  CA        11.3840   36.8210   33.3040 C.3   216  CYS216      0.1712
    156  C         12.0020   36.4460   34.6420 C.2   216  CYS216      0.2296
    157  O         12.3920   37.3160   35.4190 O.2   216  CYS216     -0.2864
    158  CB        12.4290   37.5010   32.4210 C.3   216  CYS216      0.0983
    159  SG        11.7980   37.8410   30.7490 S.3   216  CYS216     -0.0798
    160  N          7.2720   29.6670   35.9700 N.3   222  PHE222     -0.1227
    161  CA         8.2090   28.9430   35.1170 C.3   222  PHE222      0.1736
    162  C          8.1210   29.4780   33.6920 C.2   222  PHE222      0.2596
    163  O          7.1200   30.0820   33.3110 O.2   222  PHE222     -0.2718
    164  CB         7.8750   27.4470   35.1130 C.3   222  PHE222      0.0547
    165  CG         8.0410   26.7850   36.4510 C.ar  222  PHE222     -0.0202
    166  CD1        9.2670   26.2660   36.8350 C.ar  222  PHE222     -0.0042
    167  CD2        6.9750   26.6960   37.3310 C.ar  222  PHE222     -0.0042
    168  CE1        9.4280   25.6730   38.0750 C.ar  222  PHE222     -0.0003
    169  CE2        7.1300   26.1040   38.5720 C.ar  222  PHE222     -0.0003
    170  CZ         8.3570   25.5920   38.9440 C.ar  222  PHE222     -0.0000
    171  N          9.1700   29.2490   32.9080 N.am  223  GLY223     -0.1942
    172  CA         9.0920   29.5280   31.4850 C.3   223  GLY223      0.2014
    173  C          8.1680   28.5420   30.7970 C.2   223  GLY223      0.2639
    174  O          8.0670   27.3860   31.2060 O.2   223  GLY223     -0.2714
    175  N          7.4840   28.9930   29.7520 N.am  224  VAL224     -0.1963
    176  CA         6.5880   28.1210   29.0060 C.3   224  VAL224      0.1727
    177  C          7.0990   27.9880   27.5800 C.2   224  VAL224      0.2616
    178  O          7.4850   28.9770   26.9550 O.2   224  VAL224     -0.2715
    179  CB         5.1480   28.6770   28.9810 C.3   224  VAL224      0.0290
    180  CG1        4.2150   27.6720   28.3090 C.3   224  VAL224      0.0023
    181  CG2        4.6760   28.9620   30.3980 C.3   224  VAL224      0.0023
    182  N          7.1040   26.7560   27.0790 N.am  225  TYR225     -0.1974
    183  CA         7.7580   26.4320   25.8190 C.3   225  TYR225      0.1639
    184  C          6.7790   25.7160   24.9000 C.2   225  TYR225      0.2290
    185  O          5.9400   24.9370   25.3560 O.2   225  TYR225     -0.2864
    186  CB         8.9730   25.5350   26.0850 C.3   225  TYR225      0.0560
    187  CG        10.0540   26.2180   26.8920 C.ar  225  TYR225     -0.0198
    188  CD1        9.9770   26.2970   28.2820 C.ar  225  TYR225     -0.0009
    189  CD2       11.1280   26.8330   26.2600 C.ar  225  TYR225     -0.0009
    190  CE1       10.9340   26.9770   29.0100 C.ar  225  TYR225      0.0417
    191  CE2       12.0880   27.5120   26.9810 C.ar  225  TYR225      0.0417
    192  CZ        11.9850   27.5840   28.3560 C.ar  225  TYR225      0.1957
    193  OH        12.9310   28.2870   29.0680 O.3   225  TYR225     -0.2866
@<TRIPOS>BOND
     1    22    21    2
     2    21    20    1
     3    14    13    2
     4    20    19    1
     5    20    23    1
     6    13    19   am
     7    13    12    1
     8    11    12    1
     9    12    15    1
    10    23    24    1
    11    17    16   ar
    12    15    16    1
    13    24    25    1
    14    16    18   ar
    15     1     2    1
    16     3     4    2
    17     3     2    1
    18    25    26    1
    19     2     5    1
    20    48    49    2
    21    48    47    1
    22    26    27    1
    23    28    29    1
    24    47    46    1
    25    47    50    1
    26    52    51   ar
    27     5     6    1
    28   107   106    2
    29     6     8   ar
    30     6     7   ar
    31    29    30    1
    32    51    50    1
    33    51    53   ar
    34     8    10   ar
    35    37    36    1
    36   106   105    1
    37     7     9   ar
    38    32    30   am
    39    32    33    1
    40    10     9   ar
    41    30    31    2
    42    35    34    2
    43    38    36    1
    44    36    33    1
    45   108   105    1
    46   108   109    1
    47    33    34    1
    48   105   104    1
    49    34    39   am
    50   103   102    2
    51   113   112    2
    52    42    41    2
    53    41    40    1
    54    39    40    1
    55   110   111    1
    56   102   101    1
    57    40    43    1
    58   122   121    1
    59   112   111    1
    60   112   117   am
    61    94    93    2
    62   101   100    1
    63   121   118    1
    64   118   117    1
    65   118   119    1
    66   111   114    1
    67   114   116    1
    68   114   115    1
    69   120   119    2
    70    93   100   am
    71    93    92    1
    72   119   123   am
    73    43    44    1
    74    43    45    1
    75   184   185    2
    76   184   183    1
    77   183   186    1
    78   183   182    1
    79    92    95    1
    80    92    91    1
    81    62    60   am
    82   123   124    1
    83    95    96    1
    84   186   187    1
    85   129   131   ar
    86   129   128   ar
    87    88    87    2
    88   189   187   ar
    89   189   191   ar
    90    96    97    1
    91   127   124    1
    92   127   128    1
    93   131   132   ar
    94    97    98    1
    95    98    99    1
    96    61    60    2
    97   187   188   ar
    98   124   125    1
    99    60    59    1
   100   128   130   ar
   101   178   177    2
   102   191   192   ar
   103   182   177   am
   104    91    87   am
   105    87    86    1
   106    54    55    1
   107   177   176    1
   108   132   130   ar
   109   132   134   ar
   110   130   133   ar
   111    59    58    1
   112    83    84    1
   113    83    80    1
   114   188   190   ar
   115   180   179    1
   116   192   190   ar
   117   192   193    1
   118   125   126    2
   119   125   137   am
   120    55    58    1
   121    55    56    1
   122    85    86    1
   123    85    81   am
   124    86    89    1
   125   134   136   ar
   126   179   176    1
   127   179   181    1
   128   176   175    1
   129    89    90    1
   130   137   138    1
   131   133   135   ar
   132    80    81    1
   133    80    79    1
   134    56    57    2
   135    81    82    2
   136    90   159    1
   137   175   173   am
   138   136   135   ar
   139    79    73   am
   140   140   139    2
   141   138   139    1
   142   159   158    1
   143   173   174    2
   144   173   172    1
   145   139   141   am
   146   172   171    1
   147    74    73    2
   148    73    72    1
   149    77    76   ar
   150   153   152    2
   151   158   155    1
   152   141   142    1
   153    76    78   ar
   154    76    75    1
   155   152   151    1
   156   152   154   am
   157   171   162   am
   158   150   151    1
   159   150   143   am
   160    72    75    1
   161    72    71    1
   162    69    68   ar
   163   155   154    1
   164   155   156    1
   165   163   162    2
   166   142   143    1
   167   142   145    1
   168   162   161    1
   169   143   144    2
   170    64    65    1
   171    64    63    1
   172    64    67    1
   173    65    66    2
   174    68    67    1
   175    68    70   ar
   176   149   147   am
   177   156   157    2
   178   148   147    2
   179   145   146    1
   180   147   146    1
   181   164   161    1
   182   164   165    1
   183   161   160    1
   184   165   166   ar
   185   165   167   ar
   186   166   168   ar
   187   167   169   ar
   188   168   170   ar
   189   169   170   ar
