@<TRIPOS>MOLECULE
tmp/4isiA00.pdb
 192 189 0 0 0
SMALL
GASTEIGER

@<TRIPOS>ATOM
      1  N          4.8650   34.3580   17.1680 N.3    41  HIS41      -0.1241
      2  CA         4.5980   35.7090   17.6680 C.3    41  HIS41       0.1621
      3  C          5.7120   36.7050   17.3400 C.2    41  HIS41       0.2264
      4  O          5.5100   37.9150   17.4190 O.2    41  HIS41      -0.2867
      5  CB         4.3360   35.6890   19.1850 C.3    41  HIS41       0.0745
      6  CG         5.5750   35.7180   20.0270 C.ar   41  HIS41       0.0817
      7  ND1        6.0150   34.6230   20.7390 N.ar   41  HIS41      -0.2268
      8  CD2        6.4580   36.7130   20.2880 C.ar   41  HIS41       0.1154
      9  CE1        7.1140   34.9400   21.3990 C.ar   41  HIS41       0.1986
     10  NE2        7.4050   36.2030   21.1420 N.ar   41  HIS41      -0.2212
     11  N          4.4480   39.0230   14.4000 N.3    44  ASP44      -0.1225
     12  CA         3.1800   39.7490   14.5410 C.3    44  ASP44       0.1805
     13  C          3.2220   41.1860   14.0180 C.2    44  ASP44       0.2597
     14  O          2.2360   41.6880   13.4940 O.2    44  ASP44      -0.2718
     15  CB         2.7540   39.8050   16.0090 C.3    44  ASP44       0.1424
     16  CG         2.1300   38.5170   16.4940 C.2    44  ASP44       0.3668
     17  OD1        2.0860   37.5340   15.7240 O.co2  44  ASP44      -0.2456
     18  OD2        1.6830   38.4970   17.6600 O.co2  44  ASP44      -0.2456
     19  N          4.3600   41.8480   14.1890 N.am   45  LYS45      -0.1979
     20  CA         4.4560   43.2790   13.9210 C.3    45  LYS45       0.1596
     21  C          5.2830   43.6090   12.6850 C.2    45  LYS45       0.2287
     22  O          5.5570   44.7690   12.4160 O.2    45  LYS45      -0.2864
     23  CB         5.0490   43.9950   15.1360 C.3    45  LYS45       0.0298
     24  CG         4.2160   43.8600   16.4000 C.3    45  LYS45       0.0038
     25  CD         4.9940   44.3080   17.6290 C.3    45  LYS45       0.0206
     26  CE         4.1180   44.3000   18.8740 C.3    45  LYS45       0.1093
     27  NZ         4.8710   44.7380   20.0860 N.3    45  LYS45      -0.1314
     28  N         -0.9080   37.8670   18.7160 N.3    85  GLY85      -0.1210
     29  CA        -1.1100   38.4960   20.0080 C.3    85  GLY85       0.1956
     30  C         -1.5360   37.5610   21.1280 C.2    85  GLY85       0.2613
     31  O         -1.7550   38.0100   22.2390 O.2    85  GLY85      -0.2717
     32  N         -1.6600   36.2680   20.8360 N.am   86  THR86      -0.1938
     33  CA        -2.0000   35.2780   21.8550 C.3    86  THR86       0.2028
     34  C         -0.9510   34.1710   21.8960 C.2    86  THR86       0.2642
     35  O         -0.0430   34.1390   21.0700 O.2    86  THR86      -0.2714
     36  CB        -3.3820   34.6400   21.5990 C.3    86  THR86       0.1808
     37  OG1       -3.3530   33.8920   20.3770 O.3    86  THR86      -0.2208
     38  CG2       -4.4530   35.7180   21.5070 C.3    86  THR86       0.0379
     39  N         -1.0850   33.2680   22.8600 N.am   87  THR87      -0.1950
     40  CA         0.0060   32.3660   23.2160 C.3    87  THR87       0.1897
     41  C          0.0030   30.9940   22.5440 C.2    87  THR87       0.2313
     42  O          1.0520   30.4030   22.3680 O.2    87  THR87      -0.2863
     43  CB         0.0630   32.1470   24.7360 C.3    87  THR87       0.1794
     44  OG1       -1.2200   31.7090   25.2050 O.3    87  THR87      -0.2208
     45  CG2        0.4620   33.4360   25.4470 C.3    87  THR87       0.0378
     46  N          2.4330   28.6420   19.1790 N.3    90  ASP90      -0.1239
     47  CA         3.4380   29.6730   18.9650 C.3    90  ASP90       0.1674
     48  C          4.6620   29.0990   18.2570 C.2    90  ASP90       0.2266
     49  O          5.7100   28.9060   18.8630 O.2    90  ASP90      -0.2867
     50  CB         3.8550   30.2840   20.3070 C.3    90  ASP90       0.1410
     51  CG         4.6580   31.5590   20.1400 C.2    90  ASP90       0.3668
     52  OD1        4.7540   32.0570   18.9990 O.co2  90  ASP90      -0.2456
     53  OD2        5.1890   32.0650   21.1510 O.co2  90  ASP90      -0.2456
     54  N         -2.1330   33.8210   39.1100 N.3   165  VAL165     -0.1245
     55  CA        -2.3940   35.1920   38.6840 C.3   165  VAL165      0.1561
     56  C         -3.8330   35.3470   38.1930 C.2   165  VAL165      0.2260
     57  O         -4.4160   36.4240   38.2870 O.2   165  VAL165     -0.2867
     58  CB        -1.4310   35.6190   37.5540 C.3   165  VAL165      0.0252
     59  CG1       -1.7920   37.0120   37.0560 C.3   165  VAL165      0.0019
     60  CG2        0.0000   35.5980   38.0630 C.3   165  VAL165      0.0019
     61  N         -3.5810   35.1250   33.7180 N.3   168  SER168     -0.1203
     62  CA        -2.5880   34.4630   32.8790 C.3   168  SER168      0.2005
     63  C         -3.2070   33.4440   31.9240 C.2   168  SER168      0.2460
     64  O         -4.1830   32.7750   32.2550 O.2   168  SER168     -0.2732
     65  CB        -1.5440   33.7700   33.7570 C.3   168  SER168      0.2103
     66  OG        -2.1550   32.8340   34.6280 O.3   168  SER168     -0.2182
     67  N         -2.6300   33.3150   30.7190 N.am  169  PRO169     -0.2728
     68  CA        -3.1120   32.3800   29.6970 C.3   169  PRO169      0.1401
     69  C         -3.0980   30.9420   30.2020 C.2   169  PRO169      0.2269
     70  O         -2.3290   30.5980   31.0900 O.2   169  PRO169     -0.2865
     71  CB        -2.1370   32.5820   28.5340 C.3   169  PRO169      0.0296
     72  CG        -1.5640   33.9420   28.7510 C.3   169  PRO169      0.0237
     73  CD        -1.4820   34.1040   30.2410 C.3   169  PRO169      0.0939
     74  N         15.7880   31.6910   33.9800 N.3   186  ASP186     -0.1225
     75  CA        14.6690   31.6790   33.0430 C.3   186  ASP186      0.1805
     76  C         15.1720   32.1650   31.6870 C.2   186  ASP186      0.2598
     77  O         16.2460   32.7330   31.5890 O.2   186  ASP186     -0.2718
     78  CB        13.5640   32.6140   33.5550 C.3   186  ASP186      0.1424
     79  CG        12.2050   32.3300   32.9340 C.2   186  ASP186      0.3668
     80  OD1       12.0850   31.3750   32.1340 O.co2 186  ASP186     -0.2456
     81  OD2       11.2470   33.0700   33.2550 O.co2 186  ASP186     -0.2456
     82  N         14.3960   31.9290   30.6390 N.am  187  SER187     -0.1938
     83  CA        14.6070   32.6510   29.3930 C.3   187  SER187      0.2055
     84  C         13.7580   33.9170   29.4690 C.2   187  SER187      0.2643
     85  O         12.9650   34.0740   30.3980 O.2   187  SER187     -0.2714
     86  CB        14.2050   31.7850   28.1920 C.3   187  SER187      0.2130
     87  OG        12.8890   31.2850   28.3270 O.3   187  SER187     -0.2179
     88  N         13.9320   34.8250   28.5150 N.am  188  CYS188     -0.1953
     89  CA        13.3460   36.1580   28.6410 C.3   188  CYS188      0.1843
     90  C         13.0020   36.7470   27.2730 C.2   188  CYS188      0.2625
     91  O         13.2620   36.1330   26.2510 O.2   188  CYS188     -0.2714
     92  CB        14.3250   37.0720   29.3920 C.3   188  CYS188      0.0997
     93  SG        13.6170   38.6210   30.0550 S.3   188  CYS188     -0.0797
     94  N         12.3990   37.9350   27.2660 N.am  189  LYS189     -0.1977
     95  CA        12.1360   38.6530   26.0240 C.3   189  LYS189      0.1596
     96  C         13.4330   38.7870   25.2390 C.2   189  LYS189      0.2287
     97  O         14.4860   39.0410   25.8090 O.2   189  LYS189     -0.2864
     98  CB        11.5780   40.0490   26.3230 C.3   189  LYS189      0.0298
     99  CG        10.2950   40.0480   27.1380 C.3   189  LYS189      0.0038
    100  CD         9.7120   41.4510   27.2640 C.3   189  LYS189      0.0206
    101  CE         8.3310   41.4100   27.9080 C.3   189  LYS189      0.1093
    102  NZ         7.6310   42.7250   27.8320 N.3   189  LYS189     -0.1314
    103  N         12.8060   34.6870   22.6360 N.3   192  SER192     -0.1217
    104  CA        11.6840   34.0700   21.9290 C.3   192  SER192      0.1889
    105  C         12.1150   33.4410   20.6080 C.2   192  SER192      0.2288
    106  O         12.8450   34.0490   19.8360 O.2   192  SER192     -0.2866
    107  CB        10.5990   35.1130   21.6480 C.3   192  SER192      0.2089
    108  OG        10.0080   35.5730   22.8490 O.3   192  SER192     -0.2183
    109  N         11.3080   28.8170   22.9290 N.3   210  VAL210     -0.1231
    110  CA        11.0640   29.9050   23.8790 C.3   210  VAL210      0.1692
    111  C          9.8210   30.6740   23.4240 C.2   210  VAL210      0.2593
    112  O          9.7800   31.1810   22.3140 O.2   210  VAL210     -0.2718
    113  CB        12.2660   30.8760   23.9310 C.3   210  VAL210      0.0266
    114  CG1       11.9870   32.0080   24.9150 C.3   210  VAL210      0.0020
    115  CG2       13.5260   30.1230   24.3330 C.3   210  VAL210      0.0020
    116  N          8.8080   30.7530   24.2810 N.am  211  SER211     -0.1938
    117  CA         7.5190   31.2970   23.8580 C.3   211  SER211      0.2055
    118  C          7.0150   32.4400   24.7300 C.2   211  SER211      0.2643
    119  O          6.9360   33.5820   24.2820 O.2   211  SER211     -0.2714
    120  CB         6.4670   30.1830   23.8200 C.3   211  SER211      0.2130
    121  OG         5.2070   30.6790   23.3910 O.3   211  SER211     -0.2179
    122  N          6.6620   32.1410   25.9740 N.am  212  TRP212     -0.1959
    123  CA         6.1220   33.1810   26.8400 C.3   212  TRP212      0.1771
    124  C          6.3160   32.9260   28.3280 C.2   212  TRP212      0.2620
    125  O          6.8310   31.9010   28.7330 O.2   212  TRP212     -0.2715
    126  CB         4.6310   33.3990   26.5410 C.3   212  TRP212      0.0590
    127  CG         3.7420   32.2330   26.8360 C.ar  212  TRP212      0.0006
    128  CD1        3.4620   31.1850   26.0070 C.ar  212  TRP212      0.0946
    129  CD2        2.9640   32.0220   28.0250 C.ar  212  TRP212      0.0152
    130  NE1        2.5570   30.3400   26.6020 N.ar  212  TRP212     -0.2442
    131  CE2        2.2360   30.8320   27.8410 C.ar  212  TRP212      0.0810
    132  CE3        2.8130   32.7280   29.2250 C.ar  212  TRP212      0.0012
    133  CZ2        1.3680   30.3290   28.8110 C.ar  212  TRP212      0.0191
    134  CZ3        1.9500   32.2270   30.1890 C.ar  212  TRP212      0.0001
    135  CH2        1.2390   31.0380   29.9750 C.ar  212  TRP212      0.0015
    136  N          5.8990   33.8930   29.1360 N.am  213  GLY213     -0.1940
    137  CA         5.9690   33.7280   30.5730 C.3   213  GLY213      0.2014
    138  C          5.5350   34.9890   31.2900 C.2   213  GLY213      0.2639
    139  O          5.2720   36.0190   30.6590 O.2   213  GLY213     -0.2714
    140  N          5.4500   34.8980   32.6130 N.am  214  GLN214     -0.1963
    141  CA         5.1460   36.0460   33.4530 C.3   214  GLN214      0.1733
    142  C          6.4630   36.7330   33.7820 C.2   214  GLN214      0.2617
    143  O          7.2560   36.2190   34.5630 O.2   214  GLN214     -0.2715
    144  CB         4.4550   35.5820   34.7390 C.3   214  GLN214      0.0408
    145  CG         4.1620   36.6940   35.7270 C.3   214  GLN214      0.0908
    146  CD         3.3170   37.7960   35.1220 C.2   214  GLN214      0.2608
    147  OE1        2.1430   37.6050   34.8440 O.2   214  GLN214     -0.2717
    148  NE2        3.9220   38.9600   34.9150 N.am  214  GLN214     -0.0878
    149  N          6.6960   37.8890   33.1680 N.am  215  GLY215     -0.1940
    150  CA         7.9640   38.5700   33.3420 C.3   215  GLY215      0.2014
    151  C          9.1230   37.6650   32.9720 C.2   215  GLY215      0.2639
    152  O          9.0130   36.8550   32.0610 O.2   215  GLY215     -0.2714
    153  N         10.2350   37.8070   33.6840 N.am  216  CYS216     -0.1967
    154  CA        11.3860   36.9330   33.4910 C.3   216  CYS216      0.1712
    155  C         11.9660   36.5150   34.8320 C.2   216  CYS216      0.2296
    156  O         12.3410   37.3560   35.6410 O.2   216  CYS216     -0.2864
    157  CB        12.4550   37.6500   32.6700 C.3   216  CYS216      0.0983
    158  SG        11.9090   38.0350   30.9790 S.3   216  CYS216     -0.0798
    159  N          7.1680   29.7670   36.0140 N.3   222  PHE222     -0.1227
    160  CA         8.1190   29.0620   35.1610 C.3   222  PHE222      0.1736
    161  C          8.0490   29.6190   33.7430 C.2   222  PHE222      0.2596
    162  O          7.0700   30.2540   33.3740 O.2   222  PHE222     -0.2718
    163  CB         7.7870   27.5680   35.1290 C.3   222  PHE222      0.0547
    164  CG         7.9220   26.8890   36.4610 C.ar  222  PHE222     -0.0202
    165  CD1        6.8490   26.8290   37.3360 C.ar  222  PHE222     -0.0042
    166  CD2        9.1260   26.3190   36.8410 C.ar  222  PHE222     -0.0042
    167  CE1        6.9760   26.2120   38.5700 C.ar  222  PHE222     -0.0003
    168  CE2        9.2580   25.7000   38.0730 C.ar  222  PHE222     -0.0003
    169  CZ         8.1810   25.6480   38.9370 C.ar  222  PHE222     -0.0000
    170  N          9.0890   29.3710   32.9520 N.am  223  GLY223     -0.1942
    171  CA         9.0220   29.6910   31.5370 C.3   223  GLY223      0.2014
    172  C          8.0800   28.7400   30.8260 C.2   223  GLY223      0.2639
    173  O          7.9510   27.5840   31.2150 O.2   223  GLY223     -0.2714
    174  N          7.4060   29.2280   29.7900 N.am  224  VAL224     -0.1963
    175  CA         6.5220   28.3810   29.0010 C.3   224  VAL224      0.1727
    176  C          7.0580   28.2550   27.5790 C.2   224  VAL224      0.2616
    177  O          7.4730   29.2430   26.9700 O.2   224  VAL224     -0.2715
    178  CB         5.0900   28.9540   28.9510 C.3   224  VAL224      0.0290
    179  CG1        4.1610   27.9700   28.2460 C.3   224  VAL224      0.0023
    180  CG2        4.5930   29.2280   30.3630 C.3   224  VAL224      0.0023
    181  N          7.0430   27.0330   27.0600 N.am  225  TYR225     -0.1974
    182  CA         7.7070   26.7140   25.8050 C.3   225  TYR225      0.1639
    183  C          6.7430   25.9960   24.8700 C.2   225  TYR225      0.2290
    184  O          5.8900   25.2400   25.3150 O.2   225  TYR225     -0.2864
    185  CB         8.9260   25.8250   26.0770 C.3   225  TYR225      0.0560
    186  CG         9.9970   26.5090   26.9000 C.ar  225  TYR225     -0.0198
    187  CD1        9.9040   26.5750   28.2900 C.ar  225  TYR225     -0.0009
    188  CD2       11.0750   27.1250   26.2870 C.ar  225  TYR225     -0.0009
    189  CE1       10.8560   27.2450   29.0390 C.ar  225  TYR225      0.0417
    190  CE2       12.0310   27.7950   27.0250 C.ar  225  TYR225      0.0417
    191  CZ        11.9160   27.8550   28.4010 C.ar  225  TYR225      0.1957
    192  OH        12.8640   28.5370   29.1320 O.3   225  TYR225     -0.2866
@<TRIPOS>BOND
     1    22    21    2
     2    21    20    1
     3    14    13    2
     4    20    19    1
     5    20    23    1
     6    13    19   am
     7    13    12    1
     8    11    12    1
     9    12    15    1
    10    23    24    1
    11    17    16   ar
    12    15    16    1
    13    24    25    1
    14    16    18   ar
    15     1     2    1
    16     3     4    2
    17     3     2    1
    18    25    26    1
    19     2     5    1
    20    48    49    2
    21    48    47    1
    22    28    29    1
    23    26    27    1
    24    47    46    1
    25    47    50    1
    26    52    51   ar
    27     5     6    1
    28   106   105    2
    29    29    30    1
    30     6     8   ar
    31     6     7   ar
    32    51    50    1
    33    51    53   ar
    34     8    10   ar
    35    37    36    1
    36   105   104    1
    37     7     9   ar
    38    32    30   am
    39    32    33    1
    40    35    34    2
    41    30    31    2
    42    10     9   ar
    43    38    36    1
    44    36    33    1
    45   107   104    1
    46   107   108    1
    47    33    34    1
    48    34    39   am
    49   104   103    1
    50   112   111    2
    51    42    41    2
    52    41    40    1
    53    39    40    1
    54   109   110    1
    55    40    43    1
    56   121   120    1
    57   111   110    1
    58   111   116   am
    59   120   117    1
    60   117   116    1
    61   117   118    1
    62   110   113    1
    63   113   115    1
    64   113   114    1
    65   119   118    2
    66   118   122   am
    67    43    44    1
    68    43    45    1
    69   183   184    2
    70   183   182    1
    71    96    97    2
    72    96    95    1
    73   182   185    1
    74   182   181    1
    75   122   123    1
    76   128   130   ar
    77   128   127   ar
    78    95    98    1
    79    95    94    1
    80   185   186    1
    81    91    90    2
    82   188   186   ar
    83   188   190   ar
    84    98    99    1
    85   126   127    1
    86   126   123    1
    87   130   131   ar
    88   127   129   ar
    89   123   124    1
    90   186   187   ar
    91   177   176    2
    92   190   191   ar
    93   181   176   am
    94    99   100    1
    95   100   101    1
    96    94    90   am
    97    90    89    1
    98   176   175    1
    99   102   101    1
   100   131   129   ar
   101   131   133   ar
   102   129   132   ar
   103    86    87    1
   104    86    83    1
   105   179   178    1
   106   187   189   ar
   107   124   125    2
   108   124   136   am
   109   191   189   ar
   110   191   192    1
   111    88    89    1
   112    88    84   am
   113    71    72    1
   114    71    68    1
   115    89    92    1
   116    72    73    1
   117   133   135   ar
   118   178   175    1
   119   178   180    1
   120   175   174    1
   121   136   137    1
   122   132   134   ar
   123    92    93    1
   124    83    84    1
   125    83    82    1
   126    84    85    2
   127    68    69    1
   128    68    67    1
   129   174   172   am
   130   135   134   ar
   131    93   158    1
   132    69    70    2
   133    73    67    1
   134   137   138    1
   135    82    76   am
   136   139   138    2
   137    67    63   am
   138   172   173    2
   139   172   171    1
   140   158   157    1
   141   138   140   am
   142   171   170    1
   143    77    76    2
   144    76    75    1
   145    63    64    2
   146    63    62    1
   147   152   151    2
   148    80    79   ar
   149   140   141    1
   150   157   154    1
   151    62    61    1
   152    62    65    1
   153    79    81   ar
   154    79    78    1
   155   170   161   am
   156   151   150    1
   157   151   153   am
   158    75    78    1
   159    75    74    1
   160   149   150    1
   161   149   142   am
   162   162   161    2
   163   141   142    1
   164   141   144    1
   165   154   153    1
   166   154   155    1
   167   161   160    1
   168    65    66    1
   169   142   143    2
   170   144   145    1
   171   155   156    2
   172   147   146    2
   173   148   146   am
   174   146   145    1
   175   163   160    1
   176   163   164    1
   177   160   159    1
   178   164   166   ar
   179   164   165   ar
   180   166   168   ar
   181    59    58    1
   182   165   167   ar
   183    58    60    1
   184    58    55    1
   185   168   169   ar
   186    56    57    2
   187    56    55    1
   188   167   169   ar
   189    55    54    1
