@<TRIPOS>MOLECULE
tmp/4iskB01.pdb
 248 241 0 0 0
SMALL
GASTEIGER

@<TRIPOS>ATOM
      1  N         49.1420   36.9690  -96.3520 N.3    20  ARG20      -0.1231
      2  CA        47.8070   37.2470  -95.8430 C.3    20  ARG20       0.1694
      3  C         47.8470   37.9460  -94.4860 C.2    20  ARG20       0.2592
      4  O         47.2920   39.0390  -94.3140 O.2    20  ARG20      -0.2718
      5  CB        47.0510   35.9150  -95.7350 C.3    20  ARG20       0.0321
      6  CG        45.6180   36.0270  -95.2610 C.3    20  ARG20       0.0489
      7  CD        44.9260   34.6650  -95.2570 C.3    20  ARG20       0.2205
      8  NE        45.6480   33.7030  -94.4410 N.pl3  20  ARG20      -0.0865
      9  CZ        45.6520   33.7040  -93.1090 C.cat  20  ARG20       0.5346
     10  NH1       44.9590   34.6230  -92.4380 N.pl3  20  ARG20       0.1354
     11  NH2       46.3510   32.7860  -92.4470 N.pl3  20  ARG20       0.1354
     12  N         48.5400   37.3100  -93.5450 N.am   21  THR21      -0.1953
     13  CA        48.5270   37.6870  -92.1240 C.3    21  THR21       0.1897
     14  C         49.2120   39.0220  -91.8240 C.2    21  THR21       0.2313
     15  O         48.9430   39.6340  -90.7910 O.2    21  THR21      -0.2863
     16  CB        49.2350   36.6110  -91.2650 C.3    21  THR21       0.1794
     17  OG1       50.6490   36.6950  -91.4850 O.3    21  THR21      -0.2208
     18  CG2       48.7280   35.1930  -91.6090 C.3    21  THR21       0.0378
     19  N         62.7960   20.1980  -81.5010 N.3    47  LYS47      -0.1231
     20  CA        62.0760   20.9560  -80.4950 C.3    47  LYS47       0.1693
     21  C         60.9900   20.0240  -80.0320 C.2    47  LYS47       0.2592
     22  O         60.5630   19.1370  -80.7660 O.2    47  LYS47      -0.2718
     23  CB        61.4600   22.2250  -81.0800 C.3    47  LYS47       0.0285
     24  CG        60.1350   21.9720  -81.8090 C.3    47  LYS47       0.0035
     25  CD        59.5570   23.2630  -82.3690 C.3    47  LYS47       0.0206
     26  CE        58.3270   23.0020  -83.2450 C.3    47  LYS47       0.1093
     27  NZ        57.8150   24.2800  -83.8460 N.3    47  LYS47      -0.1314
     28  N         60.5430   20.1860  -78.8040 N.am   48  ARG48      -0.1966
     29  CA        59.4520   19.3610  -78.3570 C.3    48  ARG48       0.1729
     30  C         58.1620   19.8050  -79.0150 C.2    48  ARG48       0.2616
     31  O         57.8010   20.9800  -78.9660 O.2    48  ARG48      -0.2715
     32  CB        59.3050   19.4240  -76.8350 C.3    48  ARG48       0.0348
     33  CG        58.1210   18.6310  -76.3830 C.3    48  ARG48       0.0492
     34  CD        58.0050   18.6550  -74.8320 C.3    48  ARG48       0.2205
     35  NE        59.1560   17.9990  -74.2390 N.pl3  48  ARG48      -0.0865
     36  CZ        59.2320   16.6890  -74.0360 C.cat  48  ARG48       0.5346
     37  NH1       58.2220   15.8990  -74.3560 N.pl3  48  ARG48       0.1354
     38  NH2       60.3260   16.1760  -73.5040 N.pl3  48  ARG48       0.1354
     39  N         57.4490   18.8380  -79.5890 N.am   49  CYS49      -0.1954
     40  CA        56.1300   19.0710  -80.1890 C.3    49  CYS49       0.1843
     41  C         54.9970   18.5970  -79.2920 C.2    49  CYS49       0.2625
     42  O         55.1640   17.6480  -78.5290 O.2    49  CYS49      -0.2714
     43  CB        56.0130   18.3050  -81.4810 C.3    49  CYS49       0.0997
     44  SG        57.2750   18.7850  -82.6670 S.3    49  CYS49      -0.0797
     45  N         53.8370   19.2340  -79.4150 N.am   50  HIS50      -0.1973
     46  CA        52.6960   18.9060  -78.5420 C.3    50  HIS50       0.1656
     47  C         51.8830   17.7790  -79.1170 C.2    50  HIS50       0.2291
     48  O         50.8300   17.9820  -79.7450 O.2    50  HIS50      -0.2864
     49  CB        51.8380   20.1530  -78.2810 C.3    50  HIS50       0.0771
     50  CG        51.0560   20.0900  -77.0060 C.ar   50  HIS50       0.0820
     51  ND1       49.6790   20.1360  -76.9740 N.ar   50  HIS50      -0.2267
     52  CD2       51.4620   20.0100  -75.7120 C.ar   50  HIS50       0.1154
     53  CE1       49.2700   20.0720  -75.7190 C.ar   50  HIS50       0.1986
     54  NE2       50.3320   19.9870  -74.9380 N.ar   50  HIS50      -0.2212
     55  N         48.0890   17.4640  -78.6820 N.3    53  SER53      -0.1217
     56  CA        47.3280   18.2590  -79.6460 C.3    53  SER53       0.1889
     57  C         47.2190   17.5900  -81.0390 C.2    53  SER53       0.2288
     58  O         46.1380   17.5460  -81.6290 O.2    53  SER53      -0.2866
     59  CB        47.9520   19.6190  -79.8150 C.3    53  SER53       0.2089
     60  OG        47.6640   20.4810  -78.7420 O.3    53  SER53      -0.2183
     61  N         43.6600   16.2910  -82.3970 N.3    57  GLU57      -0.1245
     62  CA        43.2050   16.9200  -83.6500 C.3    57  GLU57       0.1567
     63  C         42.8160   15.8530  -84.6790 C.2    57  GLU57       0.2260
     64  O         41.7870   15.9460  -85.3310 O.2    57  GLU57      -0.2867
     65  CB        44.2680   17.8440  -84.2500 C.3    57  GLU57       0.0388
     66  CG        43.6950   18.7350  -85.3340 C.3    57  GLU57       0.1160
     67  CD        44.7600   19.3990  -86.2250 C.2    57  GLU57       0.3649
     68  OE1       45.8310   18.7920  -86.4820 O.co2  57  GLU57      -0.2457
     69  OE2       44.5340   20.5460  -86.6640 O.co2  57  GLU57      -0.2457
     70  N         41.9180   20.2240  -73.6110 N.3    75  ASN75      -0.1240
     71  CA        42.9160   21.2770  -73.4290 C.3    75  ASN75       0.1653
     72  C         43.8020   21.4240  -74.6480 C.2    75  ASN75       0.2266
     73  O         44.9950   21.6240  -74.5220 O.2    75  ASN75      -0.2867
     74  CB        43.8160   21.0260  -72.2280 C.3    75  ASN75       0.1155
     75  CG        43.0560   20.9220  -70.9390 C.2    75  ASN75       0.2627
     76  OD1       42.0970   21.6620  -70.7020 O.2    75  ASN75      -0.2716
     77  ND2       43.4830   20.0000  -70.0830 N.am   75  ASN75      -0.0877
     78  N         44.2680   23.7430  -77.8340 N.3    77  THR77      -0.1203
     79  CA        43.9250   25.1150  -78.0730 C.3    77  THR77       0.1994
     80  C         44.4210   25.5900  -79.4540 C.2    77  THR77       0.2618
     81  O         44.3170   26.7670  -79.7750 O.2    77  THR77      -0.2717
     82  CB        44.5420   26.0420  -76.9830 C.3    77  THR77       0.1784
     83  OG1       45.9690   25.9090  -76.9710 O.3    77  THR77      -0.2211
     84  CG2       43.9890   25.7000  -75.5940 C.3    77  THR77       0.0376
     85  N         44.9260   24.6790  -80.2540 N.am   78  ILE78      -0.1965
     86  CA        45.5190   25.0940  -81.5560 C.3    78  ILE78       0.1727
     87  C         44.5500   25.7480  -82.5350 C.2    78  ILE78       0.2616
     88  O         44.9760   26.5290  -83.4160 O.2    78  ILE78      -0.2715
     89  CB        46.2610   23.9540  -82.2510 C.3    78  ILE78       0.0290
     90  CG1       45.4010   22.7010  -82.3090 C.3    78  ILE78       0.0022
     91  CG2       47.6160   23.6880  -81.5810 C.3    78  ILE78       0.0023
     92  CD1       45.8200   21.7500  -83.5100 C.3    78  ILE78       0.0001
     93  N         43.2600   25.4590  -82.4050 N.am   79  TRP79      -0.1974
     94  CA        42.2780   26.0420  -83.3060 C.3    79  TRP79       0.1640
     95  C         41.5530   27.2620  -82.7380 C.2    79  TRP79       0.2290
     96  O         40.6210   27.7720  -83.3700 O.2    79  TRP79      -0.2864
     97  CB        41.2440   25.0010  -83.7120 C.3    79  TRP79       0.0576
     98  CG        41.7050   24.0960  -84.7840 C.ar   79  TRP79       0.0006
     99  CD1       42.3350   22.9110  -84.6460 C.ar   79  TRP79       0.0946
    100  CD2       41.5580   24.3220  -86.1800 C.ar   79  TRP79       0.0152
    101  NE1       42.6020   22.3680  -85.8990 N.ar   79  TRP79      -0.2442
    102  CE2       42.1290   23.2280  -86.8480 C.ar   79  TRP79       0.0810
    103  CE3       40.9870   25.3440  -86.9290 C.ar   79  TRP79       0.0012
    104  CZ2       42.1440   23.1300  -88.2460 C.ar   79  TRP79       0.0191
    105  CZ3       41.0160   25.2540  -88.3140 C.ar   79  TRP79       0.0001
    106  CH2       41.5880   24.1540  -88.9510 C.ar   79  TRP79       0.0015
    107  N         42.0390   30.4750  -82.3020 N.3    81  GLU81      -0.1231
    108  CA        42.0480   31.7590  -83.0180 C.3    81  GLU81       0.1699
    109  C         40.9940   31.9240  -84.1030 C.2    81  GLU81       0.2592
    110  O         40.6250   33.0630  -84.4080 O.2    81  GLU81      -0.2718
    111  CB        43.4170   32.0180  -83.6510 C.3    81  GLU81       0.0402
    112  CG        44.4970   32.5820  -82.7080 C.3    81  GLU81       0.1161
    113  CD        45.2710   31.5190  -81.9180 C.2    81  GLU81       0.3649
    114  OE1       45.0110   30.3000  -82.0730 O.co2  81  GLU81      -0.2457
    115  OE2       46.1450   31.9160  -81.1080 O.co2  81  GLU81      -0.2457
    116  N         40.4850   30.8180  -84.6450 N.am   82  TRP82      -0.1976
    117  CA        39.6100   30.8510  -85.8130 C.3    82  TRP82       0.1640
    118  C         38.2160   30.3750  -85.5100 C.2    82  TRP82       0.2290
    119  O         37.3010   30.5150  -86.3360 O.2    82  TRP82      -0.2864
    120  CB        40.2240   30.0470  -86.9850 C.3    82  TRP82       0.0576
    121  CG        41.5550   30.5740  -87.2940 C.ar   82  TRP82       0.0006
    122  CD1       41.8430   31.6310  -88.1040 C.ar   82  TRP82       0.0946
    123  CD2       42.8010   30.1410  -86.7420 C.ar   82  TRP82       0.0152
    124  NE1       43.1920   31.8840  -88.0900 N.ar   82  TRP82      -0.2442
    125  CE2       43.8050   30.9770  -87.2700 C.ar   82  TRP82       0.0810
    126  CE3       43.1690   29.1190  -85.8620 C.ar   82  TRP82       0.0012
    127  CZ2       45.1400   30.8390  -86.9310 C.ar   82  TRP82       0.0191
    128  CZ3       44.4820   28.9820  -85.5370 C.ar   82  TRP82       0.0001
    129  CH2       45.4620   29.8280  -86.0720 C.ar   82  TRP82       0.0015
    130  N         39.0720   28.7480  -92.2390 N.3   142  LEU142     -0.1245
    131  CA        40.3720   28.6970  -92.8580 C.3   142  LEU142      0.1561
    132  C         40.2900   27.8530  -94.1170 C.2   142  LEU142      0.2260
    133  O         39.5480   26.8700  -94.1810 O.2   142  LEU142     -0.2867
    134  CB        41.3630   28.0590  -91.9030 C.3   142  LEU142      0.0270
    135  CG        42.6590   28.8120  -91.6150 C.3   142  LEU142      0.0019
    136  CD1       42.4540   30.3190  -91.5440 C.3   142  LEU142      0.0001
    137  CD2       43.2460   28.3110  -90.3100 C.3   142  LEU142      0.0001
    138  N         44.8510   23.6310  -95.6400 N.3   145  CYS145     -0.1221
    139  CA        46.2680   23.6190  -96.0410 C.3   145  CYS145      0.1808
    140  C         46.6660   22.2220  -96.4630 C.2   145  CYS145      0.2601
    141  O         47.2210   22.0530  -97.5470 O.2   145  CYS145     -0.2717
    142  CB        47.3080   24.1710  -95.0100 C.3   145  CYS145      0.0970
    143  SG        46.9180   25.7540  -94.1640 S.3   145  CYS145     -0.0800
    144  N         46.3820   21.2300  -95.6210 N.am  146  HIS146     -0.1975
    145  CA        46.6600   19.8550  -95.9360 C.3   146  HIS146      0.1656
    146  C         45.5060   19.3650  -96.7500 C.2   146  HIS146      0.2291
    147  O         44.5230   18.8400  -96.2370 O.2   146  HIS146     -0.2864
    148  CB        46.9860   18.9680  -94.7290 C.3   146  HIS146      0.0771
    149  CG        46.0610   19.0900  -93.5520 C.ar  146  HIS146      0.0820
    150  ND1       45.1780   18.0920  -93.2140 N.ar  146  HIS146     -0.2267
    151  CD2       45.9660   20.0200  -92.5670 C.ar  146  HIS146      0.1154
    152  CE1       44.5460   18.4160  -92.0990 C.ar  146  HIS146      0.1986
    153  NE2       44.9920   19.5920  -91.6920 N.ar  146  HIS146     -0.2212
    154  N         53.5570   26.4490  -93.0550 N.3   168  ASP168     -0.1239
    155  CA        54.3340   27.1720  -92.0630 C.3   168  ASP168      0.1674
    156  C         55.3680   26.1960  -91.5360 C.2   168  ASP168      0.2266
    157  O         55.0950   25.3100  -90.7140 O.2   168  ASP168     -0.2867
    158  CB        53.3920   27.7020  -90.9280 C.3   168  ASP168      0.1410
    159  CG        54.1410   28.4440  -89.8220 C.2   168  ASP168      0.3668
    160  OD1       55.3540   28.2060  -89.6810 O.co2 168  ASP168     -0.2456
    161  OD2       53.5220   29.2970  -89.1080 O.co2 168  ASP168     -0.2456
    162  N         55.9270   26.1610  -87.3870 N.3   171  LEU171     -0.1231
    163  CA        54.8330   25.7470  -86.5090 C.3   171  LEU171      0.1693
    164  C         54.0420   24.5810  -86.9830 C.2   171  LEU171      0.2592
    165  O         53.8390   23.6050  -86.2560 O.2   171  LEU171     -0.2718
    166  CB        53.8720   26.9160  -86.2620 C.3   171  LEU171      0.0284
    167  CG        54.2930   27.9900  -85.2620 C.3   171  LEU171      0.0019
    168  CD1       53.2380   29.0950  -85.2140 C.3   171  LEU171      0.0001
    169  CD2       54.5060   27.4000  -83.8790 C.3   171  LEU171      0.0001
    170  N         53.5670   24.6940  -88.2290 N.am  172  GLY172     -0.1957
    171  CA        52.5470   23.8170  -88.7410 C.3   172  GLY172      0.1869
    172  C         53.1500   22.5360  -89.2420 C.2   172  GLY172      0.2309
    173  O         52.5750   21.4880  -88.9900 O.2   172  GLY172     -0.2863
    174  N         53.4800   19.3510  -87.0220 N.3   175  PHE175     -0.1227
    175  CA        52.1650   18.8010  -86.7040 C.3   175  PHE175      0.1736
    176  C         51.6350   18.0460  -87.8890 C.2   175  PHE175      0.2595
    177  O         51.0970   16.9580  -87.7390 O.2   175  PHE175     -0.2718
    178  CB        51.1720   19.8970  -86.3410 C.3   175  PHE175      0.0547
    179  CG        51.2140   20.3030  -84.8960 C.ar  175  PHE175     -0.0202
    180  CD1       52.3960   20.7650  -84.3170 C.ar  175  PHE175     -0.0042
    181  CD2       50.0740   20.2440  -84.1240 C.ar  175  PHE175     -0.0042
    182  CE1       52.4310   21.1460  -82.9780 C.ar  175  PHE175     -0.0003
    183  CE2       50.0930   20.6150  -82.8020 C.ar  175  PHE175     -0.0003
    184  CZ        51.2690   21.0700  -82.2200 C.ar  175  PHE175     -0.0000
    185  N         51.7970   18.6130  -89.0720 N.am  176  ASN176     -0.1974
    186  CA        51.2030   17.9670  -90.2530 C.3   176  ASN176      0.1688
    187  C         51.8580   16.6030  -90.5010 C.2   176  ASN176      0.2292
    188  O         51.1970   15.6100  -90.7920 O.2   176  ASN176     -0.2864
    189  CB        51.3620   18.8640  -91.4930 C.3   176  ASN176      0.1181
    190  CG        50.5080   20.1360  -91.4380 C.2   176  ASN176      0.2629
    191  OD1       51.0150   21.2260  -91.5330 O.2   176  ASN176     -0.2716
    192  ND2       49.2320   19.9790  -91.3020 N.am  176  ASN176     -0.0877
    193  N         57.9170   32.3390  -91.4980 N.3   208  TYR208     -0.1241
    194  CA        57.5650   33.6770  -91.0710 C.3   208  TYR208      0.1605
    195  C         58.7710   34.4090  -90.5230 C.2   208  TYR208      0.2264
    196  O         59.6260   33.8090  -89.8780 O.2   208  TYR208     -0.2867
    197  CB        56.4380   33.6140  -90.0260 C.3   208  TYR208      0.0534
    198  CG        55.1180   33.2860  -90.6740 C.ar  208  TYR208     -0.0201
    199  CD1       54.4170   34.2500  -91.3850 C.ar  208  TYR208     -0.0009
    200  CD2       54.6040   32.0040  -90.6330 C.ar  208  TYR208     -0.0009
    201  CE1       53.2320   33.9620  -92.0070 C.ar  208  TYR208      0.0417
    202  CE2       53.4020   31.7020  -91.2390 C.ar  208  TYR208      0.0417
    203  CZ        52.7290   32.6820  -91.9500 C.ar  208  TYR208      0.1957
    204  OH        51.5310   32.3980  -92.5720 O.3   208  TYR208     -0.2866
    205  N         59.6890   34.1430  -86.9570 N.3   211  HIS211     -0.1241
    206  CA        60.1320   32.8360  -86.4820 C.3   211  HIS211      0.1621
    207  C         61.5980   32.6160  -86.7930 C.2   211  HIS211      0.2264
    208  O         62.0780   31.4910  -86.7280 O.2   211  HIS211     -0.2867
    209  CB        59.3790   31.7290  -87.2080 C.3   211  HIS211      0.0745
    210  CG        57.9320   31.6570  -86.8700 C.ar  211  HIS211      0.0817
    211  ND1       57.0720   30.7780  -87.4890 N.ar  211  HIS211     -0.2268
    212  CD2       57.2000   32.3170  -85.9430 C.ar  211  HIS211      0.1154
    213  CE1       55.8640   30.9110  -86.9690 C.ar  211  HIS211      0.1986
    214  NE2       55.9130   31.8510  -86.0420 N.ar  211  HIS211     -0.2212
    215  N         60.1730   25.3390  -78.3510 N.3   257  ILE257     -0.1231
    216  CA        60.5600   26.6840  -78.7490 C.3   257  ILE257      0.1692
    217  C         59.3110   27.4550  -79.0490 C.2   257  ILE257      0.2592
    218  O         58.5250   27.0900  -79.9390 O.2   257  ILE257     -0.2718
    219  CB        61.4660   26.7320  -79.9960 C.3   257  ILE257      0.0266
    220  CG1       62.7990   26.0260  -79.7560 C.3   257  ILE257      0.0019
    221  CG2       61.7560   28.1660  -80.3520 C.3   257  ILE257      0.0020
    222  CD1       63.5540   25.7200  -81.0510 C.3   257  ILE257      0.0001
    223  N         59.0960   28.5180  -78.2910 N.am  258  LYS258     -0.1966
    224  CA        57.8560   29.2610  -78.4150 C.3   258  LYS258      0.1728
    225  C         57.8980   30.0830  -79.6790 C.2   258  LYS258      0.2616
    226  O         58.9410   30.6530  -80.0200 O.2   258  LYS258     -0.2715
    227  CB        57.6640   30.1710  -77.2150 C.3   258  LYS258      0.0311
    228  CG        56.9740   29.4910  -76.0490 C.3   258  LYS258      0.0038
    229  CD        56.9630   30.3900  -74.8170 C.3   258  LYS258      0.0206
    230  CE        56.0060   29.8660  -73.7480 C.3   258  LYS258      0.1093
    231  NZ        56.0850   28.3880  -73.5900 N.3   258  LYS258     -0.1314
    232  N         56.7680   30.1070  -80.3750 N.am  259  ALA259     -0.1977
    233  CA        56.5800   30.9950  -81.5180 C.3   259  ALA259      0.1597
    234  C         55.1050   31.3530  -81.6660 C.2   259  ALA259      0.2287
    235  O         54.2160   30.5100  -81.5180 O.2   259  ALA259     -0.2864
    236  CB        57.1240   30.3640  -82.8300 C.3   259  ALA259      0.0319
    237  N         51.7070   32.1690  -83.5270 N.3   261  VAL261     -0.1231
    238  CA        51.0790   31.9240  -84.8130 C.3   261  VAL261      0.1692
    239  C         50.7170   33.2610  -85.4680 C.2   261  VAL261      0.2591
    240  O         50.2470   34.1770  -84.8150 O.2   261  VAL261     -0.2718
    241  CB        49.8150   31.0210  -84.6940 C.3   261  VAL261      0.0266
    242  CG1       48.8690   31.5020  -83.6110 C.3   261  VAL261      0.0020
    243  CG2       49.0990   30.9590  -86.0180 C.3   261  VAL261      0.0020
    244  N         50.9320   33.3680  -86.7760 N.am  262  ALA262     -0.1980
    245  CA        50.5230   34.5540  -87.4990 C.3   262  ALA262      0.1597
    246  C         49.0510   34.3740  -87.8440 C.2   262  ALA262      0.2287
    247  O         48.7070   33.4830  -88.6120 O.2   262  ALA262     -0.2864
    248  CB        51.3490   34.7110  -88.7460 C.3   262  ALA262      0.0319
@<TRIPOS>BOND
     1   141   140    2
     2   146   147    2
     3   146   145    1
     4   140   139    1
     5   140   144   am
     6     1     2    1
     7   139   138    1
     8   139   142    1
     9   145   144    1
    10   145   148    1
    11     2     5    1
    12     2     3    1
    13     5     6    1
    14     6     7    1
    15     7     8    1
    16   142   143    1
    17   148   149    1
    18     3     4    2
    19     3    12   am
    20     8     9    2
    21   133   132    2
    22   132   131    1
    23   149   150   ar
    24   149   151   ar
    25    12    13    1
    26   150   152   ar
    27     9    11    1
    28     9    10    1
    29   154   155    1
    30   131   130    1
    31   131   134    1
    32   204   203    1
    33   151   153   ar
    34    13    14    1
    35    13    16    1
    36   152   153   ar
    37   155   156    1
    38   155   158    1
    39   201   203   ar
    40   201   199   ar
    41   203   202   ar
    42   134   135    1
    43    14    15    2
    44   135   136    1
    45   135   137    1
    46    18    16    1
    47   156   157    2
    48   191   190    2
    49   193   194    1
    50   189   190    1
    51   189   186    1
    52    17    16    1
    53   190   192   am
    54   199   198   ar
    55   202   200   ar
    56   194   195    1
    57   194   197    1
    58   158   159    1
    59   188   187    2
    60   198   200   ar
    61   198   197    1
    62   195   196    2
    63   187   186    1
    64   186   185    1
    65   159   160   ar
    66   159   161   ar
    67   172   173    2
    68   172   171    1
    69   185   176   am
    70   106   105   ar
    71   106   104   ar
    72   248   245    1
    73   171   170    1
    74   247   246    2
    75   105   103   ar
    76   104   102   ar
    77   170   164   am
    78   122   124   ar
    79   122   121   ar
    80   124   125   ar
    81   176   177    2
    82   176   175    1
    83   246   245    1
    84   245   244    1
    85   211   213   ar
    86   211   210   ar
    87   162   163    1
    88   121   120    1
    89   121   123   ar
    90   125   127   ar
    91   125   123   ar
    92   209   210    1
    93   209   206    1
    94   174   175    1
    95   120   117    1
    96   164   163    1
    97   164   165    2
    98   213   214   ar
    99   205   206    1
   100   127   129   ar
   101   103   100   ar
   102   210   212   ar
   103   102   100   ar
   104   102   101   ar
   105   207   208    2
   106   207   206    1
   107   244   239   am
   108   123   126   ar
   109   175   178    1
   110    69    67   ar
   111   163   166    1
   112    68    67   ar
   113   178   179    1
   114   119   118    2
   115   166   167    1
   116    67    66    1
   117   100    98   ar
   118   129   128   ar
   119   214   212   ar
   120   243   241    1
   121   101    99   ar
   122   126   128   ar
   123   117   118    1
   124   117   116    1
   125   239   240    2
   126   239   238    1
   127    66    65    1
   128    64    63    2
   129   167   168    1
   130   167   169    1
   131   179   180   ar
   132   179   181   ar
   133   238   241    1
   134   238   237    1
   135    98    99   ar
   136    98    97    1
   137   241   242    1
   138    63    62    1
   139   116   109   am
   140   110   109    2
   141   180   182   ar
   142    65    62    1
   143   181   183   ar
   144   109   108    1
   145    27    26    1
   146    97    94    1
   147   111   108    1
   148   111   112    1
   149    62    61    1
   150    92    90    1
   151    88    87    2
   152    96    95    2
   153    94    95    1
   154    94    93    1
   155    26    25    1
   156   108   107    1
   157   182   184   ar
   158   236   233    1
   159   183   184   ar
   160   112   113    1
   161    44    43    1
   162    87    93   am
   163    87    86    1
   164    25    24    1
   165    90    89    1
   166    89    91    1
   167    89    86    1
   168   114   113   ar
   169   113   115   ar
   170    24    23    1
   171   234   235    2
   172   234   233    1
   173    58    57    2
   174    86    85    1
   175   233   232    1
   176    19    20    1
   177    43    40    1
   178    23    20    1
   179   222   220    1
   180    57    56    1
   181    22    21    2
   182    20    21    1
   183   232   225   am
   184   221   219    1
   185    85    80   am
   186    40    39    1
   187    40    41    1
   188    21    28   am
   189   226   225    2
   190   219   220    1
   191   219   216    1
   192   218   217    2
   193    59    56    1
   194    59    60    1
   195    81    80    2
   196    48    47    2
   197   225   224    1
   198    56    55    1
   199    39    30   am
   200    80    79    1
   201    45    41   am
   202    45    46    1
   203    41    42    2
   204    47    46    1
   205   217   216    1
   206   217   223   am
   207    30    31    2
   208    30    29    1
   209    28    29    1
   210   216   215    1
   211    46    49    1
   212   224   223    1
   213   224   227    1
   214    29    32    1
   215    49    50    1
   216    79    78    1
   217    79    82    1
   218   227   228    1
   219    50    51   ar
   220    50    52   ar
   221    82    83    1
   222    82    84    1
   223    51    53   ar
   224    32    33    1
   225    33    34    1
   226   228   229    1
   227    53    54   ar
   228    52    54   ar
   229    34    35    1
   230   229   230    1
   231    72    73    2
   232    72    71    1
   233    37    36    1
   234    35    36    2
   235    36    38    1
   236   230   231    1
   237    70    71    1
   238    71    74    1
   239    74    75    1
   240    75    76    2
   241    75    77   am
