@<TRIPOS>MOLECULE
tmp/4islB00.pdb
 68 64 0 0 0
SMALL
GASTEIGER

@<TRIPOS>ATOM
      1  N          4.5990   17.5940   23.0210 N.3     2  VAL2       -0.1245
      2  CA         4.2790   16.4250   23.8200 C.3     2  VAL2        0.1561
      3  C          5.2230   15.2940   23.4380 C.2     2  VAL2        0.2260
      4  O          5.4660   15.0600   22.2560 O.2     2  VAL2       -0.2867
      5  CB         2.8010   15.9870   23.6250 C.3     2  VAL2        0.0252
      6  CG1        2.4550   14.7960   24.5370 C.3     2  VAL2        0.0019
      7  CG2        1.8520   17.1670   23.8810 C.3     2  VAL2        0.0019
      8  N          3.3070   20.4220   27.3110 N.3   139  THR139     -0.1203
      9  CA         3.7490   19.0520   27.3650 C.3   139  THR139      0.1994
     10  C          2.6320   18.0750   27.3950 C.2   139  THR139      0.2617
     11  O          2.8600   16.9300   27.2870 O.2   139  THR139     -0.2717
     12  CB         4.7450   18.7150   28.4900 C.3   139  THR139      0.1784
     13  OG1        4.2710   19.1760   29.7300 O.3   139  THR139     -0.2211
     14  CG2        6.0370   19.2820   28.2140 C.3   139  THR139      0.0376
     15  N          1.4330   18.5760   27.4920 N.am  140  GLN140     -0.1979
     16  CA         0.2610   17.7870   27.4870 C.3   140  GLN140      0.1601
     17  C         -0.8270   18.7760   27.1040 C.2   140  GLN140      0.2287
     18  O         -0.7310   19.9280   27.4080 O.2   140  GLN140     -0.2864
     19  CB         0.0590   17.2380   28.8850 C.3   140  GLN140      0.0394
     20  CG        -0.8620   16.0820   29.0120 C.3   140  GLN140      0.0908
     21  CD        -1.0230   15.6140   30.4480 C.2   140  GLN140      0.2608
     22  OE1       -1.2230   16.3950   31.3390 O.2   140  GLN140     -0.2717
     23  NE2       -0.9540   14.3210   30.6530 N.am  140  GLN140     -0.0878
     24  N          0.1920    6.4240   15.8930 N.3   181  SER181     -0.1202
     25  CA         0.2490    5.9760   17.2860 C.3   181  SER181      0.2020
     26  C          0.1410    7.0820   18.3290 C.2   181  SER181      0.2619
     27  O          0.0130    6.7880   19.5140 O.2   181  SER181     -0.2717
     28  CB         1.5740    5.2550   17.5360 C.3   181  SER181      0.2103
     29  OG         1.3900    3.8610   17.4710 O.3   181  SER181     -0.2182
     30  N          0.2370    8.3400   17.9020 N.am  182  GLY182     -0.1942
     31  CA         0.2450    9.4720   18.8330 C.3   182  GLY182      0.2014
     32  C          1.5020    9.5120   19.6850 C.2   182  GLY182      0.2639
     33  O          2.5560    9.0120   19.2710 O.2   182  GLY182     -0.2714
     34  N          1.4040   10.1210   20.8660 N.am  183  GLY183     -0.1954
     35  CA         2.5250   10.1470   21.8110 C.3   183  GLY183      0.1869
     36  C          3.5240   11.2830   21.6340 C.2   183  GLY183      0.2309
     37  O          4.0520   11.7950   22.6210 O.2   183  GLY183     -0.2863
     38  N         -3.6770   17.0490   21.4340 N.3   216  CYS216     -0.1221
     39  CA        -2.2700   16.8880   21.1760 C.3   216  CYS216      0.1808
     40  C         -1.8640   15.4510   21.4620 C.2   216  CYS216      0.2601
     41  O         -2.2520   14.8760   22.4230 O.2   216  CYS216     -0.2717
     42  CB        -1.4480   17.8680   22.0070 C.3   216  CYS216      0.0970
     43  SG        -1.8100   19.6460   21.9210 S.3   216  CYS216     -0.0800
     44  N         -1.1000   14.8730   20.5690 N.am  217  ALA217     -0.1965
     45  CA        -0.5230   13.5610   20.7250 C.3   217  ALA217      0.1728
     46  C         -1.4730   12.3590   20.8200 C.2   217  ALA217      0.2616
     47  O         -1.1460   11.3770   21.2220 O.2   217  ALA217     -0.2715
     48  CB         0.4870   13.5630   21.8510 C.3   217  ALA217      0.0334
     49  N         -2.7130   12.5800   20.3500 N.am  218  GLN218     -0.1963
     50  CA        -3.7130   11.5090   20.3850 C.3   218  GLN218      0.1733
     51  C         -3.5400   10.5450   19.2190 C.2   218  GLN218      0.2616
     52  O         -3.0290   10.9260   18.1600 O.2   218  GLN218     -0.2715
     53  CB        -5.1350   12.0800   20.3860 C.3   218  GLN218      0.0408
     54  CG        -5.4760   12.9500   21.6070 C.3   218  GLN218      0.0908
     55  CD        -5.3010   12.2090   22.9310 C.2   218  GLN218      0.2608
     56  OE1       -5.6710   11.0400   23.0580 O.2   218  GLN218     -0.2717
     57  NE2       -4.7320   12.8920   23.9200 N.am  218  GLN218     -0.0878
     58  N         -3.9830    9.3010   19.4160 N.am  219  ARG219     -0.1977
     59  CA        -3.9410    8.2770   18.3680 C.3   219  ARG219      0.1597
     60  C         -4.7480    8.7000   17.1470 C.2   219  ARG219      0.2287
     61  O         -5.8670    9.2000   17.2820 O.2   219  ARG219     -0.2864
     62  CB        -4.4390    6.9270   18.9020 C.3   219  ARG219      0.0334
     63  CG        -3.4190    6.2100   19.7730 C.3   219  ARG219      0.0492
     64  CD        -3.9910    4.9870   20.4810 C.3   219  ARG219      0.2205
     65  NE        -4.8450    4.1830   19.6050 N.pl3 219  ARG219     -0.0865
     66  CZ        -4.4010    3.3370   18.6760 C.cat 219  ARG219      0.5346
     67  NH1       -5.2720    2.6580   17.9360 N.pl3 219  ARG219      0.1354
     68  NH2       -3.0930    3.1640   18.4770 N.pl3 219  ARG219      0.1354
@<TRIPOS>BOND
     1    24    25    1
     2    60    61    2
     3    60    59    1
     4    25    28    1
     5    25    26    1
     6    29    28    1
     7    30    26   am
     8    30    31    1
     9    67    66    1
    10    52    51    2
    11    26    27    2
    12    59    62    1
    13    59    58    1
    14    68    66    1
    15    66    65    2
    16    31    32    1
    17    62    63    1
    18    51    58   am
    19    51    50    1
    20    33    32    2
    21    65    64    1
    22    32    34   am
    23    63    64    1
    24    49    50    1
    25    49    46   am
    26    50    53    1
    27    53    54    1
    28    44    45    1
    29    44    40   am
    30    45    46    1
    31    45    48    1
    32    46    47    2
    33    34    35    1
    34    39    38    1
    35    39    40    1
    36    39    42    1
    37    40    41    2
    38    54    55    1
    39    36    35    1
    40    36    37    2
    41    43    42    1
    42     4     3    2
    43    55    56    2
    44    55    57   am
    45     1     2    1
    46     3     2    1
    47     5     2    1
    48     5     7    1
    49     5     6    1
    50    17    18    2
    51    17    16    1
    52    11    10    2
    53     8     9    1
    54     9    10    1
    55     9    12    1
    56    10    15   am
    57    16    15    1
    58    16    19    1
    59    14    12    1
    60    12    13    1
    61    19    20    1
    62    20    21    1
    63    21    23   am
    64    21    22    2
