@<TRIPOS>MOLECULE
tmp/4isoA01.pdb
 110 107 0 0 0
SMALL
GASTEIGER

@<TRIPOS>ATOM
      1  N         24.2290   -6.2640   22.1730 N.3    19  HIS19      -0.1226
      2  CA        24.9640   -6.7180   23.3520 C.3    19  HIS19       0.1752
      3  C         25.8100   -7.9270   23.0170 C.2    19  HIS19       0.2596
      4  O         25.3100   -8.9030   22.4250 O.2    19  HIS19      -0.2718
      5  CB        23.9840   -7.1480   24.4530 C.3    19  HIS19       0.0759
      6  CG        23.2340   -6.0180   25.0890 C.ar   19  HIS19       0.0818
      7  ND1       23.0170   -5.9540   26.4490 N.ar   19  HIS19      -0.2268
      8  CD2       22.5960   -4.9460   24.5520 C.ar   19  HIS19       0.1154
      9  CE1       22.2900   -4.8840   26.7280 C.ar   19  HIS19       0.1986
     10  NE2       22.0210   -4.2540   25.5930 N.ar   19  HIS19      -0.2212
     11  N         27.0730   -7.8650   23.4260 N.am   20  ALA20      -0.1966
     12  CA        28.0100   -8.9710   23.2670 C.3    20  ALA20       0.1728
     13  C         28.0950   -9.7500   24.5740 C.2    20  ALA20       0.2616
     14  O         27.9320   -9.1730   25.6540 O.2    20  ALA20      -0.2715
     15  CB        29.3810   -8.4530   22.8600 C.3    20  ALA20       0.0334
     16  N         28.3640  -11.0480   24.4700 N.am   21  LEU21      -0.1963
     17  CA        28.3070  -11.9530   25.6260 C.3    21  LEU21       0.1728
     18  C         29.1680  -11.4420   26.7860 C.2    21  LEU21       0.2616
     19  O         30.3730  -11.2170   26.6220 O.2    21  LEU21      -0.2715
     20  CB        28.7490  -13.3670   25.2220 C.3    21  LEU21       0.0311
     21  CG        28.6920  -14.4270   26.3240 C.3    21  LEU21       0.0022
     22  CD1       27.2450  -14.6350   26.7860 C.3    21  LEU21       0.0001
     23  CD2       29.2720  -15.7360   25.8030 C.3    21  LEU21       0.0001
     24  N         28.5330  -11.2520   27.9440 N.am   22  GLY22      -0.1955
     25  CA        29.2360  -10.8180   29.1690 C.3    22  GLY22       0.1869
     26  C         29.6240   -9.3480   29.2310 C.2    22  GLY22       0.2309
     27  O         30.2900   -8.9210   30.1630 O.2    22  GLY22      -0.2863
     28  N         27.4100   -6.4940   27.8650 N.3    24  GLY24      -0.1225
     29  CA        26.3060   -5.5350   27.6970 C.3    24  GLY24       0.1811
     30  C         26.3720   -4.7810   26.3720 C.2    24  GLY24       0.2280
     31  O         26.9960   -5.2340   25.4150 O.2    24  GLY24      -0.2866
     32  N         27.0320  -15.7720   16.9270 N.3    56  THR56      -0.1203
     33  CA        26.4820  -16.4130   18.1610 C.3    56  THR56       0.1994
     34  C         26.7890  -15.6360   19.4540 C.2    56  THR56       0.2618
     35  O         26.2050  -15.9200   20.4900 O.2    56  THR56      -0.2717
     36  CB        26.9730  -17.8910   18.3780 C.3    56  THR56       0.1784
     37  OG1       28.3800  -17.9050   18.6410 O.3    56  THR56      -0.2211
     38  CG2       26.6830  -18.7640   17.1550 C.3    56  THR56       0.0376
     39  N         27.7070  -14.6830   19.3930 N.am   57  GLN57      -0.1965
     40  CA        28.1660  -13.9630   20.6010 C.3    57  GLN57       0.1733
     41  C         27.3100  -12.7460   20.9300 C.2    57  GLN57       0.2616
     42  O         27.5500  -12.0730   21.9360 O.2    57  GLN57      -0.2715
     43  CB        29.6260  -13.5390   20.4410 C.3    57  GLN57       0.0408
     44  CG        30.5920  -14.7080   20.2150 C.3    57  GLN57       0.0908
     45  CD        30.5520  -15.6850   21.3750 C.2    57  GLN57       0.2608
     46  OE1       30.9180  -15.3340   22.4890 O.2    57  GLN57      -0.2717
     47  NE2       30.0570  -16.8980   21.1290 N.am   57  GLN57      -0.0878
     48  N         26.2930  -12.4790   20.1060 N.am   58  TRP58      -0.1960
     49  CA        25.5230  -11.2440   20.2120 C.3    58  TRP58       0.1771
     50  C         24.0330  -11.4440   20.4310 C.2    58  TRP58       0.2620
     51  O         23.4360  -12.4400   19.9740 O.2    58  TRP58      -0.2715
     52  CB        25.6910  -10.4260   18.9320 C.3    58  TRP58       0.0590
     53  CG        27.0700   -9.9320   18.6470 C.ar   58  TRP58       0.0006
     54  CD1       28.0470  -10.5890   17.9530 C.ar   58  TRP58       0.0946
     55  CD2       27.6150   -8.6570   19.0020 C.ar   58  TRP58       0.0152
     56  NE1       29.1760   -9.8000   17.8610 N.ar   58  TRP58      -0.2442
     57  CE2       28.9350   -8.6110   18.4980 C.ar   58  TRP58       0.0810
     58  CE3       27.1140   -7.5440   19.7030 C.ar   58  TRP58       0.0012
     59  CZ2       29.7630   -7.5080   18.6730 C.ar   58  TRP58       0.0191
     60  CZ3       27.9340   -6.4510   19.8790 C.ar   58  TRP58       0.0001
     61  CH2       29.2470   -6.4310   19.3570 C.ar   58  TRP58       0.0015
     62  N         23.4180  -10.4600   21.0800 N.am   59  THR59      -0.1951
     63  CA        21.9780  -10.3820   21.1630 C.3    59  THR59       0.1897
     64  C         21.5410   -8.9850   20.7500 C.2    59  THR59       0.2313
     65  O         22.0960   -7.9920   21.2180 O.2    59  THR59      -0.2863
     66  CB        21.4940  -10.6730   22.6210 C.3    59  THR59       0.1794
     67  OG1       21.8280  -12.0190   22.9660 O.3    59  THR59      -0.2208
     68  CG2       19.9910  -10.4950   22.7790 C.3    59  THR59       0.0378
     69  N         18.5400   -6.1660   20.7890 N.3    61  PHE61      -0.1241
     70  CA        17.2890   -5.7560   21.4270 C.3    61  PHE61       0.1605
     71  C         16.6140   -4.7400   20.5260 C.2    61  PHE61       0.2264
     72  O         17.1930   -3.6820   20.2410 O.2    61  PHE61      -0.2867
     73  CB        17.5640   -5.1370   22.8160 C.3    61  PHE61       0.0534
     74  CG        18.0160   -6.1480   23.8360 C.ar   61  PHE61      -0.0203
     75  CD1       19.3660   -6.4160   24.0030 C.ar   61  PHE61      -0.0042
     76  CD2       17.0840   -6.8710   24.6010 C.ar   61  PHE61      -0.0042
     77  CE1       19.8060   -7.3630   24.9230 C.ar   61  PHE61      -0.0003
     78  CE2       17.5200   -7.8330   25.5390 C.ar   61  PHE61      -0.0003
     79  CZ        18.8860   -8.0740   25.6910 C.ar   61  PHE61      -0.0000
     80  N         14.8390   -4.1630   30.0040 N.3    70  ARG70      -0.1245
     81  CA        14.9360   -4.9210   28.7780 C.3    70  ARG70       0.1563
     82  C         13.8340   -5.9690   28.6070 C.2    70  ARG70       0.2260
     83  O         13.7680   -6.6230   27.5780 O.2    70  ARG70      -0.2867
     84  CB        16.3340   -5.5210   28.6170 C.3    70  ARG70       0.0307
     85  CG        17.4030   -4.4690   28.3500 C.3    70  ARG70       0.0489
     86  CD        18.6950   -5.1030   27.9090 C.3    70  ARG70       0.2205
     87  NE        19.1330   -6.1430   28.8390 N.pl3  70  ARG70      -0.0865
     88  CZ        20.0100   -5.9590   29.8180 C.cat  70  ARG70       0.5346
     89  NH1       20.5670   -4.7650   30.0100 N.pl3  70  ARG70       0.1354
     90  NH2       20.3350   -6.9740   30.6040 N.pl3  70  ARG70       0.1354
     91  N         13.7960   -9.5460   21.7130 N.3    77  GLU77      -0.1245
     92  CA        15.1710   -9.9790   21.8170 C.3    77  GLU77       0.1567
     93  C         15.4720  -10.9690   20.6760 C.2    77  GLU77       0.2260
     94  O         14.6830  -11.8720   20.4080 O.2    77  GLU77      -0.2867
     95  CB        15.3880  -10.6050   23.2060 C.3    77  GLU77       0.0388
     96  CG        16.7390  -11.2470   23.3850 C.3    77  GLU77       0.1160
     97  CD        17.0490  -11.6470   24.8290 C.2    77  GLU77       0.3649
     98  OE1       18.0320  -12.4000   25.0030 O.co2  77  GLU77      -0.2457
     99  OE2       16.3470  -11.2080   25.7720 O.co2  77  GLU77      -0.2457
    100  N         18.6850  -13.3030   18.5020 N.3    79  ARG79      -0.1245
    101  CA        20.0440  -13.7290   18.2560 C.3    79  ARG79       0.1563
    102  C         20.3740  -13.3470   16.8230 C.2    79  ARG79       0.2260
    103  O         19.4780  -13.0020   16.0430 O.2    79  ARG79      -0.2867
    104  CB        20.1840  -15.2500   18.4460 C.3    79  ARG79       0.0307
    105  CG        19.9740  -15.7470   19.8930 C.3    79  ARG79       0.0489
    106  CD        21.1090  -15.3470   20.8550 C.3    79  ARG79       0.2205
    107  NE        22.3830  -16.0650   20.6540 N.pl3  79  ARG79      -0.0865
    108  CZ        22.6390  -17.3280   21.0210 C.cat  79  ARG79       0.5346
    109  NH1       21.7030  -18.0840   21.5910 N.pl3  79  ARG79       0.1354
    110  NH2       23.8350  -17.8520   20.7840 N.pl3  79  ARG79       0.1354
@<TRIPOS>BOND
     1   103   102    2
     2   102   101    1
     3    32    33    1
     4    38    36    1
     5    56    54   ar
     6    56    57   ar
     7    54    53   ar
     8    33    36    1
     9    33    34    1
    10   101   104    1
    11   101   100    1
    12    36    37    1
    13   104   105    1
    14    57    59   ar
    15    57    55   ar
    16    53    52    1
    17    53    55   ar
    18    59    61   ar
    19    52    49    1
    20    55    58   ar
    21    61    60   ar
    22    39    34   am
    23    39    40    1
    24    34    35    2
    25    58    60   ar
    26   105   106    1
    27    51    50    2
    28    48    49    1
    29    48    41   am
    30    49    50    1
    31    44    43    1
    32    44    45    1
    33    72    71    2
    34    94    93    2
    35    50    62   am
    36    43    40    1
    37    71    70    1
    38    40    41    1
    39   107   106    1
    40   107   108    2
    41    93    92    1
    42    64    63    1
    43    64    65    2
    44   110   108    1
    45    69    70    1
    46    41    42    2
    47   108   109    1
    48    62    63    1
    49    47    45   am
    50    63    66    1
    51    45    46    2
    52    70    73    1
    53    91    92    1
    54    92    95    1
    55     1     2    1
    56     4     3    2
    57    66    68    1
    58    66    67    1
    59    73    74    1
    60    15    12    1
    61     3     2    1
    62     3    11   am
    63    95    96    1
    64    12    11    1
    65    12    13    1
    66     2     5    1
    67    96    97    1
    68    74    75   ar
    69    74    76   ar
    70    75    77   ar
    71     5     6    1
    72    16    13   am
    73    16    17    1
    74     8     6   ar
    75     8    10   ar
    76    13    14    2
    77    76    78   ar
    78    97    98   ar
    79    97    99   ar
    80    77    79   ar
    81     6     7   ar
    82    20    17    1
    83    20    21    1
    84    31    30    2
    85    78    79   ar
    86    10     9   ar
    87    17    18    1
    88    23    21    1
    89    21    22    1
    90    30    29    1
    91     7     9   ar
    92    19    18    2
    93    18    24   am
    94    83    82    2
    95    29    28    1
    96    86    85    1
    97    86    87    1
    98    24    25    1
    99    85    84    1
   100    82    81    1
   101    84    81    1
   102    81    80    1
   103    87    88    2
   104    25    26    1
   105    26    27    2
   106    88    89    1
   107    88    90    1
