@<TRIPOS>MOLECULE
tmp/4isoA02.pdb
 94 92 0 0 0
SMALL
GASTEIGER

@<TRIPOS>ATOM
      1  N         14.7760   10.3960   24.1180 N.3     7  ALA7       -0.1231
      2  CA        13.8380   10.0890   23.0490 C.3     7  ALA7        0.1694
      3  C         12.4570    9.7740   23.6390 C.2     7  ALA7        0.2592
      4  O         12.3760    9.2620   24.7680 O.2     7  ALA7       -0.2718
      5  CB        14.3500    8.8930   22.2560 C.3     7  ALA7        0.0304
      6  N         11.3930   10.0740   22.8770 N.am    8  ASP8       -0.1960
      7  CA        10.0280    9.5730   23.1600 C.3     8  ASP8        0.1840
      8  C          9.9340    8.0360   22.9700 C.2     8  ASP8        0.2622
      9  O         10.5940    7.4540   22.0850 O.2     8  ASP8       -0.2715
     10  CB         8.9960   10.2650   22.2370 C.3     8  ASP8        0.1450
     11  CG         8.9930   11.8090   22.3740 C.2     8  ASP8        0.3671
     12  OD1        9.1120   12.2890   23.5160 O.co2   8  ASP8       -0.2456
     13  OD2        8.8560   12.5470   21.3560 O.co2   8  ASP8       -0.2456
     14  N          9.0920    7.3650   23.7530 N.am    9  GLU9       -0.1963
     15  CA         8.8340    5.9430   23.4800 C.3     9  GLU9        0.1733
     16  C          8.1490    5.7920   22.1230 C.2     9  GLU9        0.2616
     17  O          7.1720    6.4910   21.8380 O.2     9  GLU9       -0.2715
     18  CB         7.9890    5.3130   24.5810 C.3     9  GLU9        0.0429
     19  CG         8.7600    5.2200   25.8790 C.3     9  GLU9        0.1163
     20  CD         7.9060    4.7910   27.0540 C.2     9  GLU9        0.3649
     21  OE1        8.1580    5.3030   28.1730 O.co2   9  GLU9       -0.2457
     22  OE2        6.9970    3.9470   26.8600 O.co2   9  GLU9       -0.2457
     23  N          8.6790    4.9130   21.2740 N.am   10  GLY10      -0.1955
     24  CA         8.1180    4.7100   19.9370 C.3    10  GLY10       0.1869
     25  C          8.6620    5.6830   18.8980 C.2    10  GLY10       0.2309
     26  O          8.3090    5.6210   17.7240 O.2    10  GLY10      -0.2863
     27  N         11.8640    6.2050   17.6810 N.3    12  TRP12      -0.1228
     28  CA        12.8310    5.6480   16.7220 C.3    12  TRP12       0.1722
     29  C         12.7350    4.1150   16.7250 C.2    12  TRP12       0.2437
     30  O         13.6090    3.4510   17.2780 O.2    12  TRP12      -0.2733
     31  CB        14.2580    6.1250   17.0920 C.3    12  TRP12       0.0563
     32  CG        14.2970    7.5940   17.4810 C.ar   12  TRP12       0.0003
     33  CD1       14.2990    8.1180   18.7540 C.ar   12  TRP12       0.0946
     34  CD2       14.3300    8.7240   16.5850 C.ar   12  TRP12       0.0152
     35  NE1       14.3390    9.5020   18.7020 N.ar   12  TRP12      -0.2442
     36  CE2       14.3520    9.8970   17.3860 C.ar   12  TRP12       0.0810
     37  CE3       14.3680    8.8550   15.1870 C.ar   12  TRP12       0.0012
     38  CZ2       14.3990   11.1810   16.8340 C.ar   12  TRP12       0.0191
     39  CZ3       14.3980   10.1420   14.6340 C.ar   12  TRP12       0.0001
     40  CH2       14.4200   11.2880   15.4640 C.ar   12  TRP12       0.0015
     41  N         11.6460    3.5450   16.1420 N.am   13  PRO13      -0.2729
     42  CA        11.3730    2.0990   16.2940 C.3    13  PRO13       0.1401
     43  C         12.3190    1.2480   15.4730 C.2    13  PRO13       0.2269
     44  O         12.2260    0.0140   15.5090 O.2    13  PRO13      -0.2865
     45  CB         9.9330    1.9300   15.7560 C.3    13  PRO13       0.0296
     46  CG         9.7150    3.1390   14.8010 C.3    13  PRO13       0.0237
     47  CD        10.5640    4.2580   15.4240 C.3    13  PRO13       0.0939
     48  N         15.6890    1.8780   15.8750 N.3    15  GLN15      -0.1245
     49  CA        16.9300    1.8330   16.6810 C.3    15  GLN15       0.1566
     50  C         17.0460    0.4910   17.3980 C.2    15  GLN15       0.2260
     51  O         16.0710    0.0190   18.0200 O.2    15  GLN15      -0.2867
     52  CB        16.9930    2.9590   17.7170 C.3    15  GLN15       0.0367
     53  CG        18.2470    2.8780   18.6320 C.3    15  GLN15       0.0905
     54  CD        19.5240    3.3670   17.9730 C.2    15  GLN15       0.2608
     55  OE1       19.5500    4.4340   17.3730 O.2    15  GLN15      -0.2717
     56  NE2       20.6010    2.6080   18.1170 N.am   15  GLN15      -0.0878
     57  N         12.9990   -2.4480   19.8760 N.3    63  GLY63      -0.1210
     58  CA        11.8900   -1.8930   20.6400 C.3    63  GLY63       0.1956
     59  C         12.2950   -1.4580   22.0300 C.2    63  GLY63       0.2612
     60  O         11.4450   -1.2630   22.9020 O.2    63  GLY63      -0.2717
     61  N         13.5980   -1.3100   22.2500 N.am   64  LEU64      -0.1965
     62  CA        14.1200   -0.9500   23.5650 C.3    64  LEU64       0.1728
     63  C         14.1250    0.5620   23.7620 C.2    64  LEU64       0.2616
     64  O         14.5130    1.3220   22.8440 O.2    64  LEU64      -0.2715
     65  CB        15.5480   -1.4750   23.7280 C.3    64  LEU64       0.0311
     66  CG        16.2160   -1.3370   25.1090 C.3    64  LEU64       0.0022
     67  CD1       15.4990   -2.2180   26.1390 C.3    64  LEU64       0.0001
     68  CD2       17.6990   -1.7220   25.0280 C.3    64  LEU64       0.0001
     69  N         13.7110    0.9970   24.9540 N.am   65  HIS65      -0.1973
     70  CA        13.7740    2.3970   25.3150 C.3    65  HIS65       0.1656
     71  C         14.8170    2.6600   26.4090 C.2    65  HIS65       0.2291
     72  O         15.6170    3.5920   26.3220 O.2    65  HIS65      -0.2864
     73  CB        12.3690    2.8420   25.7740 C.3    65  HIS65       0.0771
     74  CG        12.2880    4.2710   26.2090 C.ar   65  HIS65       0.0820
     75  ND1       12.4490    5.3270   25.3380 N.ar   65  HIS65      -0.2267
     76  CD2       12.0390    4.8170   27.4230 C.ar   65  HIS65       0.1154
     77  CE1       12.3150    6.4640   25.9990 C.ar   65  HIS65       0.1986
     78  NE2       12.0660    6.1790   27.2680 N.ar   65  HIS65      -0.2212
     79  N          6.3830   -0.2390   18.3940 N.3   112  MET112     -0.1245
     80  CA         7.7010    0.0030   18.9430 C.3   112  MET112      0.1570
     81  C          8.8550   -0.4990   18.0790 C.2   112  MET112      0.2261
     82  O          9.9620   -0.1820   18.3470 O.2   112  MET112     -0.2867
     83  CB         7.8200   -0.6110   20.3360 C.3   112  MET112      0.0387
     84  CG         6.8700   -0.0600   21.3810 C.3   112  MET112      0.0595
     85  SD         7.1070    1.6370   21.8730 S.3   112  MET112     -0.1393
     86  CE         8.7800    1.6530   22.4310 C.3   112  MET112      0.0692
     87  N         17.2880    5.9750   25.7550 N.3   149  LEU149     -0.1245
     88  CA        17.7830    6.3670   24.4300 C.3   149  LEU149      0.1561
     89  C         17.8230    7.8780   24.2880 C.2   149  LEU149      0.2260
     90  O         16.8620    8.5490   24.6260 O.2   149  LEU149     -0.2867
     91  CB        16.8670    5.7930   23.3540 C.3   149  LEU149      0.0270
     92  CG        17.2500    6.0200   21.8960 C.3   149  LEU149      0.0019
     93  CD1       18.4730    5.2090   21.5460 C.3   149  LEU149      0.0001
     94  CD2       16.0800    5.5310   21.0720 C.3   149  LEU149      0.0001
@<TRIPOS>BOND
     1    39    37   ar
     2    39    40   ar
     3    46    47    1
     4    46    45    1
     5    37    34   ar
     6    47    41    1
     7    40    38   ar
     8    43    44    2
     9    43    42    1
    10    45    42    1
    11    48    49    1
    12    41    42    1
    13    41    29   am
    14    34    36   ar
    15    34    32   ar
    16    49    50    1
    17    49    52    1
    18    28    29    1
    19    28    31    1
    20    28    27    1
    21    29    30    2
    22    38    36   ar
    23    31    32    1
    24    55    54    2
    25    36    35   ar
    26    50    51    2
    27    32    33   ar
    28    52    53    1
    29    26    25    2
    30    54    56   am
    31    54    53    1
    32    81    82    2
    33    81    80    1
    34    79    80    1
    35    35    33   ar
    36    25    24    1
    37    80    83    1
    38    57    58    1
    39    24    23    1
    40    83    84    1
    41    58    59    1
    42    94    92    1
    43    23    16   am
    44    13    11   ar
    45    84    85    1
    46    93    92    1
    47    17    16    2
    48    85    86    1
    49    92    91    1
    50    59    61   am
    51    59    60    2
    52     9     8    2
    53    16    15    1
    54    10    11    1
    55    10     7    1
    56    61    62    1
    57     5     2    1
    58    11    12   ar
    59    64    63    2
    60     6     7    1
    61     6     3   am
    62     8     7    1
    63     8    14   am
    64     2     3    1
    65     2     1    1
    66    91    88    1
    67    15    14    1
    68    15    18    1
    69    62    65    1
    70    62    63    1
    71     3     4    2
    72    65    66    1
    73    63    69   am
    74    89    88    1
    75    89    90    2
    76    88    87    1
    77    18    19    1
    78    69    70    1
    79    68    66    1
    80    66    67    1
    81    70    73    1
    82    70    71    1
    83    75    77   ar
    84    75    74   ar
    85    73    74    1
    86    19    20    1
    87    77    78   ar
    88    74    76   ar
    89    72    71    2
    90    22    20   ar
    91    20    21   ar
    92    78    76   ar
