@<TRIPOS>MOLECULE
tmp/4istB00.pdb
 98 90 0 0 0
SMALL
GASTEIGER

@<TRIPOS>ATOM
      1  N        130.1080   21.2970   59.1200 N.3    79  LYS79      -0.1245
      2  CA       130.5410   21.5260   57.7600 C.3    79  LYS79       0.1561
      3  C        130.6390   23.0280   57.4940 C.2    79  LYS79       0.2260
      4  O        129.7540   23.8290   57.9580 O.2    79  LYS79      -0.2867
      5  CB       129.5480   20.8800   56.8060 C.3    79  LYS79       0.0271
      6  CG       130.0460   20.7120   55.4020 C.3    79  LYS79       0.0035
      7  CD       128.9400   20.1660   54.5200 C.3    79  LYS79       0.0206
      8  CE       129.4950   19.5670   53.2200 C.3    79  LYS79       0.1093
      9  NZ       128.3590   18.9810   52.4600 N.3    79  LYS79      -0.1314
     10  N        130.1130   22.2510   47.9760 N.3   127  ALA127     -0.1231
     11  CA       129.3370   21.0570   48.2860 C.3   127  ALA127      0.1694
     12  C        128.9700   20.3680   46.9810 C.2   127  ALA127      0.2593
     13  O        127.8790   19.8500   46.8340 O.2   127  ALA127     -0.2718
     14  CB       128.0840   21.4210   49.1080 C.3   127  ALA127      0.0304
     15  N        129.9100   20.3790   46.0490 N.am  128  THR128     -0.1939
     16  CA       129.7890   19.7660   44.7320 C.3   128  THR128      0.2028
     17  C        130.7550   18.5640   44.6080 C.2   128  THR128      0.2643
     18  O        131.9590   18.7480   44.4620 O.2   128  THR128     -0.2714
     19  CB       130.0850   20.8220   43.6480 C.3   128  THR128      0.1808
     20  OG1      129.2410   21.9780   43.8460 O.3   128  THR128     -0.2208
     21  CG2      129.8400   20.2510   42.2580 C.3   128  THR128      0.0379
     22  N        130.2340   17.3380   44.6970 N.am  129  GLY129     -0.1939
     23  CA       131.0810   16.1360   44.7220 C.3   129  GLY129      0.2014
     24  C        130.7170   15.0680   45.7560 C.2   129  GLY129      0.2638
     25  O        130.0970   15.3570   46.7630 O.2   129  GLY129     -0.2714
     26  N        131.1350   13.8350   45.4940 N.am  130  LEU130     -0.1977
     27  CA       130.8580   12.6750   46.3410 C.3   130  LEU130      0.1596
     28  C        132.1820   12.0240   46.7010 C.2   130  LEU130      0.2287
     29  O        132.2440   10.9000   47.1910 O.2   130  LEU130     -0.2864
     30  CB       129.9640   11.6500   45.6130 C.3   130  LEU130      0.0297
     31  CG       128.4810   12.0100   45.3990 C.3   130  LEU130      0.0022
     32  CD1      127.7320   10.8790   44.7010 C.3   130  LEU130      0.0001
     33  CD2      127.7710   12.4410   46.6930 C.3   130  LEU130      0.0001
     34  N        130.2240   15.1290   49.8850 N.3   153  SER153     -0.1217
     35  CA       131.0690   16.2760   50.0160 C.3   153  SER153      0.1889
     36  C        131.3580   16.5940   51.4770 C.2   153  SER153      0.2288
     37  O        132.3310   17.2670   51.7570 O.2   153  SER153     -0.2866
     38  CB       130.4300   17.4610   49.3210 C.3   153  SER153      0.2089
     39  OG       129.1870   17.7710   49.9040 O.3   153  SER153     -0.2183
     40  N        125.6930   18.0890   54.8530 N.3   172  THR172     -0.1203
     41  CA       124.4970   18.4290   54.0420 C.3   172  THR172      0.1994
     42  C        124.3770   17.3970   52.9670 C.2   172  THR172      0.2618
     43  O        125.3370   16.6920   52.6610 O.2   172  THR172     -0.2717
     44  CB       124.5670   19.8190   53.3830 C.3   172  THR172      0.1784
     45  OG1      125.8140   19.9250   52.6840 O.3   172  THR172     -0.2211
     46  CG2      124.4760   20.9370   54.4170 C.3   172  THR172      0.0376
     47  N        123.1940   17.2700   52.4040 N.am  173  ASP173     -0.1959
     48  CA       122.9730   16.2200   51.4570 C.3   173  ASP173      0.1840
     49  C        121.9340   16.6870   50.4690 C.2   173  ASP173      0.2623
     50  O        120.8360   17.0540   50.8370 O.2   173  ASP173     -0.2715
     51  CB       122.5920   14.9370   52.1770 C.3   173  ASP173      0.1450
     52  CG       122.5510   13.7190   51.2460 C.2   173  ASP173      0.3671
     53  OD1      121.9120   13.8600   50.1870 O.co2 173  ASP173     -0.2456
     54  OD2      123.1240   12.6260   51.5780 O.co2 173  ASP173     -0.2456
     55  N        122.3620   16.7450   49.2100 N.am  174  THR174     -0.1937
     56  CA       121.5580   17.0570   48.0680 C.3   174  THR174      0.2028
     57  C        121.4220   15.7670   47.2480 C.2   174  THR174      0.2642
     58  O        120.3200   15.3010   46.9970 O.2   174  THR174     -0.2714
     59  CB       122.2450   18.1550   47.2370 C.3   174  THR174      0.1808
     60  OG1      122.3290   19.3610   48.0100 O.3   174  THR174     -0.2208
     61  CG2      121.4770   18.4520   45.9420 C.3   174  THR174      0.0379
     62  N        122.5440   15.1800   46.8500 N.am  175  ALA175     -0.1977
     63  CA       122.5150   13.9280   46.1370 C.3   175  ALA175      0.1597
     64  C        123.5830   12.9950   46.6690 C.2   175  ALA175      0.2287
     65  O        124.4200   12.5080   45.8850 O.2   175  ALA175     -0.2864
     66  CB       122.7110   14.1710   44.6360 C.3   175  ALA175      0.0319
     67  N        125.7860   13.4530   49.8070 N.3   177  ALA177     -0.1245
     68  CA       126.9150   13.9080   50.6180 C.3   177  ALA177      0.1562
     69  C        126.8110   13.6120   52.1310 C.2   177  ALA177      0.2260
     70  O        127.8080   13.7350   52.8460 O.2   177  ALA177     -0.2867
     71  CB       127.1640   15.3940   50.3980 C.3   177  ALA177      0.0290
     72  N        122.5990   25.7190   41.8190 N.3   313  ARG313     -0.1245
     73  CA       123.9860   26.0550   42.1870 C.3   313  ARG313      0.1563
     74  C        124.4170   27.4080   41.6340 C.2   313  ARG313      0.2260
     75  O        125.0010   28.2350   42.3490 O.2   313  ARG313     -0.2867
     76  CB       124.9650   24.9970   41.7030 C.3   313  ARG313      0.0307
     77  CG       124.6970   23.6070   42.2340 C.3   313  ARG313      0.0489
     78  CD       125.9400   22.7310   42.2060 C.3   313  ARG313      0.2205
     79  NE       125.7380   21.5610   43.0670 N.pl3 313  ARG313     -0.0865
     80  CZ       125.1480   20.4380   42.6700 C.cat 313  ARG313      0.5346
     81  NH1      124.7140   20.3110   41.4140 N.pl3 313  ARG313      0.1354
     82  NH2      124.9900   19.4410   43.5160 N.pl3 313  ARG313      0.1354
     83  N        133.1190    9.9640   40.5860 N.3   395  ASN395     -0.1240
     84  CA       132.0470   10.7650   41.1290 C.3   395  ASN395      0.1653
     85  C        130.6730   10.2380   40.7700 C.2   395  ASN395      0.2266
     86  O        129.8340   10.0490   41.6520 O.2   395  ASN395     -0.2867
     87  CB       132.1490   12.2350   40.7110 C.3   395  ASN395      0.1155
     88  CG       131.4820   13.1770   41.7210 C.2   395  ASN395      0.2627
     89  OD1      131.9510   13.2920   42.8620 O.2   395  ASN395     -0.2716
     90  ND2      130.3880   13.8440   41.3200 N.am  395  ASN395     -0.0877
     91  N        121.2720    9.6070   43.9470 N.3   403  ASN403     -0.1240
     92  CA       120.7550   10.7250   43.1830 C.3   403  ASN403      0.1653
     93  C        119.2300   10.9530   43.0990 C.2   403  ASN403      0.2266
     94  O        118.8080   12.0350   42.7280 O.2   403  ASN403     -0.2867
     95  CB       121.4050   10.7590   41.7970 C.3   403  ASN403      0.1155
     96  CG       122.8510   11.2750   41.8200 C.2   403  ASN403      0.2627
     97  OD1      123.3920   11.6720   42.8600 O.2   403  ASN403     -0.2716
     98  ND2      123.4810   11.2810   40.6530 N.am  403  ASN403     -0.0877
@<TRIPOS>BOND
     1    83    84    1
     2    98    96   am
     3    87    84    1
     4    87    88    1
     5    85    84    1
     6    85    86    2
     7    90    88   am
     8    81    80    1
     9    74    73    1
    10    74    75    2
    11    76    73    1
    12    76    77    1
    13    88    89    2
    14    95    96    1
    15    95    92    1
    16    72    73    1
    17    96    97    2
    18    78    77    1
    19    78    79    1
    20    21    19    1
    21    80    79    2
    22    80    82    1
    23    94    93    2
    24    93    92    1
    25    92    91    1
    26    19    20    1
    27    19    16    1
    28    18    17    2
    29    17    22   am
    30    17    16    1
    31    66    63    1
    32    22    23    1
    33    32    31    1
    34    23    24    1
    35    16    15    1
    36    31    30    1
    37    31    33    1
    38    26    24   am
    39    26    27    1
    40    30    27    1
    41    24    25    2
    42    65    64    2
    43    61    59    1
    44    15    12   am
    45    63    64    1
    46    63    62    1
    47    27    28    1
    48    28    29    2
    49    13    12    2
    50    62    57   am
    51    12    11    1
    52    58    57    2
    53    59    60    1
    54    59    56    1
    55    57    56    1
    56    10    11    1
    57    56    55    1
    58    11    14    1
    59    55    49   am
    60    38    39    1
    61    38    35    1
    62    67    68    1
    63    34    35    1
    64    35    36    1
    65    53    52   ar
    66    71    68    1
    67    49    50    2
    68    49    48    1
    69    68    69    1
    70    52    54   ar
    71    52    51    1
    72    48    51    1
    73    48    47    1
    74    36    37    2
    75    69    70    2
    76    47    42   am
    77     9     8    1
    78    43    42    2
    79    45    44    1
    80    42    41    1
    81     8     7    1
    82    44    41    1
    83    44    46    1
    84    41    40    1
    85     7     6    1
    86     6     5    1
    87     5     2    1
    88     3     2    1
    89     3     4    2
    90     2     1    1
