@<TRIPOS>MOLECULE
tmp/4isuA00.pdb
 133 125 0 0 0
SMALL
GASTEIGER

@<TRIPOS>ATOM
      1  N          3.8730   32.9820    2.3680 N.3    10  GLU10      -0.1245
      2  CA         3.0330   32.9810    1.1820 C.3    10  GLU10       0.1567
      3  C          3.3020   34.2460    0.3930 C.2    10  GLU10       0.2260
      4  O          3.0340   35.3470    0.8730 O.2    10  GLU10      -0.2867
      5  CB         1.5570   32.9330    1.5890 C.3    10  GLU10       0.0388
      6  CG         0.5590   33.0460    0.4420 C.3    10  GLU10       0.1160
      7  CD         0.3700   31.7290   -0.2940 C.2    10  GLU10       0.3649
      8  OE1       -0.7730   31.4220   -0.7120 O.co2  10  GLU10      -0.2457
      9  OE2        1.3720   31.0030   -0.4520 O.co2  10  GLU10      -0.2457
     10  N         -3.1510   27.8100    8.3590 N.3    58  TYR58      -0.1241
     11  CA        -3.8850   29.0500    8.5660 C.3    58  TYR58       0.1605
     12  C         -4.6520   29.0280    9.8760 C.2    58  TYR58       0.2264
     13  O         -4.3710   29.8160   10.7770 O.2    58  TYR58      -0.2867
     14  CB        -4.8190   29.3250    7.3890 C.3    58  TYR58       0.0534
     15  CG        -4.0780   29.7700    6.1570 C.ar   58  TYR58      -0.0201
     16  CD1       -3.8030   31.1180    5.9500 C.ar   58  TYR58      -0.0009
     17  CD2       -3.6390   28.8480    5.2050 C.ar   58  TYR58      -0.0009
     18  CE1       -3.1200   31.5490    4.8300 C.ar   58  TYR58       0.0417
     19  CE2       -2.9510   29.2640    4.0730 C.ar   58  TYR58       0.0417
     20  CZ        -2.6980   30.6230    3.8920 C.ar   58  TYR58       0.1957
     21  OH        -2.0150   31.0780    2.7900 O.3    58  TYR58      -0.2866
     22  N         -2.5920   36.5530    5.0050 N.3    86  PRO86      -0.2116
     23  CA        -3.7880   36.4140    4.1620 C.3    86  PRO86       0.1372
     24  C         -4.7280   35.3970    4.7860 C.2    86  PRO86       0.2244
     25  O         -4.9850   34.3290    4.2180 O.2    86  PRO86      -0.2868
     26  CB        -3.2310   35.9010    2.8270 C.3    86  PRO86       0.0268
     27  CG        -1.9170   35.2930    3.1700 C.3    86  PRO86       0.0207
     28  CD        -1.3750   36.0950    4.3150 C.3    86  PRO86       0.0892
     29  N         -8.3590   34.5640    5.8770 N.3    88  THR88      -0.1218
     30  CA        -9.7230   34.9560    5.5350 C.3    88  THR88       0.1862
     31  C        -10.6430   35.1120    6.7510 C.2    88  THR88       0.2287
     32  O        -10.6150   34.2840    7.6680 O.2    88  THR88      -0.2866
     33  CB       -10.3730   33.9460    4.5850 C.3    88  THR88       0.1770
     34  OG1       -9.5100   33.7150    3.4610 O.3    88  THR88      -0.2211
     35  CG2      -11.7550   34.4680    4.1130 C.3    88  THR88       0.0375
     36  N        -13.9710   31.1710   12.5530 N.3    93  ARG93      -0.1245
     37  CA       -12.8160   31.8350   13.1480 C.3    93  ARG93       0.1563
     38  C        -13.2260   33.0410   13.9800 C.2    93  ARG93       0.2260
     39  O        -12.6830   33.2660   15.0640 O.2    93  ARG93      -0.2867
     40  CB       -11.8290   32.2750   12.0620 C.3    93  ARG93       0.0307
     41  CG       -10.9520   31.1360   11.5000 C.3    93  ARG93       0.0489
     42  CD       -10.2070   31.5820   10.2440 C.3    93  ARG93       0.2205
     43  NE        -9.4420   30.4980    9.6420 N.pl3  93  ARG93      -0.0865
     44  CZ        -8.9870   30.4960    8.3900 C.cat  93  ARG93       0.5346
     45  NH1       -9.2200   31.5240    7.5750 N.pl3  93  ARG93       0.1354
     46  NH2       -8.2980   29.4520    7.9510 N.pl3  93  ARG93       0.1354
     47  N        -11.1380   40.0150   -1.7460 N.3   106  LEU106     -0.1245
     48  CA       -10.8310   39.1030   -2.8340 C.3   106  LEU106      0.1561
     49  C        -12.0170   38.2010   -3.1630 C.2   106  LEU106      0.2260
     50  O        -13.0310   38.2270   -2.4700 O.2   106  LEU106     -0.2867
     51  CB        -9.6190   38.2480   -2.4690 C.3   106  LEU106      0.0270
     52  CG        -9.8660   37.2650   -1.3230 C.3   106  LEU106      0.0019
     53  CD1       -9.1070   35.9670   -1.5610 C.3   106  LEU106      0.0001
     54  CD2       -9.5030   37.8890    0.0290 C.3   106  LEU106      0.0001
     55  N         -8.5560   23.7870   -5.5980 N.3   135  LEU135     -0.1245
     56  CA        -7.8550   23.0960   -4.5350 C.3   135  LEU135      0.1561
     57  C         -8.7480   21.9650   -4.0480 C.2   135  LEU135      0.2260
     58  O         -9.9640   22.1240   -3.9610 O.2   135  LEU135     -0.2867
     59  CB        -7.5570   24.0460   -3.3790 C.3   135  LEU135      0.0270
     60  CG        -6.0890   24.1950   -3.0020 C.3   135  LEU135      0.0019
     61  CD1       -5.9590   25.0830   -1.7730 C.3   135  LEU135      0.0001
     62  CD2       -5.4800   22.8300   -2.7600 C.3   135  LEU135      0.0001
     63  N         -8.9910   20.6040   -1.1750 N.3   137  SER137     -0.1202
     64  CA        -9.6030   20.8610    0.1170 C.3   137  SER137      0.2020
     65  C         -9.5940   22.3500    0.4070 C.2   137  SER137      0.2619
     66  O         -8.5540   22.9930    0.3230 O.2   137  SER137     -0.2717
     67  CB        -8.8590   20.1120    1.2230 C.3   137  SER137      0.2103
     68  OG        -9.3480   20.4950    2.4980 O.3   137  SER137     -0.2182
     69  N        -10.7500   22.9000    0.7520 N.am  138  GLY138     -0.1942
     70  CA       -10.8080   24.2870    1.1600 C.3   138  GLY138      0.2014
     71  C        -12.0610   25.0060    0.7260 C.2   138  GLY138      0.2640
     72  O        -12.9870   24.3930    0.2000 O.2   138  GLY138     -0.2714
     73  N        -12.0820   26.3220    0.9250 N.am  139  SER139     -0.1935
     74  CA       -13.3130   27.0750    0.7760 C.3   139  SER139      0.2055
     75  C        -13.7930   27.1330   -0.6690 C.2   139  SER139      0.2643
     76  O        -14.9970   27.0950   -0.9170 O.2   139  SER139     -0.2714
     77  CB       -13.1780   28.4860    1.3670 C.3   139  SER139      0.2130
     78  OG       -12.1740   29.2400    0.7070 O.3   139  SER139     -0.2179
     79  N        -12.8690   27.2190   -1.6240 N.am  140  THR140     -0.1950
     80  CA       -13.2830   27.3120   -3.0220 C.3   140  THR140      0.1897
     81  C        -14.0870   26.0740   -3.4360 C.2   140  THR140      0.2313
     82  O        -15.1430   26.1720   -4.0790 O.2   140  THR140     -0.2863
     83  CB       -12.0920   27.5160   -3.9710 C.3   140  THR140      0.1794
     84  OG1      -11.4680   28.7700   -3.6800 O.3   140  THR140     -0.2208
     85  CG2      -12.5620   27.5290   -5.4260 C.3   140  THR140      0.0378
     86  N         -1.7800   24.8540   -4.1860 N.3   171  THR171     -0.1218
     87  CA        -1.9180   25.9630   -5.1080 C.3   171  THR171      0.1862
     88  C         -0.8290   25.8560   -6.1640 C.2   171  THR171      0.2287
     89  O         -1.0730   26.0500   -7.3570 O.2   171  THR171     -0.2866
     90  CB        -1.7840   27.3250   -4.3820 C.3   171  THR171      0.1770
     91  OG1       -2.8920   27.5190   -3.4940 O.3   171  THR171     -0.2211
     92  CG2       -1.7510   28.4580   -5.3870 C.3   171  THR171      0.0375
     93  N         -7.8290   26.9130  -13.7170 N.3   187  TYR187     -0.1241
     94  CA        -7.7600   26.7750  -12.2660 C.3   187  TYR187      0.1605
     95  C         -8.5680   27.8780  -11.5640 C.2   187  TYR187      0.2264
     96  O         -8.5120   29.0530  -11.9480 O.2   187  TYR187     -0.2867
     97  CB        -6.2900   26.8120  -11.8290 C.3   187  TYR187      0.0534
     98  CG        -6.0400   26.5850  -10.3560 C.ar  187  TYR187     -0.0201
     99  CD1       -6.6020   25.5030   -9.6930 C.ar  187  TYR187     -0.0009
    100  CD2       -5.2100   27.4380   -9.6340 C.ar  187  TYR187     -0.0009
    101  CE1       -6.3660   25.2880   -8.3460 C.ar  187  TYR187      0.0417
    102  CE2       -4.9680   27.2340   -8.2850 C.ar  187  TYR187      0.0417
    103  CZ        -5.5490   26.1560   -7.6470 C.ar  187  TYR187      0.1957
    104  OH        -5.3170   25.9430   -6.3100 O.3   187  TYR187     -0.2866
    105  N         -9.1070   29.9680   -8.1460 N.3   189  LEU189     -0.1231
    106  CA        -8.4050   30.3770   -6.9380 C.3   189  LEU189      0.1693
    107  C         -8.5940   31.8710   -6.6350 C.2   189  LEU189      0.2591
    108  O         -9.1690   32.6240   -7.4390 O.2   189  LEU189     -0.2718
    109  CB        -6.9180   30.0400   -7.0550 C.3   189  LEU189      0.0284
    110  CG        -6.0810   30.9590   -7.9510 C.3   189  LEU189      0.0019
    111  CD1       -4.6130   30.5880   -7.8400 C.3   189  LEU189      0.0001
    112  CD2       -6.5570   30.9580   -9.4050 C.3   189  LEU189      0.0001
    113  N         -8.1110   32.2840   -5.4650 N.am  190  GLU190     -0.1979
    114  CA        -8.2170   33.6710   -5.0240 C.3   190  GLU190      0.1602
    115  C         -7.8090   34.6220   -6.1290 C.2   190  GLU190      0.2287
    116  O         -6.7320   34.4810   -6.7220 O.2   190  GLU190     -0.2864
    117  CB        -7.3200   33.9220   -3.8060 C.3   190  GLU190      0.0415
    118  CG        -7.7660   33.2490   -2.5210 C.3   190  GLU190      0.1163
    119  CD        -7.7540   31.7390   -2.6020 C.2   190  GLU190      0.3649
    120  OE1       -6.8470   31.1830   -3.2620 O.co2 190  GLU190     -0.2457
    121  OE2       -8.6620   31.1160   -2.0090 O.co2 190  GLU190     -0.2457
    122  N         -9.5910   39.4410    3.9610 N.3   217  TYR217     -0.1241
    123  CA        -8.5000   39.1670    4.8900 C.3   217  TYR217      0.1605
    124  C         -8.5410   40.2000    6.0010 C.2   217  TYR217      0.2264
    125  O         -8.6670   41.3990    5.7310 O.2   217  TYR217     -0.2867
    126  CB        -7.1290   39.2650    4.2000 C.3   217  TYR217      0.0534
    127  CG        -6.8640   38.2230    3.1430 C.ar  217  TYR217     -0.0201
    128  CD1       -7.4660   36.9840    3.2030 C.ar  217  TYR217     -0.0009
    129  CD2       -6.0120   38.4900    2.0770 C.ar  217  TYR217     -0.0009
    130  CE1       -7.2280   36.0420    2.2430 C.ar  217  TYR217      0.0417
    131  CE2       -5.7640   37.5480    1.1110 C.ar  217  TYR217      0.0417
    132  CZ        -6.3710   36.3230    1.2000 C.ar  217  TYR217      0.1957
    133  OH        -6.1310   35.3630    0.2390 O.3   217  TYR217     -0.2866
@<TRIPOS>BOND
     1    93    94    1
     2    94    97    1
     3    94    95    1
     4    96    95    2
     5    97    98    1
     6    98    99   ar
     7    98   100   ar
     8    99   101   ar
     9   100   102   ar
    10   112   110    1
    11   101   103   ar
    12   102   103   ar
    13   105   106    1
    14   110   111    1
    15   110   109    1
    16   103   104    1
    17   108   107    2
    18    89    88    2
    19   109   106    1
    20   106   107    1
    21   116   115    2
    22   107   113   am
    23    88    87    1
    24   115   114    1
    25    55    56    1
    26   113   114    1
    27    85    83    1
    28    92    90    1
    29    87    90    1
    30    87    86    1
    31   114   117    1
    32    56    57    1
    33    56    59    1
    34    90    91    1
    35    82    81    2
    36    57    58    2
    37    83    84    1
    38    83    80    1
    39   117   118    1
    40    81    80    1
    41    59    60    1
    42   120   119   ar
    43    49    48    1
    44    49    50    2
    45    80    79    1
    46    60    62    1
    47    60    61    1
    48    48    51    1
    49    48    47    1
    50   119   118    1
    51   119   121   ar
    52    51    52    1
    53    79    75   am
    54    53    52    1
    55    52    54    1
    56    63    64    1
    57    76    75    2
    58     8     7   ar
    59    75    74    1
    60     9     7   ar
    61     7     6    1
    62    64    65    1
    63    64    67    1
    64    72    71    2
    65   133   132    1
    66    66    65    2
    67     3     4    2
    68     3     2    1
    69    65    69   am
    70     6     5    1
    71    78    77    1
    72    71    73   am
    73    71    70    1
    74    69    70    1
    75    74    73    1
    76    74    77    1
    77   131   132   ar
    78   131   129   ar
    79     2     5    1
    80     2     1    1
    81   132   130   ar
    82    67    68    1
    83   129   127   ar
    84   130   128   ar
    85    21    20    1
    86    26    27    1
    87    26    23    1
    88   127   128   ar
    89   127   126    1
    90    27    28    1
    91    34    33    1
    92    20    19   ar
    93    20    18   ar
    94   122   123    1
    95    19    17   ar
    96    35    33    1
    97    23    24    1
    98    23    22    1
    99   126   123    1
   100    25    24    2
   101    28    22    1
   102    33    30    1
   103    18    16   ar
   104   123   124    1
   105    17    15   ar
   106    30    29    1
   107    30    31    1
   108   125   124    2
   109    16    15   ar
   110    15    14    1
   111    31    32    2
   112    14    11    1
   113    45    44    1
   114    46    44    1
   115    10    11    1
   116    44    43    2
   117    11    12    1
   118    43    42    1
   119    12    13    2
   120    42    41    1
   121    41    40    1
   122    40    37    1
   123    36    37    1
   124    37    38    1
   125    38    39    2
