@<TRIPOS>MOLECULE
tmp/4isxA00.pdb
 124 119 0 0 0
SMALL
GASTEIGER

@<TRIPOS>ATOM
      1  N         -3.3950  -28.7860  -61.6400 N.3    80  PHE80      -0.1241
      2  CA        -4.1560  -28.5170  -62.8470 C.3    80  PHE80       0.1605
      3  C         -5.4440  -27.7780  -62.5270 C.2    80  PHE80       0.2264
      4  O         -6.2300  -28.2160  -61.6880 O.2    80  PHE80      -0.2867
      5  CB        -4.4720  -29.8120  -63.5950 C.3    80  PHE80       0.0534
      6  CG        -5.3150  -29.6080  -64.8200 C.ar   80  PHE80      -0.0203
      7  CD1       -6.6930  -29.7660  -64.7660 C.ar   80  PHE80      -0.0042
      8  CD2       -4.7300  -29.2520  -66.0240 C.ar   80  PHE80      -0.0042
      9  CE1       -7.4710  -29.5720  -65.8900 C.ar   80  PHE80      -0.0003
     10  CE2       -5.5000  -29.0560  -67.1520 C.ar   80  PHE80      -0.0003
     11  CZ        -6.8730  -29.2160  -67.0870 C.ar   80  PHE80      -0.0000
     12  N         -8.6470  -26.1270  -64.7480 N.3    82  ASN82      -0.1240
     13  CA        -9.2460  -25.9730  -66.0630 C.3    82  ASN82       0.1653
     14  C         -9.8440  -24.5850  -66.2670 C.2    82  ASN82       0.2266
     15  O         -9.5710  -23.6600  -65.5000 O.2    82  ASN82      -0.2867
     16  CB       -10.3000  -27.0560  -66.2980 C.3    82  ASN82       0.1155
     17  CG       -10.2220  -27.6580  -67.6900 C.2    82  ASN82       0.2627
     18  OD1      -10.0480  -26.9470  -68.6770 O.2    82  ASN82      -0.2716
     19  ND2      -10.3490  -28.9780  -67.7720 N.am   82  ASN82      -0.0877
     20  N         -8.3880  -29.3610  -60.9490 N.3   100  LEU100     -0.1231
     21  CA        -9.6770  -28.6860  -60.9420 C.3   100  LEU100      0.1693
     22  C        -10.3160  -28.6850  -62.3210 C.2   100  LEU100      0.2592
     23  O         -9.6910  -28.3090  -63.3120 O.2   100  LEU100     -0.2718
     24  CB        -9.5310  -27.2460  -60.4570 C.3   100  LEU100      0.0284
     25  CG        -8.8020  -27.0270  -59.1360 C.3   100  LEU100      0.0019
     26  CD1       -8.9090  -25.5660  -58.7230 C.3   100  LEU100      0.0001
     27  CD2       -9.3500  -27.9480  -58.0660 C.3   100  LEU100      0.0001
     28  N        -11.5750  -29.1020  -62.3660 N.am  101  ALA101     -0.1966
     29  CA       -12.3690  -29.0730  -63.5830 C.3   101  ALA101      0.1713
     30  C        -12.7490  -27.6190  -63.9140 C.2   101  ALA101      0.2458
     31  O        -12.4040  -26.7030  -63.1630 O.2   101  ALA101     -0.2730
     32  CB       -13.5990  -29.9480  -63.4000 C.3   101  ALA101      0.0333
     33  N        -13.4360  -27.3880  -65.0470 N.am  102  PRO102     -0.2727
     34  CA       -13.8010  -25.9910  -65.3010 C.3   102  PRO102      0.1402
     35  C        -14.7740  -25.4130  -64.2780 C.2   102  PRO102      0.2269
     36  O        -15.5030  -26.1550  -63.6180 O.2   102  PRO102     -0.2865
     37  CB       -14.4760  -26.0530  -66.6700 C.3   102  PRO102      0.0296
     38  CG       -13.8820  -27.2300  -67.3230 C.3   102  PRO102      0.0237
     39  CD       -13.6760  -28.2320  -66.2310 C.3   102  PRO102      0.0939
     40  N         -9.5440  -34.8610  -57.0090 N.3   135  TRP135     -0.1241
     41  CA       -10.2020  -34.4420  -58.2370 C.3   135  TRP135      0.1605
     42  C        -11.4710  -33.6630  -57.9110 C.2   135  TRP135      0.2264
     43  O        -12.4070  -34.2020  -57.3190 O.2   135  TRP135     -0.2867
     44  CB       -10.5450  -35.6510  -59.1080 C.3   135  TRP135      0.0550
     45  CG       -11.3320  -35.2980  -60.3410 C.ar  135  TRP135      0.0003
     46  CD1      -11.2850  -34.1260  -61.0420 C.ar  135  TRP135      0.0946
     47  CD2      -12.2960  -36.1230  -61.0040 C.ar  135  TRP135      0.0152
     48  NE1      -12.1550  -34.1760  -62.1020 N.ar  135  TRP135     -0.2442
     49  CE2      -12.7880  -35.3910  -62.1010 C.ar  135  TRP135      0.0810
     50  CE3      -12.7860  -37.4120  -60.7830 C.ar  135  TRP135      0.0012
     51  CZ2      -13.7490  -35.9080  -62.9720 C.ar  135  TRP135      0.0191
     52  CZ3      -13.7390  -37.9210  -61.6470 C.ar  135  TRP135      0.0001
     53  CH2      -14.2100  -37.1710  -62.7260 C.ar  135  TRP135      0.0015
     54  N        -14.7390  -31.7720  -59.3040 N.3   137  GLY137     -0.1210
     55  CA       -15.6110  -31.7080  -60.4640 C.3   137  GLY137      0.1956
     56  C        -15.9500  -30.3090  -60.9390 C.2   137  GLY137      0.2612
     57  O        -15.6320  -29.3180  -60.2830 O.2   137  GLY137     -0.2717
     58  N        -16.6050  -30.2360  -62.0930 N.am  138  GLY138     -0.1956
     59  CA       -16.9530  -28.9690  -62.7060 C.3   138  GLY138      0.1869
     60  C        -18.0320  -28.2010  -61.9720 C.2   138  GLY138      0.2309
     61  O        -19.0480  -28.7690  -61.5710 O.2   138  GLY138     -0.2863
     62  N        -12.8510  -37.3140  -54.2960 N.3   153  VAL153     -0.1231
     63  CA       -13.4550  -36.9270  -55.5620 C.3   153  VAL153      0.1692
     64  C        -14.7520  -36.1750  -55.3160 C.2   153  VAL153      0.2592
     65  O        -15.7360  -36.7520  -54.8530 O.2   153  VAL153     -0.2718
     66  CB       -13.7490  -38.1430  -56.4550 C.3   153  VAL153      0.0266
     67  CG1      -14.5220  -37.7130  -57.6960 C.3   153  VAL153      0.0020
     68  CG2      -12.4560  -38.8420  -56.8400 C.3   153  VAL153      0.0020
     69  N        -14.7510  -34.8840  -55.6270 N.am  154  ILE154     -0.1966
     70  CA       -15.9500  -34.0720  -55.4810 C.3   154  ILE154      0.1727
     71  C        -16.6980  -34.0040  -56.8050 C.2   154  ILE154      0.2617
     72  O        -16.1650  -33.5240  -57.8030 O.2   154  ILE154     -0.2715
     73  CB       -15.6210  -32.6450  -55.0110 C.3   154  ILE154      0.0290
     74  CG1      -14.8340  -32.6760  -53.7000 C.3   154  ILE154      0.0022
     75  CG2      -16.8940  -31.8440  -54.8370 C.3   154  ILE154      0.0023
     76  CD1      -15.6270  -33.2060  -52.5280 C.3   154  ILE154      0.0001
     77  N        -17.9370  -34.4830  -56.8050 N.am  155  GLY155     -0.1940
     78  CA       -18.7460  -34.5030  -58.0080 C.3   155  GLY155      0.2014
     79  C        -19.1070  -33.1160  -58.5010 C.2   155  GLY155      0.2639
     80  O        -19.1610  -32.1630  -57.7240 O.2   155  GLY155     -0.2714
     81  N        -19.3550  -33.0160  -59.8030 N.am  156  ALA156     -0.1963
     82  CA       -19.7040  -31.7540  -60.4460 C.3   156  ALA156      0.1728
     83  C        -20.9150  -31.0890  -59.8000 C.2   156  ALA156      0.2616
     84  O        -21.8410  -31.7650  -59.3540 O.2   156  ALA156     -0.2715
     85  CB       -19.9670  -31.9750  -61.9300 C.3   156  ALA156      0.0334
     86  N        -20.9020  -29.7590  -59.7640 N.am  157  GLY157     -0.1955
     87  CA       -22.0310  -28.9900  -59.2730 C.3   157  GLY157      0.1869
     88  C        -22.2270  -29.0580  -57.7730 C.2   157  GLY157      0.2309
     89  O        -23.2430  -28.5940  -57.2550 O.2   157  GLY157     -0.2863
     90  N        -15.9590  -40.2930  -51.8800 N.3   169  VAL169     -0.1245
     91  CA       -16.5570  -39.5980  -53.0100 C.3   169  VAL169      0.1561
     92  C        -17.7230  -38.7650  -52.4920 C.2   169  VAL169      0.2260
     93  O        -18.5960  -39.2780  -51.7920 O.2   169  VAL169     -0.2867
     94  CB       -17.0730  -40.5780  -54.0690 C.3   169  VAL169      0.0252
     95  CG1      -17.7460  -39.8240  -55.2020 C.3   169  VAL169      0.0019
     96  CG2      -15.9340  -41.4380  -54.5920 C.3   169  VAL169      0.0019
     97  N        -20.7510  -35.7150  -53.3650 N.3   171  VAL171     -0.1231
     98  CA       -21.5310  -34.9420  -54.3280 C.3   171  VAL171      0.1692
     99  C        -22.6890  -34.2100  -53.6550 C.2   171  VAL171      0.2592
    100  O        -22.9980  -34.4560  -52.4880 O.2   171  VAL171     -0.2718
    101  CB       -22.1390  -35.8500  -55.4240 C.3   171  VAL171      0.0266
    102  CG1      -21.0530  -36.6270  -56.1590 C.3   171  VAL171      0.0020
    103  CG2      -23.1640  -36.8040  -54.8140 C.3   171  VAL171      0.0020
    104  N        -23.3300  -33.3150  -54.4010 N.am  172  GLY172     -0.1957
    105  CA       -24.5910  -32.7350  -53.9730 C.3   172  GLY172      0.1869
    106  C        -24.5710  -31.3120  -53.4500 C.2   172  GLY172      0.2309
    107  O        -23.5150  -30.7170  -53.2400 O.2   172  GLY172     -0.2863
    108  N        -20.9520  -40.1530  -50.5140 N.3   178  ILE178     -0.1231
    109  CA       -21.7990  -41.2330  -51.0080 C.3   178  ILE178      0.1692
    110  C        -21.0420  -42.5570  -51.1100 C.2   178  ILE178      0.2591
    111  O        -21.6530  -43.6220  -51.1350 O.2   178  ILE178     -0.2718
    112  CB       -22.4170  -40.8990  -52.3770 C.3   178  ILE178      0.0266
    113  CG1      -21.3190  -40.6590  -53.4140 C.3   178  ILE178      0.0019
    114  CG2      -23.3290  -39.6900  -52.2660 C.3   178  ILE178      0.0020
    115  CD1      -21.8470  -40.3740  -54.7990 C.3   178  ILE178      0.0001
    116  N        -19.7160  -42.4860  -51.1730 N.am  179  LYS179     -0.1980
    117  CA       -18.8910  -43.6870  -51.2580 C.3   179  LYS179      0.1596
    118  C        -17.5790  -43.5400  -50.5030 C.2   179  LYS179      0.2287
    119  O        -17.0510  -42.4380  -50.3550 O.2   179  LYS179     -0.2864
    120  CB       -18.5690  -44.0340  -52.7140 C.3   179  LYS179      0.0298
    121  CG       -19.7190  -44.5790  -53.5330 C.3   179  LYS179      0.0038
    122  CD       -19.2030  -45.1210  -54.8580 C.3   179  LYS179      0.0206
    123  CE       -20.3400  -45.4980  -55.7920 C.3   179  LYS179      0.1093
    124  NZ       -21.1440  -44.3080  -56.1860 N.3   179  LYS179     -0.1314
@<TRIPOS>BOND
     1    18    17    2
     2    19    17   am
     3    17    16    1
     4    38    37    1
     5    38    39    1
     6    10    11   ar
     7    10     8   ar
     8    11     9   ar
     9    37    34    1
    10    16    13    1
    11    14    13    1
    12    14    15    2
    13    39    33    1
    14    13    12    1
    15     8     6   ar
    16     9     7   ar
    17    34    33    1
    18    34    35    1
    19    33    30   am
    20     6     7   ar
    21     6     5    1
    22    35    36    2
    23    30    29    1
    24    30    31    2
    25     5     2    1
    26    29    32    1
    27    29    28    1
    28    23    22    2
    29    51    53   ar
    30    51    49   ar
    31     2     3    1
    32     2     1    1
    33    53    52   ar
    34    59    58    1
    35    59    60    1
    36     3     4    2
    37    28    22   am
    38    22    21    1
    39    48    49   ar
    40    48    46   ar
    41    49    47   ar
    42    58    56   am
    43    60    61    2
    44    85    82    1
    45    52    50   ar
    46    46    45   ar
    47    47    50   ar
    48    47    45   ar
    49    20    21    1
    50    21    24    1
    51    56    55    1
    52    56    57    2
    53    55    54    1
    54    24    25    1
    55    82    81    1
    56    82    83    1
    57    45    44    1
    58    81    79   am
    59    83    86   am
    60    83    84    2
    61    86    87    1
    62    87    88    1
    63    25    26    1
    64    25    27    1
    65    44    41    1
    66    79    78    1
    67    79    80    2
    68    41    42    1
    69    41    40    1
    70    78    77    1
    71    42    43    2
    72    72    71    2
    73    88    89    2
    74    67    66    1
    75    68    66    1
    76    71    77   am
    77    71    70    1
    78    66    63    1
    79   124   123    1
    80   102   101    1
    81   123   122    1
    82    69    70    1
    83    69    64   am
    84    63    64    1
    85    63    62    1
    86    70    73    1
    87   101   103    1
    88   101    98    1
    89    64    65    2
    90    95    94    1
    91    73    75    1
    92    73    74    1
    93   122   121    1
    94   115   113    1
    95    96    94    1
    96   104   105    1
    97   104    99   am
    98    98    99    1
    99    98    97    1
   100    94    91    1
   101   105   106    1
   102    74    76    1
   103    99   100    2
   104   121   120    1
   105   106   107    2
   106   113   112    1
   107    91    92    1
   108    91    90    1
   109   120   117    1
   110    92    93    2
   111   112   114    1
   112   112   109    1
   113   117   116    1
   114   117   118    1
   115   116   110   am
   116   111   110    2
   117   110   109    1
   118   109   108    1
   119   118   119    2
