@<TRIPOS>MOLECULE
tmp/4it1D00.pdb
 127 120 0 0 0
SMALL
GASTEIGER

@<TRIPOS>ATOM
      1  N         26.3430   17.3400  -15.4590 N.3    23  ASN23      -0.1240
      2  CA        25.8080   16.4230  -14.4650 C.3    23  ASN23       0.1653
      3  C         24.9860   15.3110  -15.1420 C.2    23  ASN23       0.2266
      4  O         24.8500   15.3070  -16.3560 O.2    23  ASN23      -0.2867
      5  CB        24.9870   17.1980  -13.4350 C.3    23  ASN23       0.1155
      6  CG        23.7880   17.9040  -14.0540 C.2    23  ASN23       0.2627
      7  OD1       23.0770   17.3360  -14.8720 O.2    23  ASN23      -0.2716
      8  ND2       23.5630   19.1450  -13.6630 N.am   23  ASN23      -0.0877
      9  N         24.7670   22.7570  -17.0070 N.3    28  HIS28      -0.1241
     10  CA        24.3140   24.0740  -16.5370 C.3    28  HIS28       0.1621
     11  C         24.2460   25.1040  -17.6520 C.2    28  HIS28       0.2264
     12  O         25.0650   25.1030  -18.5730 O.2    28  HIS28      -0.2867
     13  CB        25.2080   24.6240  -15.4150 C.3    28  HIS28       0.0745
     14  CG        25.1720   23.8150  -14.1590 C.ar   28  HIS28       0.0817
     15  ND1       25.3480   24.3730  -12.9140 N.ar   28  HIS28      -0.2268
     16  CD2       24.9810   22.4890  -13.9550 C.ar   28  HIS28       0.1154
     17  CE1       25.2820   23.4270  -11.9950 C.ar   28  HIS28       0.1986
     18  NE2       25.0520   22.2740  -12.6010 N.ar   28  HIS28      -0.2212
     19  N         13.9020   17.6970  -11.3290 N.3   100  LEU100     -0.1231
     20  CA        15.2050   17.0460  -11.2820 C.3   100  LEU100      0.1693
     21  C         16.2190   17.7070  -10.3430 C.2   100  LEU100      0.2592
     22  O         17.0930   17.0240   -9.8210 O.2   100  LEU100     -0.2718
     23  CB        15.7690   16.9260  -12.6990 C.3   100  LEU100      0.0284
     24  CG        14.9620   16.0130  -13.6240 C.3   100  LEU100      0.0019
     25  CD1       15.3800   16.2020  -15.0770 C.3   100  LEU100      0.0001
     26  CD2       15.0980   14.5560  -13.1930 C.3   100  LEU100      0.0001
     27  N         16.0870   19.0190  -10.1290 N.am  101  ALA101     -0.1966
     28  CA        16.9830   19.7890   -9.2420 C.3   101  ALA101      0.1713
     29  C         16.6230   19.6330   -7.7510 C.2   101  ALA101      0.2458
     30  O         15.4680   19.3620   -7.4260 O.2   101  ALA101     -0.2730
     31  CB        16.9570   21.2640   -9.6420 C.3   101  ALA101      0.0333
     32  N         17.6100   19.7970   -6.8340 N.am  102  PRO102     -0.2727
     33  CA        17.2570   19.8150   -5.4140 C.3   102  PRO102      0.1402
     34  C         16.1390   20.8210   -5.1000 C.2   102  PRO102      0.2269
     35  O         16.1160   21.9340   -5.6460 O.2   102  PRO102     -0.2865
     36  CB        18.5730   20.1970   -4.7330 C.3   102  PRO102      0.0296
     37  CG        19.6190   19.6040   -5.6340 C.3   102  PRO102      0.0237
     38  CD        19.0770   19.7830   -7.0250 C.3   102  PRO102      0.0939
     39  N         33.4880   19.0370  -10.6400 N.3   152  PHE152     -0.1241
     40  CA        32.6300   18.7640  -11.7670 C.3   152  PHE152      0.1605
     41  C         33.4360   18.5960  -13.0360 C.2   152  PHE152      0.2264
     42  O         34.3860   19.3470  -13.2760 O.2   152  PHE152     -0.2867
     43  CB        31.7150   19.9640  -12.0150 C.3   152  PHE152      0.0534
     44  CG        30.5670   20.0820  -11.0580 C.ar  152  PHE152     -0.0203
     45  CD1       30.7530   20.6070   -9.7770 C.ar  152  PHE152     -0.0042
     46  CD2       29.2850   19.7300  -11.4610 C.ar  152  PHE152     -0.0042
     47  CE1       29.6770   20.7550   -8.9090 C.ar  152  PHE152     -0.0003
     48  CE2       28.2050   19.8800  -10.5990 C.ar  152  PHE152     -0.0003
     49  CZ        28.4040   20.3880   -9.3220 C.ar  152  PHE152     -0.0000
     50  N         31.0980   15.1250   -8.8240 N.3   196  LYS196     -0.1245
     51  CA        29.8050   15.0060   -9.4630 C.3   196  LYS196      0.1561
     52  C         29.9180   14.0090  -10.6180 C.2   196  LYS196      0.2260
     53  O         30.5370   14.2930  -11.6470 O.2   196  LYS196     -0.2867
     54  CB        29.2960   16.3680   -9.9650 C.3   196  LYS196      0.0271
     55  CG        27.9480   16.2790  -10.6720 C.3   196  LYS196      0.0035
     56  CD        26.7780   16.6880   -9.7690 C.3   196  LYS196      0.0206
     57  CE        26.5310   15.7130   -8.6280 C.3   196  LYS196      0.1093
     58  NZ        25.5400   16.2250   -7.6350 N.3   196  LYS196     -0.1314
     59  N         28.9020   11.3010   -6.4500 N.3   224  ASP224     -0.1239
     60  CA        27.4510   11.4370   -6.5140 C.3   224  ASP224      0.1674
     61  C         27.0760   11.2760   -7.9590 C.2   224  ASP224      0.2266
     62  O         27.1100   12.2490   -8.7210 O.2   224  ASP224     -0.2867
     63  CB        26.9910   12.8140   -6.0000 C.3   224  ASP224      0.1410
     64  CG        25.4690   12.9770   -6.0280 C.2   224  ASP224      0.3668
     65  OD1       24.7610   12.0000   -6.3520 O.co2 224  ASP224     -0.2456
     66  OD2       24.9660   14.0820   -5.7190 O.co2 224  ASP224     -0.2456
     67  N         24.1780   10.8090   -8.9430 N.3   226  ASN226     -0.1240
     68  CA        22.7750   11.2420   -9.0680 C.3   226  ASN226      0.1653
     69  C         21.8200   10.1390   -9.5460 C.2   226  ASN226      0.2266
     70  O         20.9620   10.3620  -10.4010 O.2   226  ASN226     -0.2867
     71  CB        22.6710   12.4960   -9.9500 C.3   226  ASN226      0.1155
     72  CG        22.8460   13.7750   -9.1570 C.2   226  ASN226      0.2627
     73  OD1       23.7790   14.5280   -9.3850 O.2   226  ASN226     -0.2716
     74  ND2       21.9620   14.0050   -8.1890 N.am  226  ASN226     -0.0877
     75  N         20.8340   12.4370   -1.1820 N.3   272  ASN272     -0.1240
     76  CA        19.8630   13.5300   -1.1240 C.3   272  ASN272      0.1653
     77  C         18.8500   13.4340   -2.2470 C.2   272  ASN272      0.2266
     78  O         18.3940   14.4480   -2.7770 O.2   272  ASN272     -0.2867
     79  CB        20.5050   14.9300   -1.0360 C.3   272  ASN272      0.1155
     80  CG        21.4850   15.2270   -2.1540 C.2   272  ASN272      0.2627
     81  OD1       21.6280   14.4810   -3.1280 O.2   272  ASN272     -0.2716
     82  ND2       22.1740   16.3430   -2.0130 N.am  272  ASN272     -0.0877
     83  N         24.3380   20.1880    2.9810 N.3   323  HIS323     -0.1241
     84  CA        24.5540   20.4230    1.5780 C.3   323  HIS323      0.1621
     85  C         23.8030   21.6800    1.1350 C.2   323  HIS323      0.2264
     86  O         22.6760   21.9340    1.5880 O.2   323  HIS323     -0.2867
     87  CB        24.1000   19.1780    0.7810 C.3   323  HIS323      0.0745
     88  CG        23.7510   19.4630   -0.6490 C.ar  323  HIS323      0.0817
     89  ND1       22.5730   20.0740   -1.0170 N.ar  323  HIS323     -0.2268
     90  CD2       24.4320   19.2380   -1.7970 C.ar  323  HIS323      0.1154
     91  CE1       22.5340   20.2010   -2.3300 C.ar  323  HIS323      0.1986
     92  NE2       23.6540   19.7070   -2.8270 N.ar  323  HIS323     -0.2212
     93  N         23.5710   23.6690   -2.9650 N.3   325  ASN325     -0.1225
     94  CA        24.0410   23.8320   -4.3320 C.3   325  ASN325      0.1785
     95  C         23.7030   25.2240   -4.8560 C.2   325  ASN325      0.2597
     96  O         22.7110   25.8220   -4.4220 O.2   325  ASN325     -0.2718
     97  CB        23.4080   22.7760   -5.2390 C.3   325  ASN325      0.1169
     98  CG        21.8820   22.8270   -5.2090 C.2   325  ASN325      0.2627
     99  OD1       21.2800   22.8310   -4.1400 O.2   325  ASN325     -0.2716
    100  ND2       21.2600   22.8790   -6.3820 N.am  325  ASN325     -0.0877
    101  N         24.5390   25.7270   -5.7770 N.am  326  SER326     -0.1952
    102  CA        24.3280   26.9990   -6.4970 C.3   326  SER326      0.1924
    103  C         23.7640   28.1150   -5.6360 C.2   326  SER326      0.2314
    104  O         22.6570   28.5970   -5.8750 O.2   326  SER326     -0.2863
    105  CB        23.4150   26.7980   -7.7160 C.3   326  SER326      0.2116
    106  OG        23.8780   25.7180   -8.5030 O.3   326  SER326     -0.2180
    107  N         28.8730   24.6710   -3.2780 N.3   352  HIS352     -0.1241
    108  CA        29.2970   25.0490   -4.6270 C.3   352  HIS352      0.1621
    109  C         30.0150   26.4130   -4.6290 C.2   352  HIS352      0.2264
    110  O         30.3080   26.9560   -5.6830 O.2   352  HIS352     -0.2867
    111  CB        28.0850   25.1020   -5.5680 C.3   352  HIS352      0.0745
    112  CG        27.5490   23.7570   -5.9550 C.ar  352  HIS352      0.0817
    113  ND1       26.5920   23.5940   -6.9350 N.ar  352  HIS352     -0.2268
    114  CD2       27.8480   22.5100   -5.5140 C.ar  352  HIS352      0.1154
    115  CE1       26.3210   22.3090   -7.0760 C.ar  352  HIS352      0.1986
    116  NE2       27.0650   21.6310   -6.2210 N.ar  352  HIS352     -0.2212
    117  N         15.4280   26.9150  -14.2870 N.3   407  ARG407     -0.1245
    118  CA        16.5320   26.0360  -14.6540 C.3   407  ARG407      0.1563
    119  C         16.0720   24.8610  -15.5180 C.2   407  ARG407      0.2260
    120  O         15.0810   24.2140  -15.1980 O.2   407  ARG407     -0.2867
    121  CB        17.1840   25.4870  -13.3880 C.3   407  ARG407      0.0307
    122  CG        18.3040   24.4980  -13.6700 C.3   407  ARG407      0.0489
    123  CD        18.8980   24.0420  -12.3650 C.3   407  ARG407      0.2205
    124  NE        19.9960   23.1060  -12.5630 N.pl3 407  ARG407     -0.0865
    125  CZ        20.5950   22.4780  -11.5640 C.cat 407  ARG407      0.5346
    126  NH1       20.1810   22.7040  -10.3150 N.pl3 407  ARG407      0.1354
    127  NH2       21.6040   21.6380  -11.8040 N.pl3 407  ARG407      0.1354
@<TRIPOS>BOND
     1    12    11    2
     2    11    10    1
     3     9    10    1
     4    10    13    1
     5     4     3    2
     6   119   120    2
     7   119   118    1
     8     1     2    1
     9    13    14    1
    10     3     2    1
    11    25    24    1
    12     7     6    2
    13   118   117    1
    14   118   121    1
    15     2     5    1
    16    14    16   ar
    17    14    15   ar
    18     6     8   am
    19     6     5    1
    20    16    18   ar
    21   122   121    1
    22   122   123    1
    23    24    26    1
    24    24    23    1
    25    42    41    2
    26    41    40    1
    27    15    17   ar
    28    23    20    1
    29    18    17   ar
    30   124   123    1
    31   124   125    2
    32    43    40    1
    33    43    44    1
    34   127   125    1
    35    40    39    1
    36    53    52    2
    37   125   126    1
    38    46    44   ar
    39    46    48   ar
    40    19    20    1
    41    20    21    1
    42    44    45   ar
    43    55    54    1
    44    55    56    1
    45    52    51    1
    46    48    49   ar
    47    70    69    2
    48    21    27   am
    49    21    22    2
    50    27    28    1
    51    54    51    1
    52    71    72    1
    53    71    68    1
    54    45    47   ar
    55    56    57    1
    56    31    28    1
    57    69    68    1
    58    51    50    1
    59    73    72    2
    60    49    47   ar
    61    28    29    1
    62    72    74   am
    63    68    67    1
    64    62    61    2
    65    57    58    1
    66   106   105    1
    67    61    60    1
    68    29    30    2
    69    29    32   am
    70   105   102    1
    71   115   113   ar
    72   115   116   ar
    73    38    32    1
    74    38    37    1
    75   113   112   ar
    76    32    33    1
    77    60    59    1
    78    60    63    1
    79   102   101    1
    80   102   103    1
    81   100    98   am
    82    65    64   ar
    83   116   114   ar
    84    64    63    1
    85    64    66   ar
    86   112   111    1
    87   112   114   ar
    88   104   103    2
    89   101    95   am
    90   110   109    2
    91    35    34    2
    92    37    36    1
    93   111   108    1
    94    33    34    1
    95    33    36    1
    96    97    98    1
    97    97    94    1
    98    98    99    2
    99    95    96    2
   100    95    94    1
   101   109   108    1
   102   108   107    1
   103    94    93    1
   104    81    80    2
   105    92    91   ar
   106    92    90   ar
   107    78    77    2
   108    91    89   ar
   109    77    76    1
   110    80    82   am
   111    80    79    1
   112    90    88   ar
   113    75    76    1
   114    76    79    1
   115    89    88   ar
   116    88    87    1
   117    87    84    1
   118    85    84    1
   119    85    86    2
   120    84    83    1
