@<TRIPOS>MOLECULE
tmp/4it2B01.pdb
 86 85 0 0 0
SMALL
GASTEIGER

@<TRIPOS>ATOM
      1  N         31.8250   32.3640  -29.0950 N.3    96  MET96      -0.1245
      2  CA        32.4010   31.7510  -30.2940 C.3    96  MET96       0.1570
      3  C         33.8750   31.4070  -30.1290 C.2    96  MET96       0.2261
      4  O         34.3970   30.5250  -30.8140 O.2    96  MET96      -0.2867
      5  CB        32.1900   32.6550  -31.5130 C.3    96  MET96       0.0387
      6  CG        30.7360   32.6660  -32.0140 C.3    96  MET96       0.0595
      7  SD        30.4400   33.7800  -33.4000 S.3    96  MET96      -0.1393
      8  CE        31.3530   32.9290  -34.6900 C.3    96  MET96       0.0692
      9  N         28.3780   28.2350  -33.7030 N.3   120  LYS120     -0.1231
     10  CA        28.2360   28.7990  -35.0370 C.3   120  LYS120      0.1678
     11  C         26.9810   29.6630  -35.0840 C.2   120  LYS120      0.2434
     12  O         25.9620   29.3070  -34.5070 O.2   120  LYS120     -0.2733
     13  CB        28.1760   27.6970  -36.1070 C.3   120  LYS120      0.0284
     14  CG        27.0370   26.7110  -35.9110 C.3   120  LYS120      0.0035
     15  CD        26.9640   25.6800  -37.0270 C.3   120  LYS120      0.0206
     16  CE        25.7530   24.7660  -36.8490 C.3   120  LYS120      0.1093
     17  NZ        25.5210   23.8410  -38.0090 N.3   120  LYS120     -0.1314
     18  N         27.0710   30.8220  -35.7490 N.am  121  PRO121     -0.2718
     19  CA        25.8950   31.6610  -35.9830 C.3   121  PRO121      0.1535
     20  C         24.9240   30.8790  -36.8480 C.2   121  PRO121      0.2598
     21  O         25.3800   30.0900  -37.6790 O.2   121  PRO121     -0.2715
     22  CB        26.4540   32.8310  -36.7900 C.3   121  PRO121      0.0310
     23  CG        27.9330   32.8610  -36.4500 C.3   121  PRO121      0.0237
     24  CD        28.3050   31.4190  -36.2950 C.3   121  PRO121      0.0939
     25  N         23.6230   31.0640  -36.6380 N.am  122  VAL122     -0.1964
     26  CA        22.6150   30.3450  -37.4150 C.3   122  VAL122      0.1727
     27  C         21.4570   31.2730  -37.7720 C.2   122  VAL122      0.2616
     28  O         20.4900   30.8630  -38.4080 O.2   122  VAL122     -0.2715
     29  CB        22.0750   29.0980  -36.6870 C.3   122  VAL122      0.0290
     30  CG1       23.1740   28.0260  -36.5250 C.3   122  VAL122      0.0023
     31  CG2       21.4610   29.4840  -35.3530 C.3   122  VAL122      0.0023
     32  N         21.5890   32.5340  -37.3740 N.am  123  ALA123     -0.1963
     33  CA        20.5890   33.5480  -37.6520 C.3   123  ALA123      0.1728
     34  C         21.1860   34.9080  -37.3360 C.2   123  ALA123      0.2616
     35  O         22.2490   34.9960  -36.7190 O.2   123  ALA123     -0.2715
     36  CB        19.3350   33.3070  -36.8230 C.3   123  ALA123      0.0334
     37  N         20.5090   35.9730  -37.7430 N.am  124  LYS124     -0.1977
     38  CA        21.0090   37.3120  -37.4500 C.3   124  LYS124      0.1596
     39  C         21.0380   37.5860  -35.9360 C.2   124  LYS124      0.2287
     40  O         21.7320   38.4830  -35.4720 O.2   124  LYS124     -0.2864
     41  CB        20.1780   38.3740  -38.1730 C.3   124  LYS124      0.0298
     42  CG        18.8220   38.6430  -37.5270 C.3   124  LYS124      0.0038
     43  CD        18.1550   39.8800  -38.1190 C.3   124  LYS124      0.0206
     44  CE        19.0430   41.1130  -37.9770 C.3   124  LYS124      0.1093
     45  NZ        18.5270   42.2720  -38.7610 N.3   124  LYS124     -0.1314
     46  N         24.3430   28.6730  -32.4450 N.3   128  GLU128     -0.1245
     47  CA        24.2130   27.3630  -31.8260 C.3   128  GLU128      0.1567
     48  C         25.5190   27.0210  -31.1210 C.2   128  GLU128      0.2260
     49  O         26.6080   27.3280  -31.6200 O.2   128  GLU128     -0.2867
     50  CB        23.9250   26.2950  -32.8720 C.3   128  GLU128      0.0388
     51  CG        22.4870   26.2080  -33.3030 C.3   128  GLU128      0.1160
     52  CD        22.2080   24.9580  -34.1330 C.2   128  GLU128      0.3649
     53  OE1       23.1210   24.1030  -34.2660 O.co2 128  GLU128     -0.2457
     54  OE2       21.0770   24.8400  -34.6500 O.co2 128  GLU128     -0.2457
     55  N         24.1410   40.2540  -35.8820 N.3   183  PHE183     -0.1227
     56  CA        24.5840   40.4250  -37.2690 C.3   183  PHE183      0.1736
     57  C         23.5840   41.2410  -38.0940 C.2   183  PHE183      0.2595
     58  O         22.4140   41.3640  -37.7280 O.2   183  PHE183     -0.2718
     59  CB        24.7810   39.0700  -37.9530 C.3   183  PHE183      0.0547
     60  CG        25.7280   38.1620  -37.2380 C.ar  183  PHE183     -0.0202
     61  CD1       27.0870   38.4030  -37.2680 C.ar  183  PHE183     -0.0042
     62  CD2       25.2590   37.0550  -36.5470 C.ar  183  PHE183     -0.0042
     63  CE1       27.9620   37.5700  -36.6100 C.ar  183  PHE183     -0.0003
     64  CE2       26.1280   36.2170  -35.8820 C.ar  183  PHE183     -0.0003
     65  CZ        27.4830   36.4740  -35.9150 C.ar  183  PHE183     -0.0000
     66  N         24.0490   41.7780  -39.2190 N.am  184  GLU184     -0.1965
     67  CA        23.1900   42.5150  -40.1430 C.3   184  GLU184      0.1733
     68  C         23.7690   42.4710  -41.5530 C.2   184  GLU184      0.2616
     69  O         24.9690   42.2820  -41.7310 O.2   184  GLU184     -0.2715
     70  CB        23.0400   43.9730  -39.6930 C.3   184  GLU184      0.0429
     71  CG        24.3730   44.7000  -39.5190 C.3   184  GLU184      0.1163
     72  CD        24.2230   46.1490  -39.0680 C.2   184  GLU184      0.3649
     73  OE1       25.2580   46.8250  -38.8750 O.co2 184  GLU184     -0.2457
     74  OE2       23.0780   46.6130  -38.9020 O.co2 184  GLU184     -0.2457
     75  N         22.9140   42.6460  -42.5530 N.am  185  TYR185     -0.1974
     76  CA        23.3660   42.7580  -43.9360 C.3   185  TYR185      0.1639
     77  C         24.1290   44.0550  -44.1420 C.2   185  TYR185      0.2290
     78  O         25.3190   44.0350  -44.4490 O.2   185  TYR185     -0.2864
     79  CB        22.1840   42.7090  -44.9020 C.3   185  TYR185      0.0560
     80  CG        21.5710   41.3410  -45.0570 C.ar  185  TYR185     -0.0198
     81  CD1       22.2630   40.3240  -45.6990 C.ar  185  TYR185     -0.0009
     82  CD2       20.2930   41.0700  -44.5830 C.ar  185  TYR185     -0.0009
     83  CE1       21.7160   39.0760  -45.8530 C.ar  185  TYR185      0.0417
     84  CE2       19.7270   39.8120  -44.7370 C.ar  185  TYR185      0.0417
     85  CZ        20.4490   38.8200  -45.3720 C.ar  185  TYR185      0.1957
     86  OH        19.9150   37.5610  -45.5340 O.3   185  TYR185     -0.2866
@<TRIPOS>BOND
     1    83    81   ar
     2    83    85   ar
     3    81    80   ar
     4    86    85    1
     5    85    84   ar
     6    80    79    1
     7    80    82   ar
     8    79    76    1
     9    84    82   ar
    10    78    77    2
    11    77    76    1
    12    76    75    1
    13    75    68   am
    14    69    68    2
    15    68    67    1
    16    67    70    1
    17    67    66    1
    18    70    71    1
    19    71    72    1
    20    66    57   am
    21    72    74   ar
    22    72    73   ar
    23    45    44    1
    24    28    27    2
    25    41    42    1
    26    41    38    1
    27    43    44    1
    28    43    42    1
    29    57    58    2
    30    57    56    1
    31    17    16    1
    32    59    56    1
    33    59    60    1
    34    27    26    1
    35    27    32   am
    36    37    38    1
    37    37    34   am
    38    21    20    2
    39    33    32    1
    40    33    34    1
    41    33    36    1
    42    38    39    1
    43    26    29    1
    44    26    25    1
    45    34    35    2
    46    56    55    1
    47    61    60   ar
    48    61    63   ar
    49    60    62   ar
    50    15    16    1
    51    15    14    1
    52    20    25   am
    53    20    19    1
    54    22    23    1
    55    22    19    1
    56    29    30    1
    57    29    31    1
    58    63    65   ar
    59    62    64   ar
    60    23    24    1
    61    24    18    1
    62    13    14    1
    63    13    10    1
    64    19    18    1
    65    39    40    2
    66    65    64   ar
    67    18    11   am
    68    11    10    1
    69    11    12    2
    70    10     9    1
    71     8     7    1
    72    54    52   ar
    73    53    52   ar
    74    52    51    1
    75     7     6    1
    76    51    50    1
    77    50    47    1
    78    46    47    1
    79     6     5    1
    80    47    48    1
    81    49    48    2
    82     5     2    1
    83     4     3    2
    84     2     3    1
    85     2     1    1
