@<TRIPOS>MOLECULE
tmp/4itbB01.pdb
 123 117 0 0 0
SMALL
GASTEIGER

@<TRIPOS>ATOM
      1  N         21.2970   65.7810   67.7840 N.3    85  LYS85      -0.1245
      2  CA        21.3670   64.8650   66.6520 C.3    85  LYS85       0.1561
      3  C         20.9030   65.5650   65.3740 C.2    85  LYS85       0.2260
      4  O         21.4270   65.3060   64.2850 O.2    85  LYS85      -0.2867
      5  CB        20.5440   63.6060   66.9300 C.3    85  LYS85       0.0271
      6  CG        20.8780   62.4170   66.0410 C.3    85  LYS85       0.0035
      7  CD        20.0790   61.1990   66.4800 C.3    85  LYS85       0.0206
      8  CE        20.4630   59.9570   65.7020 C.3    85  LYS85       0.1093
      9  NZ        19.7260   58.7750   66.2500 N.3    85  LYS85      -0.1314
     10  N          6.8320   61.9140   67.1120 N.3   130  ASN130     -0.1225
     11  CA         7.6890   61.2200   68.0830 C.3   130  ASN130      0.1785
     12  C          9.1330   61.6990   68.1550 C.2   130  ASN130      0.2597
     13  O          9.7540   61.6470   69.2190 O.2   130  ASN130     -0.2718
     14  CB         7.6060   59.6970   67.9460 C.3   130  ASN130      0.1169
     15  CG         8.1930   59.1810   66.6540 C.2   130  ASN130      0.2627
     16  OD1        8.1860   59.8670   65.6200 O.2   130  ASN130     -0.2716
     17  ND2        8.6980   57.9520   66.6940 N.am  130  ASN130     -0.0877
     18  N          9.6520   62.1720   67.0240 N.am  131  PHE131     -0.1976
     19  CA        10.9480   62.8390   66.9770 C.3   131  PHE131      0.1639
     20  C         10.7230   64.0970   66.1560 C.2   131  PHE131      0.2290
     21  O         11.0890   64.1730   64.9810 O.2   131  PHE131     -0.2864
     22  CB        12.0270   61.9360   66.3660 C.3   131  PHE131      0.0560
     23  CG        12.3700   60.7510   67.2220 C.ar  131  PHE131     -0.0200
     24  CD1       11.7550   59.5310   67.0090 C.ar  131  PHE131     -0.0042
     25  CD2       13.2980   60.8660   68.2410 C.ar  131  PHE131     -0.0042
     26  CE1       12.0650   58.4320   67.8060 C.ar  131  PHE131     -0.0003
     27  CE2       13.6150   59.7700   69.0430 C.ar  131  PHE131     -0.0003
     28  CZ        12.9940   58.5600   68.8220 C.ar  131  PHE131     -0.0000
     29  N         14.2020   65.7670   64.9450 N.3   134  TRP134     -0.1227
     30  CA        15.1190   64.8790   64.2450 C.3   134  TRP134      0.1737
     31  C         14.5540   64.3310   62.9380 C.2   134  TRP134      0.2595
     32  O         15.2530   64.3020   61.9360 O.2   134  TRP134     -0.2718
     33  CB        15.5550   63.7540   65.1850 C.3   134  TRP134      0.0564
     34  CG        16.0970   62.5330   64.5090 C.ar  134  TRP134      0.0003
     35  CD1       15.5320   61.2950   64.4930 C.ar  134  TRP134      0.0946
     36  CD2       17.3200   62.4310   63.7660 C.ar  134  TRP134      0.0152
     37  NE1       16.3210   60.4290   63.7820 N.ar  134  TRP134     -0.2442
     38  CE2       17.4220   61.1000   63.3270 C.ar  134  TRP134      0.0810
     39  CE3       18.3310   63.3410   63.4310 C.ar  134  TRP134      0.0012
     40  CZ2       18.5050   60.6520   62.5640 C.ar  134  TRP134      0.0191
     41  CZ3       19.4110   62.8920   62.6750 C.ar  134  TRP134      0.0001
     42  CH2       19.4840   61.5550   62.2490 C.ar  134  TRP134      0.0015
     43  N         13.2910   63.9150   62.9280 N.am  135  GLN135     -0.1979
     44  CA        12.7250   63.3710   61.6950 C.3   135  GLN135      0.1601
     45  C         12.7160   64.4310   60.6080 C.2   135  GLN135      0.2287
     46  O         12.9430   64.1360   59.4310 O.2   135  GLN135     -0.2864
     47  CB        11.2970   62.8770   61.9120 C.3   135  GLN135      0.0394
     48  CG        11.1450   61.8350   62.9740 C.3   135  GLN135      0.0908
     49  CD        11.1640   60.4440   62.4110 C.2   135  GLN135      0.2608
     50  OE1       11.6590   60.2130   61.3030 O.2   135  GLN135     -0.2717
     51  NE2       10.6090   59.4990   63.1610 N.am  135  GLN135     -0.0878
     52  N         16.4780   65.2130   59.5320 N.3   138  ARG138     -0.1245
     53  CA        16.9440   64.0320   58.8010 C.3   138  ARG138      0.1563
     54  C         16.6120   64.1020   57.2990 C.2   138  ARG138      0.2260
     55  O         17.4170   63.7010   56.4490 O.2   138  ARG138     -0.2867
     56  CB        16.3440   62.7620   59.4300 C.3   138  ARG138      0.0307
     57  CG        16.3210   61.5480   58.5330 C.3   138  ARG138      0.0489
     58  CD        15.3420   60.5080   59.0720 C.3   138  ARG138      0.2205
     59  NE        15.9270   59.7670   60.1730 N.pl3 138  ARG138     -0.0865
     60  CZ        15.3920   58.6730   60.7010 C.cat 138  ARG138      0.5346
     61  NH1       16.0060   58.0480   61.6960 N.pl3 138  ARG138      0.1354
     62  NH2       14.2470   58.2010   60.2230 N.pl3 138  ARG138      0.1354
     63  N          6.9970   59.5200   57.2980 N.3   204  THR204     -0.1218
     64  CA         7.3440   58.6720   58.4280 C.3   204  THR204      0.1862
     65  C          6.1390   58.6820   59.3600 C.2   204  THR204      0.2287
     66  O          5.5780   59.7450   59.6590 O.2   204  THR204     -0.2866
     67  CB         8.5950   59.1800   59.1570 C.3   204  THR204      0.1770
     68  OG1        9.7170   59.1260   58.2650 O.3   204  THR204     -0.2211
     69  CG2        8.8910   58.3250   60.3910 C.3   204  THR204      0.0375
     70  N          8.8990   55.3300   55.8830 N.3   227  GLU227     -0.1245
     71  CA         9.3860   54.6140   57.0590 C.3   227  GLU227      0.1567
     72  C          8.2400   54.5160   58.0600 C.2   227  GLU227      0.2260
     73  O          7.8180   55.5370   58.6230 O.2   227  GLU227     -0.2867
     74  CB        10.5900   55.3230   57.6710 C.3   227  GLU227      0.0388
     75  CG        11.2770   54.5240   58.7790 C.3   227  GLU227      0.1160
     76  CD        10.8280   54.9350   60.1670 C.2   227  GLU227      0.3649
     77  OE1        9.9690   54.2380   60.7440 O.co2 227  GLU227     -0.2457
     78  OE2       11.3370   55.9590   60.6720 O.co2 227  GLU227     -0.2457
     79  N         13.1450   54.0710   75.8420 N.3   255  MET255     -0.1245
     80  CA        13.5330   55.3960   75.3500 C.3   255  MET255      0.1570
     81  C         12.3630   56.0440   74.6110 C.2   255  MET255      0.2261
     82  O         11.5540   55.3540   73.9870 O.2   255  MET255     -0.2867
     83  CB        14.7480   55.2960   74.4130 C.3   255  MET255      0.0387
     84  CG        14.5170   54.4380   73.1540 C.3   255  MET255      0.0595
     85  SD        15.9010   54.3470   71.9730 S.3   255  MET255     -0.1393
     86  CE        15.2470   53.1840   70.7600 C.3   255  MET255      0.0692
     87  N          9.1510   54.6580   69.6250 N.3   260  SER260     -0.1202
     88  CA        10.1550   54.6490   68.5660 C.3   260  SER260      0.2020
     89  C          9.9370   53.4890   67.6330 C.2   260  SER260      0.2619
     90  O          9.6710   52.3720   68.0710 O.2   260  SER260     -0.2717
     91  CB        11.5660   54.5560   69.1330 C.3   260  SER260      0.2103
     92  OG        12.5000   54.4140   68.0700 O.3   260  SER260     -0.2182
     93  N         10.0910   53.7630   66.3450 N.am  261  CYS261     -0.1955
     94  CA         9.9920   52.7620   65.3040 C.3   261  CYS261      0.1843
     95  C         11.0000   51.6330   65.5140 C.2   261  CYS261      0.2625
     96  O         10.7430   50.5010   65.1250 O.2   261  CYS261     -0.2714
     97  CB        10.2270   53.4370   63.9490 C.3   261  CYS261      0.0997
     98  SG        11.8810   54.1830   63.7690 S.3   261  CYS261     -0.0797
     99  N         12.1430   51.9610   66.1130 N.am  262  ILE262     -0.1977
    100  CA        13.2180   51.0010   66.3730 C.3   262  ILE262      0.1596
    101  C         13.3950   50.6830   67.8580 C.2   262  ILE262      0.2287
    102  O         14.4660   50.2500   68.2800 O.2   262  ILE262     -0.2864
    103  CB        14.5750   51.4470   65.7540 C.3   262  ILE262      0.0276
    104  CG1       14.9130   52.8820   66.1610 C.3   262  ILE262      0.0022
    105  CG2       14.5460   51.3030   64.2320 C.3   262  ILE262      0.0022
    106  CD1       16.2960   53.3520   65.7000 C.3   262  ILE262      0.0001
    107  N         19.7700   55.0130   64.6970 N.3   418  SER418     -0.1217
    108  CA        20.0640   55.6800   63.4370 C.3   418  SER418      0.1889
    109  C         21.2940   56.5670   63.6430 C.2   418  SER418      0.2288
    110  O         21.5500   57.0440   64.7540 O.2   418  SER418     -0.2866
    111  CB        18.8620   56.4980   62.9720 C.3   418  SER418      0.2089
    112  OG        18.5090   57.4640   63.9440 O.3   418  SER418     -0.2183
    113  N         19.4820   54.3380   56.5870 N.3   424  PHE424     -0.1241
    114  CA        18.4610   53.9220   57.5380 C.3   424  PHE424      0.1605
    115  C         17.1070   53.7900   56.8610 C.2   424  PHE424      0.2264
    116  O         16.6230   54.7310   56.2330 O.2   424  PHE424     -0.2867
    117  CB        18.3410   54.9370   58.6770 C.3   424  PHE424      0.0534
    118  CG        17.3040   54.5660   59.7050 C.ar  424  PHE424     -0.0203
    119  CD1       17.6070   53.6670   60.7100 C.ar  424  PHE424     -0.0042
    120  CD2       16.0220   55.1030   59.6540 C.ar  424  PHE424     -0.0042
    121  CE1       16.6580   53.3100   61.6540 C.ar  424  PHE424     -0.0003
    122  CE2       15.0640   54.7480   60.5970 C.ar  424  PHE424     -0.0003
    123  CZ        15.3850   53.8540   61.5960 C.ar  424  PHE424     -0.0000
@<TRIPOS>BOND
     1    70    71    1
     2   116   115    2
     3    55    54    2
     4   113   114    1
     5   115   114    1
     6    71    74    1
     7    71    72    1
     8    63    64    1
     9    54    53    1
    10   114   117    1
    11    74    75    1
    12    72    73    2
    13    68    67    1
    14    64    67    1
    15    64    65    1
    16    57    58    1
    17    57    56    1
    18   117   118    1
    19    75    76    1
    20    53    56    1
    21    53    52    1
    22    58    59    1
    23    67    69    1
    24    65    66    2
    25    46    45    2
    26   120   118   ar
    27   120   122   ar
    28   118   119   ar
    29    76    78   ar
    30    76    77   ar
    31    59    60    2
    32    62    60    1
    33   122   123   ar
    34    45    44    1
    35    60    61    1
    36   119   121   ar
    37    50    49    2
    38   123   121   ar
    39    44    47    1
    40    44    43    1
    41    47    48    1
    42    32    31    2
    43    42    40   ar
    44    42    41   ar
    45    49    48    1
    46    49    51   am
    47    40    38   ar
    48    41    39   ar
    49    43    31   am
    50    31    30    1
    51   111   108    1
    52   111   112    1
    53    38    36   ar
    54    38    37   ar
    55    39    36   ar
    56   108   109    1
    57   108   107    1
    58   109   110    2
    59    36    34   ar
    60    98    97    1
    61    37    35   ar
    62    97    94    1
    63   105   103    1
    64    30    29    1
    65    30    33    1
    66     4     3    2
    67    35    34   ar
    68    34    33    1
    69    21    20    2
    70    96    95    2
    71    94    95    1
    72    94    93    1
    73     3     2    1
    74    95    99   am
    75    16    15    2
    76   106   104    1
    77     8     9    1
    78     8     7    1
    79   103   104    1
    80   103   100    1
    81     6     7    1
    82     6     5    1
    83    99   100    1
    84    20    19    1
    85    93    89   am
    86    22    19    1
    87    22    23    1
    88   100   101    1
    89     2     5    1
    90     2     1    1
    91    15    17   am
    92    15    14    1
    93    19    18    1
    94    24    23   ar
    95    24    26   ar
    96    18    12   am
    97    10    11    1
    98    23    25   ar
    99    89    90    2
   100    89    88    1
   101    26    28   ar
   102   101   102    2
   103    14    11    1
   104    92    91    1
   105    11    12    1
   106    12    13    2
   107    25    27   ar
   108    88    91    1
   109    88    87    1
   110    28    27   ar
   111    86    85    1
   112    85    84    1
   113    84    83    1
   114    82    81    2
   115    83    80    1
   116    81    80    1
   117    80    79    1
