@<TRIPOS>MOLECULE
tmp/4itgA00.pdb
 100 98 0 0 0
SMALL
GASTEIGER

@<TRIPOS>ATOM
      1  N         -6.5640    2.7340   54.6060 N.3   107  TYR107     -0.1227
      2  CA        -7.3530    3.5320   53.7140 C.3   107  TYR107      0.1736
      3  C         -8.1170    2.6890   52.6750 C.2   107  TYR107      0.2595
      4  O         -7.5630    1.7630   52.0380 O.2   107  TYR107     -0.2718
      5  CB        -6.4590    4.5720   53.0380 C.3   107  TYR107      0.0548
      6  CG        -7.1730    5.5560   52.1520 C.ar  107  TYR107     -0.0200
      7  CD1       -7.9420    6.5470   52.7270 C.ar  107  TYR107     -0.0009
      8  CD2       -6.9820    5.5930   50.7670 C.ar  107  TYR107     -0.0009
      9  CE1       -8.5660    7.4680   51.9640 C.ar  107  TYR107      0.0417
     10  CE2       -7.5840    6.5360   50.0210 C.ar  107  TYR107      0.0417
     11  CZ        -8.4170    7.4490   50.6050 C.ar  107  TYR107      0.1957
     12  OH        -9.0550    8.4380   49.8850 O.3   107  TYR107     -0.2866
     13  N         -9.4130    2.9740   52.5240 N.am  108  GLU108     -0.1965
     14  CA       -10.2410    2.0790   51.7290 C.3   108  GLU108      0.1733
     15  C         -9.7500    1.8810   50.2900 C.2   108  GLU108      0.2617
     16  O         -9.7330    0.7480   49.7670 O.2   108  GLU108     -0.2715
     17  CB       -11.7380    2.4900   51.7900 C.3   108  GLU108      0.0429
     18  CG       -12.6640    1.6300   50.9370 C.3   108  GLU108      0.1163
     19  CD       -14.1690    2.0570   50.9670 C.2   108  GLU108      0.3649
     20  OE1      -14.5010    3.1270   51.5060 O.co2 108  GLU108     -0.2457
     21  OE2      -15.0410    1.3190   50.4010 O.co2 108  GLU108     -0.2457
     22  N         -9.2560    2.9320   49.6650 N.am  109  SER109     -0.1950
     23  CA        -8.7830    2.7550   48.2810 C.3   109  SER109      0.1924
     24  C         -7.5360    1.8750   48.1930 C.2   109  SER109      0.2314
     25  O         -7.3070    1.2790   47.1370 O.2   109  SER109     -0.2863
     26  CB        -8.4590    4.1000   47.6750 C.3   109  SER109      0.2116
     27  OG        -9.5180    4.9650   47.7240 O.3   109  SER109     -0.2180
     28  N         -8.9790   -1.5910   48.2920 N.3   112  ASP112     -0.1239
     29  CA        -9.5750   -1.8220   46.9870 C.3   112  ASP112      0.1674
     30  C         -8.5670   -2.1750   45.9000 C.2   112  ASP112      0.2266
     31  O         -8.8280   -3.0050   45.0710 O.2   112  ASP112     -0.2867
     32  CB       -10.4700   -0.6690   46.5710 C.3   112  ASP112      0.1410
     33  CG       -11.7480   -0.5540   47.4310 C.2   112  ASP112      0.3668
     34  OD1      -11.9850   -1.4930   48.2770 O.co2 112  ASP112     -0.2456
     35  OD2      -12.4960    0.4750   47.2390 O.co2 112  ASP112     -0.2456
     36  N         -6.9510    4.5720   59.1940 N.3   154  SER154     -0.1202
     37  CA        -7.9450    5.4040   58.6050 C.3   154  SER154      0.2020
     38  C         -9.2310    5.3420   59.4260 C.2   154  SER154      0.2618
     39  O         -9.6580    4.2800   59.8600 O.2   154  SER154     -0.2717
     40  CB        -8.2320    5.0710   57.1310 C.3   154  SER154      0.2103
     41  OG        -7.2590    5.6180   56.3120 O.3   154  SER154     -0.2182
     42  N         -9.7690    6.5140   59.6510 N.am  155  ILE155     -0.1979
     43  CA       -11.1000    6.7070   60.2220 C.3   155  ILE155      0.1595
     44  C        -11.2020    6.4050   61.7340 C.2   155  ILE155      0.2287
     45  O        -11.5560    7.2900   62.5340 O.2   155  ILE155     -0.2864
     46  CB       -12.2260    5.9260   59.5000 C.3   155  ILE155      0.0276
     47  CG1      -12.2100    6.2180   57.9970 C.3   155  ILE155      0.0022
     48  CG2      -13.5190    6.2650   60.1610 C.3   155  ILE155      0.0022
     49  CD1      -13.3760    5.6810   57.1420 C.3   155  ILE155      0.0001
     50  N        -14.6330   15.1050   51.4600 N.3   333  TYR333     -0.1227
     51  CA       -13.6040   14.1630   51.6440 C.3   333  TYR333      0.1736
     52  C        -12.2530   14.8870   51.6800 C.2   333  TYR333      0.2596
     53  O        -12.1870   16.1210   51.5200 O.2   333  TYR333     -0.2718
     54  CB       -13.6520   13.0990   50.5750 C.3   333  TYR333      0.0548
     55  CG       -14.8870   12.2290   50.6880 C.ar  333  TYR333     -0.0200
     56  CD1      -15.0510   11.3940   51.7660 C.ar  333  TYR333     -0.0009
     57  CD2      -15.8430   12.2130   49.7040 C.ar  333  TYR333     -0.0009
     58  CE1      -16.1510   10.5750   51.9020 C.ar  333  TYR333      0.0417
     59  CE2      -16.9980   11.3980   49.8290 C.ar  333  TYR333      0.0417
     60  CZ       -17.1270   10.5830   50.9470 C.ar  333  TYR333      0.1957
     61  OH       -18.1900    9.7080   51.1520 O.3   333  TYR333     -0.2866
     62  N        -11.2480   14.1010   51.9820 N.am  334  SER334     -0.1938
     63  CA        -9.8400   14.5710   52.2610 C.3   334  SER334      0.2055
     64  C         -9.8620   15.3000   53.6310 C.2   334  SER334      0.2643
     65  O        -10.9250   15.3080   54.3500 O.2   334  SER334     -0.2714
     66  CB        -9.2440   15.4650   51.1690 C.3   334  SER334      0.2130
     67  OG        -7.8310   15.5430   51.2840 O.3   334  SER334     -0.2179
     68  N         -8.7190   15.9260   53.9090 N.am  335  TRP335     -0.1973
     69  CA        -8.3660   16.5270   55.2000 C.3   335  TRP335      0.1640
     70  C         -6.9160   17.0500   55.1340 C.2   335  TRP335      0.2290
     71  O         -6.3270   16.9570   54.0910 O.2   335  TRP335     -0.2864
     72  CB        -8.5530   15.5010   56.3270 C.3   335  TRP335      0.0576
     73  CG        -7.9690   14.0940   56.1060 C.ar  335  TRP335      0.0006
     74  CD1       -8.6030   13.0100   55.5020 C.ar  335  TRP335      0.0946
     75  CD2       -6.7040   13.6160   56.5280 C.ar  335  TRP335      0.0152
     76  NE1       -7.7890   11.9190   55.5110 N.ar  335  TRP335     -0.2442
     77  CE2       -6.6270   12.2410   56.1610 C.ar  335  TRP335      0.0810
     78  CE3       -5.6510   14.1810   57.1980 C.ar  335  TRP335      0.0012
     79  CZ2       -5.5420   11.4610   56.4100 C.ar  335  TRP335      0.0191
     80  CZ3       -4.5610   13.3520   57.4960 C.ar  335  TRP335      0.0001
     81  CH2       -4.5170   12.0230   57.0840 C.ar  335  TRP335      0.0015
     82  N        -17.5030   14.2550   58.6370 N.3   343  LEU343     -0.1245
     83  CA       -18.1570   13.1530   57.9010 C.3   343  LEU343      0.1561
     84  C        -18.7380   12.1850   58.9020 C.2   343  LEU343      0.2260
     85  O        -18.1300   11.9270   59.9440 O.2   343  LEU343     -0.2867
     86  CB       -17.1040   12.3980   57.0760 C.3   343  LEU343      0.0270
     87  CG       -16.6620   13.1380   55.8680 C.3   343  LEU343      0.0019
     88  CD1      -15.5630   12.2830   55.1710 C.3   343  LEU343      0.0001
     89  CD2      -17.8760   13.5240   54.9480 C.3   343  LEU343      0.0001
     90  N        -16.0790   11.5380   61.9200 N.3   367  ARG367     -0.1245
     91  CA       -14.6620   11.8660   61.7480 C.3   367  ARG367      0.1563
     92  C        -14.5770   13.3770   61.5650 C.2   367  ARG367      0.2260
     93  O        -15.3190   13.9550   60.7720 O.2   367  ARG367     -0.2867
     94  CB       -14.0260   11.1770   60.5190 C.3   367  ARG367      0.0307
     95  CG       -12.5300   11.4100   60.4980 C.3   367  ARG367      0.0489
     96  CD       -11.8220   10.8340   59.2850 C.3   367  ARG367      0.2205
     97  NE       -12.1860   11.5920   58.1150 N.pl3 367  ARG367     -0.0865
     98  CZ       -11.7920   11.2750   56.8900 C.cat 367  ARG367      0.5346
     99  NH1      -10.9580   10.2480   56.7180 N.pl3 367  ARG367      0.1354
    100  NH2      -12.1330   12.0210   55.8650 N.pl3 367  ARG367      0.1354
@<TRIPOS>BOND
     1    31    30    2
     2    30    29    1
     3    32    29    1
     4    32    33    1
     5    29    28    1
     6    25    24    2
     7    35    33   ar
     8    33    34   ar
     9    26    27    1
    10    26    23    1
    11    24    23    1
    12    23    22    1
    13    22    15   am
    14    57    59   ar
    15    57    55   ar
    16    16    15    2
    17    59    60   ar
    18    12    11    1
    19    10    11   ar
    20    10     8   ar
    21    15    14    1
    22    21    19   ar
    23    54    55    1
    24    54    51    1
    25    11     9   ar
    26    55    56   ar
    27     8     6   ar
    28    18    19    1
    29    18    17    1
    30    60    61    1
    31    60    58   ar
    32    19    20   ar
    33    66    67    1
    34    66    63    1
    35    50    51    1
    36    53    52    2
    37    51    52    1
    38    52    62   am
    39    14    17    1
    40    14    13    1
    41    56    58   ar
    42     9     7   ar
    43    62    63    1
    44     4     3    2
    45     6     7   ar
    46     6     5    1
    47    63    64    1
    48    13     3   am
    49     3     2    1
    50     5     2    1
    51    64    68   am
    52    64    65    2
    53     2     1    1
    54    68    69    1
    55    71    70    2
    56    89    87    1
    57    70    69    1
    58    88    87    1
    59    69    72    1
    60    74    76   ar
    61    74    73   ar
    62    76    77   ar
    63   100    98    1
    64    87    86    1
    65    73    72    1
    66    73    75   ar
    67    77    79   ar
    68    77    75   ar
    69    41    40    1
    70    79    81   ar
    71    75    78   ar
    72    99    98    1
    73    98    97    2
    74    86    83    1
    75    81    80   ar
    76    40    37    1
    77    49    47    1
    78    78    80   ar
    79    83    82    1
    80    83    84    1
    81    47    46    1
    82    97    96    1
    83    37    36    1
    84    37    38    1
    85    84    85    2
    86    96    95    1
    87    38    42   am
    88    38    39    2
    89    46    48    1
    90    46    43    1
    91    42    43    1
    92    43    44    1
    93    95    94    1
    94    94    91    1
    95    93    92    2
    96    92    91    1
    97    44    45    2
    98    91    90    1
