@<TRIPOS>MOLECULE
tmp/4ithA00.pdb
 133 123 0 0 0
SMALL
GASTEIGER

@<TRIPOS>ATOM
      1  N        -35.5750    4.9970   11.8060 N.3    39  MET39      -0.1245
      2  CA       -34.2080    4.6110   12.1200 C.3    39  MET39       0.1570
      3  C        -33.7550    5.2390   13.4250 C.2    39  MET39       0.2261
      4  O        -32.8560    4.7320   14.1100 O.2    39  MET39      -0.2867
      5  CB       -33.2950    5.0590   10.9900 C.3    39  MET39       0.0387
      6  CG       -32.7530    3.9280   10.1580 C.3    39  MET39       0.0595
      7  SD       -33.9650    2.7660    9.5380 S.3    39  MET39      -0.1393
      8  CE       -33.5220    1.2950   10.4070 C.3    39  MET39       0.0692
      9  N        -33.6200    3.2840   16.8220 N.3    42  LEU42      -0.1245
     10  CA       -32.6100    2.2850   17.1420 C.3    42  LEU42       0.1561
     11  C        -31.6320    2.8600   18.1620 C.2    42  LEU42       0.2260
     12  O        -30.7240    3.6350   17.8320 O.2    42  LEU42      -0.2867
     13  CB       -31.9050    1.7890   15.8720 C.3    42  LEU42       0.0270
     14  CG       -32.9030    1.3010   14.8170 C.3    42  LEU42       0.0019
     15  CD1      -32.1850    0.7840   13.5970 C.3    42  LEU42       0.0001
     16  CD2      -33.8530    0.2470   15.3900 C.3    42  LEU42       0.0001
     17  N        -25.2010   -0.0550   19.3590 N.3    47  VAL47      -0.1231
     18  CA       -25.7060    0.3360   18.0380 C.3    47  VAL47       0.1692
     19  C        -25.3920    1.8050   17.7540 C.2    47  VAL47       0.2591
     20  O        -25.7340    2.6680   18.5540 O.2    47  VAL47      -0.2718
     21  CB       -27.2380    0.1030   17.9270 C.3    47  VAL47       0.0266
     22  CG1      -27.7970    0.7600   16.6730 C.3    47  VAL47       0.0020
     23  CG2      -27.5700   -1.3870   17.9470 C.3    47  VAL47       0.0020
     24  N        -24.7240    2.0860   16.6340 N.am   48  VAL48      -0.1980
     25  CA       -24.4220    3.4670   16.2640 C.3    48  VAL48       0.1595
     26  C        -25.7420    4.2100   16.1010 C.2    48  VAL48       0.2287
     27  O        -26.6300    3.7760   15.3740 O.2    48  VAL48      -0.2864
     28  CB       -23.5630    3.5630   14.9870 C.3    48  VAL48       0.0276
     29  CG1      -23.4400    5.0040   14.5150 C.3    48  VAL48       0.0022
     30  CG2      -22.1860    2.9890   15.2420 C.3    48  VAL48       0.0022
     31  N        -28.4630    7.1750   15.2290 N.3    50  LEU50      -0.1245
     32  CA       -28.7620    8.3170   14.3810 C.3    50  LEU50       0.1561
     33  C        -29.0190    9.5300   15.2710 C.2    50  LEU50       0.2260
     34  O        -29.9830    9.5530   16.0320 O.2    50  LEU50      -0.2867
     35  CB       -29.9780    8.0400   13.5050 C.3    50  LEU50       0.0270
     36  CG       -30.3540    9.1980   12.5740 C.3    50  LEU50       0.0019
     37  CD1      -29.2370    9.4290   11.5680 C.3    50  LEU50       0.0001
     38  CD2      -31.6720    8.8970   11.8800 C.3    50  LEU50       0.0001
     39  N        -27.1260   12.1980    6.8140 N.3    62  LEU62      -0.1245
     40  CA       -27.4420   11.4730    8.0380 C.3    62  LEU62       0.1561
     41  C        -26.3050   11.7040    9.0300 C.2    62  LEU62       0.2260
     42  O        -25.1310   11.6950    8.6620 O.2    62  LEU62      -0.2867
     43  CB       -27.6780    9.9810    7.7550 C.3    62  LEU62       0.0270
     44  CG       -28.9640    9.6920    6.9610 C.3    62  LEU62       0.0019
     45  CD1      -29.0360    8.2520    6.4620 C.3    62  LEU62       0.0001
     46  CD2      -30.2060   10.0260    7.7700 C.3    62  LEU62       0.0001
     47  N        -24.5570   10.6560   12.6590 N.3    64  MET64      -0.1245
     48  CA       -24.3660    9.5330   13.5830 C.3    64  MET64       0.1570
     49  C        -23.2930    9.7990   14.6260 C.2    64  MET64       0.2261
     50  O        -22.4440   10.6730   14.4450 O.2    64  MET64      -0.2867
     51  CB       -23.9280    8.2900   12.8160 C.3    64  MET64       0.0387
     52  CG       -25.0580    7.5070   12.1960 C.3    64  MET64       0.0595
     53  SD       -25.3990    8.1350   10.5550 S.3    64  MET64      -0.1393
     54  CE       -23.8240    7.7750    9.7720 C.3    64  MET64       0.0692
     55  N        -31.1440   -5.2990   17.2030 N.3   101  LEU101     -0.1245
     56  CA       -31.6220   -4.8910   15.8800 C.3   101  LEU101      0.1561
     57  C        -32.7380   -5.7980   15.3760 C.2   101  LEU101      0.2260
     58  O        -33.8010   -5.3110   15.0010 O.2   101  LEU101     -0.2867
     59  CB       -30.4810   -4.8220   14.8640 C.3   101  LEU101      0.0270
     60  CG       -29.5470   -3.6350   15.1080 C.3   101  LEU101      0.0019
     61  CD1      -28.2410   -3.7390   14.2960 C.3   101  LEU101      0.0001
     62  CD2      -30.2910   -2.3460   14.8010 C.3   101  LEU101      0.0001
     63  N        -35.3240   -5.1000   12.5460 N.3   106  VAL106     -0.1245
     64  CA       -34.4020   -4.6030   11.5390 C.3   106  VAL106      0.1561
     65  C        -33.4000   -5.6730   11.1340 C.2   106  VAL106      0.2260
     66  O        -32.6800   -6.2210   11.9690 O.2   106  VAL106     -0.2867
     67  CB       -33.6510   -3.3620   11.9950 C.3   106  VAL106      0.0252
     68  CG1      -32.6100   -2.9850   10.9560 C.3   106  VAL106      0.0019
     69  CG2      -34.6170   -2.2030   12.2120 C.3   106  VAL106      0.0019
     70  N        -30.0340   -6.3010    9.0650 N.3   108  HIS108     -0.1241
     71  CA       -28.9460   -5.4620    8.5960 C.3   108  HIS108      0.1621
     72  C        -28.7130   -5.5380    7.0840 C.2   108  HIS108      0.2264
     73  O        -28.6610   -4.4960    6.4170 O.2   108  HIS108     -0.2867
     74  CB       -27.6510   -5.7870    9.3090 C.3   108  HIS108      0.0745
     75  CG       -26.6020   -4.7470    9.1050 C.ar  108  HIS108      0.0817
     76  ND1      -25.9780   -4.5530    7.8930 N.ar  108  HIS108     -0.2268
     77  CD2      -26.0840   -3.8260    9.9490 C.ar  108  HIS108      0.1154
     78  CE1      -25.1110   -3.5660    8.0030 C.ar  108  HIS108      0.1986
     79  NE2      -25.1560   -3.1100    9.2400 N.ar  108  HIS108     -0.2212
     80  N        -22.5570   -1.5370   16.2750 N.3   126  ILE126     -0.1231
     81  CA       -22.8950   -1.8910   14.9190 C.3   126  ILE126      0.1692
     82  C        -23.3460   -0.6570   14.1210 C.2   126  ILE126      0.2592
     83  O        -24.0730    0.1850   14.6150 O.2   126  ILE126     -0.2718
     84  CB       -23.9620   -2.9930   14.9040 C.3   126  ILE126      0.0266
     85  CG1      -23.3860   -4.2460   15.5710 C.3   126  ILE126      0.0019
     86  CG2      -24.3950   -3.3140   13.4800 C.3   126  ILE126      0.0020
     87  CD1      -24.4390   -5.1820   16.0520 C.3   126  ILE126      0.0001
     88  N        -22.8640   -0.5360   12.8940 N.am  127  ALA127     -0.1966
     89  CA       -23.2870    0.5670   12.0410 C.3   127  ALA127      0.1728
     90  C        -23.8390    0.0390   10.7290 C.2   127  ALA127      0.2616
     91  O        -23.7710   -1.1610   10.4500 O.2   127  ALA127     -0.2715
     92  CB       -22.1280    1.5180   11.7860 C.3   127  ALA127      0.0334
     93  N        -24.3970    0.9480    9.9340 N.am  128  ASP128     -0.1957
     94  CA       -24.8360    0.6330    8.5830 C.3   128  ASP128      0.1840
     95  C        -24.4460    1.7920    7.6620 C.2   128  ASP128      0.2621
     96  O        -25.2920    2.5350    7.1660 O.2   128  ASP128     -0.2715
     97  CB       -26.3470    0.3780    8.5460 C.3   128  ASP128      0.1450
     98  CG       -26.8530    0.0640    7.1420 C.2   128  ASP128      0.3671
     99  OD1      -26.0380   -0.3910    6.2910 O.co2 128  ASP128     -0.2456
    100  OD2      -28.0670    0.2550    6.9130 O.co2 128  ASP128     -0.2456
    101  N        -23.1450    1.9380    7.4530 N.am  129  LEU129     -0.1977
    102  CA       -22.6050    3.1040    6.7630 C.3   129  LEU129      0.1596
    103  C        -22.9780    3.1220    5.2780 C.2   129  LEU129      0.2287
    104  O        -23.0010    4.1800    4.6710 O.2   129  LEU129     -0.2864
    105  CB       -21.0880    3.1950    6.9700 C.3   129  LEU129      0.0297
    106  CG       -20.6410    3.4280    8.4230 C.3   129  LEU129      0.0022
    107  CD1      -19.1230    3.5640    8.5280 C.3   129  LEU129      0.0001
    108  CD2      -21.3230    4.6450    9.0240 C.3   129  LEU129      0.0001
    109  N        -26.0150    2.1380    4.2710 N.3   131  LEU131     -0.1245
    110  CA       -27.4770    2.2500    4.2700 C.3   131  LEU131      0.1561
    111  C        -28.2020    1.0200    3.7070 C.2   131  LEU131      0.2260
    112  O        -29.2610    1.1540    3.0980 O.2   131  LEU131     -0.2867
    113  CB       -27.9420    3.5130    3.5140 C.3   131  LEU131      0.0270
    114  CG       -27.2820    4.8790    3.7810 C.3   131  LEU131      0.0019
    115  CD1      -28.1180    6.0290    3.1750 C.3   131  LEU131      0.0001
    116  CD2      -27.0290    5.1110    5.2710 C.3   131  LEU131      0.0001
    117  N        -29.8550   -1.1150    5.2570 N.3   133  SER133     -0.1202
    118  CA       -31.0950   -1.3850    5.9690 C.3   133  SER133      0.2020
    119  C        -32.1740   -0.3910    5.5520 C.2   133  SER133      0.2618
    120  O        -33.3350   -0.5220    5.9360 O.2   133  SER133     -0.2717
    121  CB       -30.8800   -1.3220    7.4780 C.3   133  SER133      0.2103
    122  OG       -30.6630    0.0140    7.9080 O.3   133  SER133     -0.2182
    123  N        -31.7710    0.6030    4.7640 N.am  134  PHE134     -0.1975
    124  CA       -32.6550    1.6830    4.3470 C.3   134  PHE134      0.1639
    125  C        -33.3390    1.3260    3.0350 C.2   134  PHE134      0.2290
    126  O        -32.9040    0.4250    2.3140 O.2   134  PHE134     -0.2864
    127  CB       -31.8800    2.9950    4.1710 C.3   134  PHE134      0.0560
    128  CG       -31.4250    3.6250    5.4650 C.ar  134  PHE134     -0.0200
    129  CD1      -31.9370    4.8480    5.8730 C.ar  134  PHE134     -0.0042
    130  CD2      -30.4760    3.0060    6.2680 C.ar  134  PHE134     -0.0042
    131  CE1      -31.5180    5.4450    7.0550 C.ar  134  PHE134     -0.0003
    132  CE2      -30.0510    3.6020    7.4550 C.ar  134  PHE134     -0.0003
    133  CZ       -30.5720    4.8210    7.8480 C.ar  134  PHE134     -0.0000
@<TRIPOS>BOND
     1   126   125    2
     2   125   124    1
     3   112   111    2
     4   115   114    1
     5   113   114    1
     6   113   110    1
     7   111   110    1
     8   114   116    1
     9   127   124    1
    10   127   128    1
    11   110   109    1
    12   124   123    1
    13   104   103    2
    14   123   119   am
    15   117   118    1
    16   103   102    1
    17   128   129   ar
    18   128   130   ar
    19   119   120    2
    20   119   118    1
    21   129   131   ar
    22   118   121    1
    23   130   132   ar
    24    99    98   ar
    25    73    72    2
    26    45    44    1
    27   102   105    1
    28   102   101    1
    29    39    40    1
    30   100    98   ar
    31    44    43    1
    32    44    46    1
    33   105   106    1
    34   131   133   ar
    35    72    71    1
    36    98    97    1
    37    96    95    2
    38   101    95   am
    39   132   133   ar
    40   121   122    1
    41    95    94    1
    42    43    40    1
    43    76    78   ar
    44    76    75   ar
    45    78    79   ar
    46    40    41    1
    47   106   107    1
    48   106   108    1
    49    97    94    1
    50    94    93    1
    51    71    70    1
    52    71    74    1
    53    42    41    2
    54    75    74    1
    55    75    77   ar
    56    79    77   ar
    57     7     6    1
    58     7     8    1
    59    54    53    1
    60    93    90   am
    61     6     5    1
    62    91    90    2
    63    53    52    1
    64    90    89    1
    65    68    67    1
    66     5     2    1
    67    65    64    1
    68    65    66    2
    69    64    67    1
    70    64    63    1
    71    37    36    1
    72    92    89    1
    73     1     2    1
    74    38    36    1
    75    67    69    1
    76    89    88    1
    77     2     3    1
    78    52    51    1
    79    36    35    1
    80    47    48    1
    81    51    48    1
    82    88    82   am
    83     3     4    2
    84    86    84    1
    85    35    32    1
    86    48    49    1
    87    15    14    1
    88    82    83    2
    89    82    81    1
    90    61    60    1
    91    32    31    1
    92    32    33    1
    93    50    49    2
    94    29    28    1
    95    62    60    1
    96    14    16    1
    97    14    13    1
    98    59    60    1
    99    59    56    1
   100    84    81    1
   101    84    85    1
   102    81    80    1
   103    28    30    1
   104    28    25    1
   105    58    57    2
   106    33    34    2
   107    27    26    2
   108    57    56    1
   109    85    87    1
   110    13    10    1
   111    56    55    1
   112    26    25    1
   113    25    24    1
   114    24    19   am
   115    22    21    1
   116     9    10    1
   117    10    11    1
   118    19    18    1
   119    19    20    2
   120    12    11    2
   121    21    23    1
   122    21    18    1
   123    18    17    1
