@<TRIPOS>MOLECULE
tmp/4itiB00.pdb
 178 168 0 0 0
SMALL
GASTEIGER

@<TRIPOS>ATOM
      1  N         10.5380   -8.0870  -11.5030 N.3    32  LYS32      -0.1245
      2  CA         9.8880   -6.9850  -10.8190 C.3    32  LYS32       0.1561
      3  C         10.8320   -5.7970  -10.8470 C.2    32  LYS32       0.2260
      4  O         11.7190   -5.6720  -10.0040 O.2    32  LYS32      -0.2867
      5  CB         9.4970   -7.3690   -9.3870 C.3    32  LYS32       0.0271
      6  CG         8.4220   -6.4710   -8.7650 C.3    32  LYS32       0.0035
      7  CD         9.0280   -5.2400   -8.1200 C.3    32  LYS32       0.0206
      8  CE         8.0850   -4.0440   -8.1340 C.3    32  LYS32       0.1093
      9  NZ         6.8890   -4.2020   -7.2720 N.3    32  LYS32      -0.1314
     10  N         18.1720   -6.4290    1.6100 N.3    51  ALA51      -0.1245
     11  CA        17.9500   -7.6520    0.8640 C.3    51  ALA51       0.1562
     12  C         18.3250   -8.8290    1.7360 C.2    51  ALA51       0.2260
     13  O         17.5010   -9.7150    1.9770 O.2    51  ALA51      -0.2867
     14  CB        18.7420   -7.6640   -0.4350 C.3    51  ALA51       0.0290
     15  N         15.9470   -9.2500    4.5680 N.3    54  MET54      -0.1230
     16  CA        14.6840   -9.7260    4.0190 C.3    54  MET54       0.1702
     17  C         14.8500  -11.0860    3.3500 C.2    54  MET54       0.2592
     18  O         13.8690  -11.7250    2.9670 O.2    54  MET54      -0.2718
     19  CB        14.1190   -8.7150    3.0190 C.3    54  MET54       0.0401
     20  CG        13.8340   -7.3470    3.6150 C.3    54  MET54       0.0596
     21  SD        13.2330   -7.4380    5.3140 S.3    54  MET54      -0.1393
     22  CE        14.4210   -6.3890    6.1490 C.3    54  MET54       0.0692
     23  N         16.0970  -11.5240    3.2120 N.am   55  ASN55      -0.1974
     24  CA        16.3940  -12.8090    2.5920 C.3    55  ASN55       0.1688
     25  C         16.5190  -13.9310    3.6170 C.2    55  ASN55       0.2292
     26  O         16.7260  -15.0910    3.2620 O.2    55  ASN55      -0.2864
     27  CB        17.6710  -12.7180    1.7540 C.3    55  ASN55       0.1181
     28  CG        17.7010  -13.7280    0.6240 C.2    55  ASN55       0.2629
     29  OD1       16.6680  -14.0540    0.0380 O.2    55  ASN55      -0.2716
     30  ND2       18.8890  -14.2320    0.3120 N.am   55  ASN55      -0.0877
     31  N         14.0580  -14.6170    5.7810 N.3    57  LEU57      -0.1245
     32  CA        12.7220  -15.2220    5.7810 C.3    57  LEU57       0.1561
     33  C         12.6010  -16.2800    4.6700 C.2    57  LEU57       0.2260
     34  O         12.3940  -15.9550    3.4830 O.2    57  LEU57      -0.2867
     35  CB        11.6300  -14.1540    5.5760 C.3    57  LEU57       0.0270
     36  CG        11.8600  -12.6710    5.9360 C.3    57  LEU57       0.0019
     37  CD1       11.0160  -11.7080    5.0630 C.3    57  LEU57       0.0001
     38  CD2       11.6080  -12.4120    7.4300 C.3    57  LEU57       0.0001
     39  N          6.3310  -18.6950    1.4600 N.3    62  VAL62      -0.1231
     40  CA         6.7360  -17.3780    0.9560 C.3    62  VAL62       0.1692
     41  C          7.5170  -17.5070   -0.3540 C.2    62  VAL62       0.2592
     42  O          8.3730  -18.3870   -0.4950 O.2    62  VAL62      -0.2718
     43  CB         7.5620  -16.5790    1.9900 C.3    62  VAL62       0.0266
     44  CG1        6.6910  -16.1570    3.1430 C.3    62  VAL62       0.0020
     45  CG2        8.6760  -17.4280    2.5110 C.3    62  VAL62       0.0020
     46  N          7.2160  -16.6420   -1.3170 N.am   63  VAL63      -0.1966
     47  CA         7.9660  -16.6320   -2.5700 C.3    63  VAL63       0.1727
     48  C          9.4610  -16.5570   -2.2860 C.2    63  VAL63       0.2616
     49  O          9.8790  -16.0090   -1.2630 O.2    63  VAL63      -0.2715
     50  CB         7.5710  -15.4560   -3.5080 C.3    63  VAL63       0.0290
     51  CG1        6.0730  -15.3540   -3.6450 C.3    63  VAL63       0.0023
     52  CG2        8.1460  -14.1460   -3.0270 C.3    63  VAL63       0.0023
     53  N         10.2660  -17.1430   -3.1690 N.am   64  LYS64      -0.1963
     54  CA        11.7140  -17.0300   -3.0490 C.3    64  LYS64       0.1728
     55  C         12.1850  -15.8970   -3.9540 C.2    64  LYS64       0.2616
     56  O         11.6170  -15.6840   -5.0250 O.2    64  LYS64      -0.2715
     57  CB        12.4130  -18.3460   -3.4180 C.3    64  LYS64       0.0311
     58  CG        12.1010  -19.5530   -2.5000 C.3    64  LYS64       0.0038
     59  CD        12.9670  -19.6300   -1.2150 C.3    64  LYS64       0.0206
     60  CE        12.1990  -20.2180    0.0260 C.3    64  LYS64       0.1093
     61  NZ        11.8290  -21.6930    0.0100 N.3    64  LYS64      -0.1314
     62  N         13.1830  -15.1400   -3.5010 N.am   65  LEU65      -0.1977
     63  CA        13.9400  -14.2860   -4.4130 C.3    65  LEU65       0.1596
     64  C         14.9100  -15.1950   -5.1450 C.2    65  LEU65       0.2287
     65  O         15.7010  -15.9200   -4.5180 O.2    65  LEU65      -0.2864
     66  CB        14.7190  -13.1980   -3.6810 C.3    65  LEU65       0.0297
     67  CG        15.1060  -11.9710   -4.5140 C.3    65  LEU65       0.0022
     68  CD1       13.8950  -11.1960   -5.0310 C.3    65  LEU65       0.0001
     69  CD2       15.9570  -11.0530   -3.6900 C.3    65  LEU65       0.0001
     70  N         14.0450   -6.9630   -8.9180 N.3    77  LEU77      -0.1245
     71  CA        13.8840   -8.1860   -8.1480 C.3    77  LEU77       0.1561
     72  C         13.4910   -9.3310   -9.0550 C.2    77  LEU77       0.2260
     73  O         12.7600   -9.1470  -10.0270 O.2    77  LEU77      -0.2867
     74  CB        12.8330   -7.9930   -7.0670 C.3    77  LEU77       0.0270
     75  CG        13.4090   -7.0840   -5.9860 C.3    77  LEU77       0.0019
     76  CD1       12.4150   -6.8590   -4.8640 C.3    77  LEU77       0.0001
     77  CD2       14.7300   -7.6640   -5.4550 C.3    77  LEU77       0.0001
     78  N         11.8430  -13.0230   -8.6730 N.3    79  MET79      -0.1245
     79  CA        11.2870  -14.0820   -7.8440 C.3    79  MET79       0.1570
     80  C         10.8270  -15.2650   -8.6590 C.2    79  MET79       0.2261
     81  O         10.7210  -15.1890   -9.8890 O.2    79  MET79      -0.2867
     82  CB        10.1340  -13.5840   -6.9860 C.3    79  MET79       0.0387
     83  CG        10.5480  -12.7460   -5.7930 C.3    79  MET79       0.0595
     84  SD         9.2520  -11.5500   -5.4430 S.3    79  MET79      -0.1393
     85  CE         9.2240  -10.6050   -6.9840 C.3    79  MET79       0.0692
     86  N          5.7270  -15.4640    9.3770 N.3   116  LEU116     -0.1245
     87  CA         6.1650  -14.0980    9.1750 C.3   116  LEU116      0.1561
     88  C          6.0450  -13.2450   10.4260 C.2   116  LEU116      0.2260
     89  O          6.9250  -12.4340   10.7220 O.2   116  LEU116     -0.2867
     90  CB         5.4050  -13.4560    8.0240 C.3   116  LEU116      0.0270
     91  CG         5.8210  -14.0300    6.6670 C.3   116  LEU116      0.0019
     92  CD1        4.8480  -13.6340    5.5610 C.3   116  LEU116      0.0001
     93  CD2        7.2440  -13.6000    6.3320 C.3   116  LEU116      0.0001
     94  N          7.7990   -9.6500   11.2070 N.3   121  VAL121     -0.1245
     95  CA         7.4580   -8.8850   10.0050 C.3   121  VAL121      0.1561
     96  C          5.9600   -8.6950    9.7510 C.2   121  VAL121      0.2260
     97  O          5.1760   -9.6410    9.8230 O.2   121  VAL121     -0.2867
     98  CB         8.1240   -9.4680    8.7620 C.3   121  VAL121      0.0252
     99  CG1        7.9280   -8.5330    7.5700 C.3   121  VAL121      0.0019
    100  CG2        9.5970   -9.6760    9.0450 C.3   121  VAL121      0.0019
    101  N          3.1280   -7.5510    7.0580 N.3   123  HIS123     -0.1241
    102  CA         2.9780   -7.4490    5.6250 C.3   123  HIS123      0.1621
    103  C          2.4760   -6.0800    5.2430 C.2   123  HIS123      0.2264
    104  O          3.0600   -5.4390    4.3770 O.2   123  HIS123     -0.2867
    105  CB         2.0330   -8.5060    5.0990 C.3   123  HIS123      0.0745
    106  CG         2.0530   -8.6310    3.6040 C.ar  123  HIS123      0.0817
    107  ND1        1.5020   -7.6780    2.7680 N.ar  123  HIS123     -0.2268
    108  CD2        2.5610   -9.5950    2.7970 C.ar  123  HIS123      0.1154
    109  CE1        1.6550   -8.0610    1.5150 C.ar  123  HIS123      0.1986
    110  NE2        2.2920   -9.2210    1.5050 N.ar  123  HIS123     -0.2212
    111  N          3.0230  -16.4660   -0.3250 N.3   141  ILE141     -0.1231
    112  CA         2.6890  -15.0620   -0.0410 C.3   141  ILE141      0.1692
    113  C          3.7190  -14.1260   -0.6640 C.2   141  ILE141      0.2592
    114  O          4.8940  -14.4620   -0.7370 O.2   141  ILE141     -0.2718
    115  CB         2.5580  -14.7870    1.4990 C.3   141  ILE141      0.0266
    116  CG1        1.3240  -15.4790    2.0630 C.3   141  ILE141      0.0019
    117  CG2        2.4230  -13.2940    1.7870 C.3   141  ILE141      0.0020
    118  CD1        1.5730  -16.1880    3.3460 C.3   141  ILE141      0.0001
    119  N          3.2820  -12.9530   -1.1050 N.am  142  ALA142     -0.1966
    120  CA         4.1890  -11.9940   -1.7300 C.3   142  ALA142      0.1728
    121  C          4.0030  -10.5880   -1.1750 C.2   142  ALA142      0.2616
    122  O          3.1010  -10.3340   -0.3880 O.2   142  ALA142     -0.2715
    123  CB         3.9800  -11.9920   -3.2500 C.3   142  ALA142      0.0334
    124  N          4.8700   -9.6800   -1.5980 N.am  143  ASP143     -0.1957
    125  CA         4.6760   -8.2610   -1.3660 C.3   143  ASP143      0.1840
    126  C          5.0260   -7.5130   -2.6550 C.2   143  ASP143      0.2621
    127  O          6.0750   -6.8830   -2.7600 O.2   143  ASP143     -0.2715
    128  CB         5.5190   -7.7600   -0.1930 C.3   143  ASP143      0.1450
    129  CG         5.1240   -6.3460    0.2450 C.2   143  ASP143      0.3671
    130  OD1        4.2600   -5.7270   -0.4240 O.co2 143  ASP143     -0.2456
    131  OD2        5.6750   -5.8530    1.2520 O.co2 143  ASP143     -0.2456
    132  N          4.1300   -7.5950   -3.6360 N.am  144  LEU144     -0.1977
    133  CA         4.3870   -7.0620   -4.9720 C.3   144  LEU144      0.1596
    134  C          4.3890   -5.5380   -5.0260 C.2   144  LEU144      0.2287
    135  O          4.6070   -4.9560   -6.0850 O.2   144  LEU144     -0.2864
    136  CB         3.3720   -7.6120   -5.9840 C.3   144  LEU144      0.0297
    137  CG         3.3460   -9.1240   -6.2180 C.3   144  LEU144      0.0022
    138  CD1        2.2750   -9.4770   -7.2570 C.3   144  LEU144      0.0001
    139  CD2        4.7240   -9.6920   -6.6140 C.3   144  LEU144      0.0001
    140  N          5.9770   -3.8900   -2.3260 N.3   146  LEU146     -0.1245
    141  CA         7.0880   -3.5610   -1.4350 C.3   146  LEU146      0.1561
    142  C          6.6500   -2.8650   -0.1370 C.2   146  LEU146      0.2260
    143  O          7.4470   -2.1930    0.5290 O.2   146  LEU146     -0.2867
    144  CB         8.1300   -2.7070   -2.1670 C.3   146  LEU146      0.0270
    145  CG         8.7050   -3.2220   -3.4890 C.3   146  LEU146      0.0019
    146  CD1        9.3860   -2.0900   -4.2260 C.3   146  LEU146      0.0001
    147  CD2        9.6780   -4.3630   -3.2710 C.3   146  LEU146      0.0001
    148  N          6.1630   -3.8040    2.7920 N.3   148  SER148     -0.1202
    149  CA         6.7990   -4.1920    4.0500 C.3   148  SER148      0.2020
    150  C          8.2840   -3.8860    4.0940 C.2   148  SER148      0.2618
    151  O          8.9600   -4.2130    5.0640 O.2   148  SER148     -0.2717
    152  CB         6.5640   -5.6680    4.3510 C.3   148  SER148      0.2103
    153  OG         7.0480   -6.4900    3.3070 O.3   148  SER148     -0.2182
    154  N          8.7960   -3.2480    3.0530 N.am  149  PHE149     -0.1975
    155  CA        10.2020   -2.8860    3.0380 C.3   149  PHE149      0.1639
    156  C         10.3830   -1.4750    3.5590 C.2   149  PHE149      0.2290
    157  O          9.4500   -0.8780    4.1030 O.2   149  PHE149     -0.2864
    158  CB        10.7740   -2.9960    1.6270 C.3   149  PHE149      0.0560
    159  CG        10.8330   -4.4020    1.1110 C.ar  149  PHE149     -0.0200
    160  CD1       11.8230   -5.2760    1.5520 C.ar  149  PHE149     -0.0042
    161  CD2        9.8950   -4.8570    0.2000 C.ar  149  PHE149     -0.0042
    162  CE1       11.8790   -6.5760    1.0930 C.ar  149  PHE149     -0.0003
    163  CE2        9.9420   -6.1560   -0.2630 C.ar  149  PHE149     -0.0003
    164  CZ        10.9400   -7.0180    0.1830 C.ar  149  PHE149     -0.0000
    165  N         14.0200   -0.3540   -0.2500 N.3   152  TRP152     -0.1241
    166  CA        13.6360   -0.7290   -1.6060 C.3   152  TRP152      0.1605
    167  C         12.3660   -0.0100   -2.0340 C.2   152  TRP152      0.2264
    168  O         12.1750    0.2850   -3.2150 O.2   152  TRP152     -0.2867
    169  CB        13.4540   -2.2440   -1.7210 C.3   152  TRP152      0.0550
    170  CG        14.7400   -2.9990   -1.8510 C.ar  152  TRP152      0.0003
    171  CD1       15.4810   -3.5420   -0.8370 C.ar  152  TRP152      0.0946
    172  CD2       15.4430   -3.3010   -3.0640 C.ar  152  TRP152      0.0152
    173  NE1       16.6000   -4.1600   -1.3420 N.ar  152  TRP152     -0.2442
    174  CE2       16.6020   -4.0230   -2.7060 C.ar  152  TRP152      0.0810
    175  CE3       15.2080   -3.0250   -4.4160 C.ar  152  TRP152      0.0012
    176  CZ2       17.5250   -4.4750   -3.6590 C.ar  152  TRP152      0.0191
    177  CZ3       16.1260   -3.4780   -5.3570 C.ar  152  TRP152      0.0001
    178  CH2       17.2720   -4.1890   -4.9730 C.ar  152  TRP152      0.0015
@<TRIPOS>BOND
     1     1     2    1
     2     3     2    1
     3     3     4    2
     4     2     5    1
     5    73    72    2
     6    81    80    2
     7     5     6    1
     8    72    71    1
     9    70    71    1
    10     6     7    1
    11    78    79    1
    12    80    79    1
    13    71    74    1
    14     8     7    1
    15     8     9    1
    16    79    82    1
    17   138   137    1
    18    74    75    1
    19    82    83    1
    20    85    84    1
    21   139   137    1
    22   137   136    1
    23   135   134    2
    24    75    77    1
    25    75    76    1
    26   136   133    1
    27    83    84    1
    28   177   178   ar
    29   177   175   ar
    30    64    65    2
    31    64    63    1
    32    68    67    1
    33   134   133    1
    34    56    55    2
    35   178   176   ar
    36   133   132    1
    37    67    69    1
    38    67    66    1
    39   175   172   ar
    40    63    66    1
    41    63    62    1
    42   146   145    1
    43    55    62   am
    44    55    54    1
    45   176   174   ar
    46    51    50    1
    47   132   126   am
    48    50    52    1
    49    50    47    1
    50   145   147    1
    51   145   144    1
    52    57    54    1
    53    57    58    1
    54   123   120    1
    55   168   167    2
    56    53    54    1
    57    53    48   am
    58   172   174   ar
    59   172   170   ar
    60   127   126    2
    61   174   173   ar
    62   126   125    1
    63    47    48    1
    64    47    46    1
    65    58    59    1
    66   140   141    1
    67    48    49    2
    68   144   141    1
    69   167   166    1
    70   170   169    1
    71   170   171   ar
    72   120   121    1
    73   120   119    1
    74   169   166    1
    75   166   165    1
    76   124   125    1
    77   124   121   am
    78   141   142    1
    79   125   128    1
    80   173   171   ar
    81    46    41   am
    82    59    60    1
    83   121   122    2
    84   119   113   am
    85   114   113    2
    86   113   112    1
    87    42    41    2
    88    14    11    1
    89   130   129   ar
    90    41    40    1
    91   111   112    1
    92   163   164   ar
    93   163   161   ar
    94   128   129    1
    95   142   143    2
    96   112   115    1
    97    61    60    1
    98    29    28    2
    99   164   162   ar
   100   161   159   ar
   101   129   131   ar
   102    30    28   am
   103    28    27    1
   104    11    10    1
   105    11    12    1
   106    40    39    1
   107    40    43    1
   108   162   160   ar
   109   159   160   ar
   110   159   158    1
   111   115   117    1
   112   115   116    1
   113   110   109   ar
   114   110   108   ar
   115   109   107   ar
   116   158   155    1
   117    12    13    2
   118    27    24    1
   119    43    45    1
   120    43    44    1
   121   116   118    1
   122    24    23    1
   123    24    25    1
   124   107   106   ar
   125   148   149    1
   126   108   106   ar
   127    18    17    2
   128    19    20    1
   129    19    16    1
   130   155   154    1
   131   155   156    1
   132   154   150   am
   133    23    17   am
   134    26    25    2
   135   153   152    1
   136    17    16    1
   137    34    33    2
   138   156   157    2
   139   106   105    1
   140    20    21    1
   141    16    15    1
   142   149   150    1
   143   149   152    1
   144   150   151    2
   145   104   103    2
   146    33    32    1
   147    37    36    1
   148   105   102    1
   149   103   102    1
   150    21    22    1
   151    92    91    1
   152    35    32    1
   153    35    36    1
   154   102   101    1
   155    32    31    1
   156    36    38    1
   157    93    91    1
   158    91    90    1
   159    99    98    1
   160    90    87    1
   161    98   100    1
   162    98    95    1
   163    87    86    1
   164    87    88    1
   165    96    97    2
   166    96    95    1
   167    95    94    1
   168    88    89    2
