@<TRIPOS>MOLECULE
tmp/4itjB00.pdb
 159 148 0 0 0
SMALL
GASTEIGER

@<TRIPOS>ATOM
      1  N         11.3360   22.7880   24.3360 N.3    37  ILE37      -0.1245
      2  CA        10.3330   22.3230   23.3800 C.3    37  ILE37       0.1561
      3  C          8.9210   22.7530   23.7870 C.2    37  ILE37       0.2260
      4  O          8.5020   22.5660   24.9300 O.2    37  ILE37      -0.2867
      5  CB        10.3820   20.7820   23.2380 C.3    37  ILE37       0.0252
      6  CG1       11.7590   20.3600   22.7360 C.3    37  ILE37       0.0019
      7  CG2        9.2870   20.2870   22.2850 C.3    37  ILE37       0.0019
      8  CD1       12.0690   20.8770   21.3370 C.3    37  ILE37       0.0001
      9  N          4.9670   22.2750   23.2500 N.3    39  LYS39      -0.1245
     10  CA         3.9040   21.4300   22.7190 C.3    39  LYS39       0.1561
     11  C          2.5790   22.1180   22.9850 C.2    39  LYS39       0.2260
     12  O          2.0520   22.0760   24.0990 O.2    39  LYS39      -0.2867
     13  CB         3.9140   20.0450   23.3860 C.3    39  LYS39       0.0271
     14  CG         2.8400   19.1000   22.8590 C.3    39  LYS39       0.0035
     15  CD         2.8320   17.7630   23.6340 C.3    39  LYS39       0.0206
     16  CE         4.0880   16.9250   23.3450 C.3    39  LYS39       0.1093
     17  NZ         4.0870   16.3070   21.9670 N.3    39  LYS39      -0.1314
     18  N          2.0040   14.8200   36.8030 N.3    61  MET61      -0.1245
     19  CA         2.9760   14.1920   35.9140 C.3    61  MET61       0.1570
     20  C          4.3760   14.7030   36.2660 C.2    61  MET61       0.2261
     21  O          5.3920   14.0160   36.0310 O.2    61  MET61      -0.2867
     22  CB         2.6190   14.4590   34.4510 C.3    61  MET61       0.0387
     23  CG         1.3440   13.7710   33.9860 C.3    61  MET61       0.0595
     24  SD         1.3230   11.9840   34.3180 S.3    61  MET61      -0.1393
     25  CE        -0.4130   11.7770   34.7340 C.3    61  MET61       0.0692
     26  N          6.9140   12.6920   38.4380 N.3    64  LEU64      -0.1245
     27  CA         7.7440   11.6470   37.8490 C.3    64  LEU64       0.1561
     28  C          9.0850   12.2820   37.4620 C.2    64  LEU64       0.2260
     29  O          9.1990   12.8890   36.4050 O.2    64  LEU64      -0.2867
     30  CB         7.0370   11.0450   36.6230 C.3    64  LEU64       0.0270
     31  CG         5.6730   10.4230   36.9630 C.3    64  LEU64       0.0019
     32  CD1        4.8200   10.1190   35.7310 C.3    64  LEU64       0.0001
     33  CD2        5.8640    9.1730   37.8240 C.3    64  LEU64       0.0001
     34  N         14.0210   10.2080   32.6010 N.3    69  VAL69      -0.1231
     35  CA        12.7620   10.7060   32.0400 C.3    69  VAL69       0.1692
     36  C         12.8140   12.2170   31.8380 C.2    69  VAL69       0.2592
     37  O         13.4570   12.9420   32.6140 O.2    69  VAL69      -0.2718
     38  CB        11.5290   10.2870   32.8880 C.3    69  VAL69       0.0266
     39  CG1       11.4890    8.7420   33.0730 C.3    69  VAL69       0.0020
     40  CG2       11.5100   10.9990   34.2410 C.3    69  VAL69       0.0020
     41  N         12.1720   12.6900   30.7770 N.am   70  VAL70      -0.1966
     42  CA        12.2440   14.1110   30.4370 C.3    70  VAL70       0.1727
     43  C         11.5310   14.9520   31.4810 C.2    70  VAL70       0.2616
     44  O         10.6590   14.4510   32.2030 O.2    70  VAL70      -0.2715
     45  CB        11.6570   14.4090   29.0450 C.3    70  VAL70       0.0290
     46  CG1       12.4870   13.7540   27.9550 C.3    70  VAL70       0.0023
     47  CG2       10.2010   13.9410   28.9550 C.3    70  VAL70       0.0023
     48  N         11.9250   16.2210   31.5770 N.am   71  LYS71      -0.1963
     49  CA        11.2930   17.1520   32.5000 C.3    71  LYS71       0.1728
     50  C         10.3020   18.0930   31.8250 C.2    71  LYS71       0.2616
     51  O         10.5500   18.6280   30.7330 O.2    71  LYS71      -0.2715
     52  CB        12.3500   17.9810   33.2310 C.3    71  LYS71       0.0311
     53  CG        13.0610   17.2000   34.3250 C.3    71  LYS71       0.0038
     54  CD        14.2050   17.9860   34.9320 C.3    71  LYS71       0.0206
     55  CE        14.7910   17.1980   36.0870 C.3    71  LYS71       0.1093
     56  NZ        15.1950   15.8330   35.6290 N.3    71  LYS71      -0.1314
     57  N          9.1730   18.2800   32.4990 N.am   72  LEU72      -0.1977
     58  CA         8.2300   19.3390   32.1650 C.3    72  LEU72       0.1596
     59  C          8.8110   20.6200   32.7620 C.2    72  LEU72       0.2287
     60  O          9.0180   20.6930   33.9770 O.2    72  LEU72      -0.2864
     61  CB         6.8730   19.0380   32.8120 C.3    72  LEU72       0.0297
     62  CG         5.8010   20.1210   32.5670 C.3    72  LEU72       0.0022
     63  CD1        5.3770   20.1420   31.1040 C.3    72  LEU72       0.0001
     64  CD2        4.5990   19.9180   33.4710 C.3    72  LEU72       0.0001
     65  N          2.2990   22.6790   26.9040 N.3    84  LEU84      -0.1245
     66  CA         3.2530   22.1080   27.8390 C.3    84  LEU84       0.1561
     67  C          4.6350   22.4740   27.3200 C.2    84  LEU84       0.2260
     68  O          4.8570   22.4860   26.1170 O.2    84  LEU84      -0.2867
     69  CB         3.1290   20.5770   27.8670 C.3    84  LEU84       0.0270
     70  CG         1.7780   20.0170   28.3100 C.3    84  LEU84       0.0019
     71  CD1        1.6320   18.5420   27.9330 C.3    84  LEU84       0.0001
     72  CD2        1.6030   20.1900   29.7970 C.3    84  LEU84       0.0001
     73  N          8.6530   21.4860   27.5920 N.3    86  MET86      -0.1245
     74  CA         9.4780   20.3170   27.9040 C.3    86  MET86       0.1570
     75  C         10.9510   20.6270   27.6730 C.2    86  MET86       0.2261
     76  O         11.2910   21.4810   26.8540 O.2    86  MET86      -0.2867
     77  CB         9.0530   19.1500   26.9920 C.3    86  MET86       0.0387
     78  CG         9.6720   17.7920   27.3210 C.3    86  MET86       0.0595
     79  SD         9.1880   16.5710   26.0550 S.3    86  MET86      -0.1393
     80  CE        10.3540   16.9760   24.7470 C.3    86  MET86       0.0692
     81  N          9.6990    4.2560   36.0960 N.3   123  LEU123     -0.1245
     82  CA         8.2660    4.4440   35.8240 C.3   123  LEU123      0.1561
     83  C          7.4140    3.3180   36.4240 C.2   123  LEU123      0.2260
     84  O          6.4190    3.5760   37.1230 O.2   123  LEU123     -0.2867
     85  CB         8.0070    4.5690   34.3130 C.3   123  LEU123      0.0270
     86  CG         8.5570    5.8550   33.6760 C.3   123  LEU123      0.0019
     87  CD1        8.3690    5.8530   32.1730 C.3   123  LEU123      0.0001
     88  CD2        7.8860    7.0870   34.2890 C.3   123  LEU123      0.0001
     89  N          3.5420    3.5430   37.0010 N.3   128  VAL128     -0.1245
     90  CA         3.1650    4.1220   35.7190 C.3   128  VAL128      0.1561
     91  C          3.4260    3.0990   34.6180 C.2   128  VAL128      0.2260
     92  O          4.5360    2.5700   34.5130 O.2   128  VAL128     -0.2867
     93  CB         3.9540    5.4330   35.4330 C.3   128  VAL128      0.0252
     94  CG1        3.7310    5.9060   33.9990 C.3   128  VAL128      0.0019
     95  CG2        3.5380    6.5500   36.4100 C.3   128  VAL128      0.0019
     96  N          3.8270    2.8870   30.6480 N.3   130  HIS130     -0.1241
     97  CA         4.0690    3.8640   29.5970 C.3   130  HIS130      0.1621
     98  C          2.9990    3.7580   28.5120 C.2   130  HIS130      0.2264
     99  O          2.3830    4.7690   28.1520 O.2   130  HIS130     -0.2867
    100  CB         5.4670    3.7210   28.9870 C.3   130  HIS130      0.0745
    101  CG         5.8470    4.8700   28.1100 C.ar  130  HIS130      0.0817
    102  ND1        5.2550    5.0890   26.8800 N.ar  130  HIS130     -0.2268
    103  CD2        6.7140    5.8970   28.2950 C.ar  130  HIS130      0.1154
    104  CE1        5.7630    6.1790   26.3340 C.ar  130  HIS130      0.1986
    105  NE2        6.6490    6.6910   27.1710 N.ar  130  HIS130     -0.2212
    106  N         13.3670    8.9810   28.5720 N.3   148  ILE148     -0.1231
    107  CA        12.0980    8.4990   28.0300 C.3   148  ILE148      0.1692
    108  C         11.0610    9.6060   28.1410 C.2   148  ILE148      0.2592
    109  O         11.0290   10.3320   29.1370 O.2   148  ILE148     -0.2718
    110  CB        11.6340    7.2710   28.8020 C.3   148  ILE148      0.0266
    111  CG1       12.7020    6.1750   28.7220 C.3   148  ILE148      0.0019
    112  CG2       10.3280    6.7560   28.2610 C.3   148  ILE148      0.0020
    113  CD1       12.5060    5.0610   29.7360 C.3   148  ILE148      0.0001
    114  N         10.2190    9.7380   27.1160 N.am  149  ALA149     -0.1966
    115  CA         9.1730   10.7590   27.0960 C.3   149  ALA149      0.1728
    116  C          7.8320   10.1330   26.7730 C.2   149  ALA149      0.2616
    117  O          7.7650    9.0250   26.2560 O.2   149  ALA149     -0.2715
    118  CB         9.5090   11.8320   26.0560 C.3   149  ALA149      0.0334
    119  N          6.7630   10.8700   27.0640 N.am  150  ASP150     -0.1957
    120  CA         5.4200   10.4950   26.6310 C.3   150  ASP150      0.1840
    121  C          4.9400   11.5280   25.6080 C.2   150  ASP150      0.2621
    122  O          4.0110   12.2920   25.8690 O.2   150  ASP150     -0.2715
    123  CB         4.4910   10.4620   27.8490 C.3   150  ASP150      0.1450
    124  CG         3.0530   10.1460   27.4880 C.2   150  ASP150      0.3671
    125  OD1        2.8130    9.4500   26.4680 O.co2 150  ASP150     -0.2456
    126  OD2        2.1590   10.6040   28.2300 O.co2 150  ASP150     -0.2456
    127  N          5.5720   11.5560   24.4370 N.am  151  LEU151     -0.1977
    128  CA         5.3040   12.6260   23.4800 C.3   151  LEU151      0.1596
    129  C          3.8950   12.5500   22.9050 C.2   151  LEU151      0.2287
    130  O          3.3780   13.5470   22.3900 O.2   151  LEU151     -0.2864
    131  CB         6.3250   12.6190   22.3420 C.3   151  LEU151      0.0297
    132  CG         7.7830   12.8340   22.7430 C.3   151  LEU151      0.0022
    133  CD1        8.6520   12.8670   21.5070 C.3   151  LEU151      0.0001
    134  CD2        7.9410   14.1340   23.5430 C.3   151  LEU151      0.0001
    135  N          1.3530   12.0000   24.6720 N.3   153  LEU153     -0.1245
    136  CA         0.5210   12.3150   25.8300 C.3   153  LEU153      0.1561
    137  C         -0.4310   11.1730   26.1800 C.2   153  LEU153      0.2260
    138  O         -1.5650   11.4040   26.6090 O.2   153  LEU153     -0.2867
    139  CB        -0.2430   13.6360   25.6390 C.3   153  LEU153      0.0270
    140  CG         0.5640   14.9030   25.3260 C.3   153  LEU153      0.0019
    141  CD1       -0.3510   16.1170   25.4180 C.3   153  LEU153      0.0001
    142  CD2        1.7740   15.0720   26.2450 C.3   153  LEU153      0.0001
    143  N         -0.2560    9.3640   28.7160 N.3   155  SER155     -0.1202
    144  CA        -0.5100    9.4260   30.1580 C.3   155  SER155      0.2020
    145  C         -1.1250   10.7460   30.6390 C.2   155  SER155      0.2618
    146  O         -1.5090   10.8470   31.8010 O.2   155  SER155     -0.2717
    147  CB         0.7730    9.1400   30.9460 C.3   155  SER155      0.2103
    148  OG         1.2280    7.8230   30.7000 O.3   155  SER155     -0.2182
    149  N         -1.1920   11.7560   29.7700 N.am  156  PHE156     -0.1975
    150  CA        -1.7840   13.0440   30.1400 C.3   156  PHE156      0.1639
    151  C         -3.2340   13.0760   29.6540 C.2   156  PHE156      0.2290
    152  O         -3.5540   13.7410   28.6590 O.2   156  PHE156     -0.2864
    153  CB        -1.0240   14.2090   29.4970 C.3   156  PHE156      0.0560
    154  CG         0.3680   14.4450   30.0420 C.ar  156  PHE156     -0.0200
    155  CD1        0.6780   15.6440   30.6730 C.ar  156  PHE156     -0.0042
    156  CD2        1.3840   13.5110   29.8520 C.ar  156  PHE156     -0.0042
    157  CE1        1.9620   15.9040   31.1450 C.ar  156  PHE156     -0.0003
    158  CE2        2.6790   13.7630   30.3170 C.ar  156  PHE156     -0.0003
    159  CZ         2.9640   14.9600   30.9660 C.ar  156  PHE156     -0.0000
@<TRIPOS>BOND
     1     8     6    1
     2   133   132    1
     3    17    16    1
     4     7     5    1
     5   131   132    1
     6   131   128    1
     7   130   129    2
     8    10    11    1
     9    10     9    1
    10    10    13    1
    11     6     5    1
    12   132   134    1
    13    14    13    1
    14    14    15    1
    15   129   128    1
    16    11    12    2
    17     5     2    1
    18    16    15    1
    19     2     3    1
    20     2     1    1
    21   128   127    1
    22     3     4    2
    23   127   121   am
    24   135   136    1
    25    80    79    1
    26   140   141    1
    27   140   139    1
    28   140   142    1
    29   121   122    2
    30   121   120    1
    31   139   136    1
    32   136   137    1
    33    79    78    1
    34   118   115    1
    35    68    67    2
    36   137   138    2
    37   117   116    2
    38   104   102   ar
    39   104   105   ar
    40   125   124   ar
    41   120   119    1
    42   120   123    1
    43   116   119   am
    44   116   115    1
    45    76    75    2
    46   102   101   ar
    47    65    66    1
    48    77    78    1
    49    77    74    1
    50   115   114    1
    51   114   108   am
    52   105   103   ar
    53    67    66    1
    54   124   123    1
    55   124   126   ar
    56    73    74    1
    57    75    74    1
    58    66    69    1
    59    69    70    1
    60    71    70    1
    61    46    45    1
    62   107   108    1
    63   107   106    1
    64   107   110    1
    65   101   103   ar
    66   101   100    1
    67   108   109    2
    68    99    98    2
    69   112   110    1
    70    70    72    1
    71    98    97    1
    72   152   151    2
    73   143   144    1
    74   111   110    1
    75   111   113    1
    76    47    45    1
    77   100    97    1
    78    45    42    1
    79   153   154    1
    80   153   150    1
    81    97    96    1
    82   151   150    1
    83   149   150    1
    84   149   145   am
    85   156   154   ar
    86   156   158   ar
    87   154   155   ar
    88   144   145    1
    89   144   147    1
    90   158   159   ar
    91    42    41    1
    92    42    43    1
    93   145   146    2
    94   155   157   ar
    95   148   147    1
    96    51    50    2
    97    41    36   am
    98   159   157   ar
    99    63    62    1
   100    43    48   am
   101    43    44    2
   102    48    49    1
   103    50    57   am
   104    50    49    1
   105    36    35    1
   106    36    37    2
   107    35    34    1
   108    35    38    1
   109    58    57    1
   110    58    59    1
   111    58    61    1
   112    87    86    1
   113    49    52    1
   114    62    61    1
   115    62    64    1
   116    59    60    2
   117    38    39    1
   118    38    40    1
   119    52    53    1
   120    86    88    1
   121    86    85    1
   122    23    24    1
   123    23    22    1
   124    94    93    1
   125    85    82    1
   126    24    25    1
   127    53    54    1
   128    22    19    1
   129    92    91    2
   130    91    90    1
   131    54    55    1
   132    93    90    1
   133    93    95    1
   134    56    55    1
   135    90    89    1
   136    32    31    1
   137    82    81    1
   138    82    83    1
   139    19    20    1
   140    19    18    1
   141    21    20    2
   142    29    28    2
   143    83    84    2
   144    30    31    1
   145    30    27    1
   146    31    33    1
   147    28    27    1
   148    27    26    1
