@<TRIPOS>MOLECULE
tmp/4itlA00.pdb
 227 218 0 0 0
SMALL
GASTEIGER

@<TRIPOS>ATOM
      1  N          1.3130    1.8200  -10.8820 N.3    38  SER38      -0.1202
      2  CA         1.6490    2.9620  -10.0490 C.3    38  SER38       0.2020
      3  C          2.9290    2.7480   -9.2780 C.2    38  SER38       0.2619
      4  O          3.4170    1.6330   -9.1410 O.2    38  SER38      -0.2717
      5  CB         0.5220    3.3030   -9.0700 C.3    38  SER38       0.2103
      6  OG         0.2080    2.2000   -8.2400 O.3    38  SER38      -0.2182
      7  N          3.4910    3.8440   -8.8160 N.am   39  VAL39      -0.1965
      8  CA         4.6620    3.7970   -7.9460 C.3    39  VAL39       0.1727
      9  C          4.1220    3.6850   -6.5370 C.2    39  VAL39       0.2617
     10  O          2.9780    4.0450   -6.3200 O.2    39  VAL39      -0.2715
     11  CB         5.4590    5.1010   -8.0440 C.3    39  VAL39       0.0290
     12  CG1        5.9610    5.3020   -9.4230 C.3    39  VAL39       0.0023
     13  CG2        4.5850    6.2660   -7.6570 C.3    39  VAL39       0.0023
     14  N          4.9140    3.1920   -5.5840 N.am   40  GLY40      -0.1940
     15  CA         4.4770    3.1320   -4.1870 C.3    40  GLY40       0.2014
     16  C          4.2030    1.7120   -3.6960 C.2    40  GLY40       0.2639
     17  O          3.7580    1.5000   -2.5720 O.2    40  GLY40      -0.2714
     18  N          4.3530    0.7350   -4.5770 N.am   41  GLY41      -0.1939
     19  CA         4.3020   -0.6580   -4.1790 C.3    41  GLY41       0.2014
     20  C          2.9190   -1.2510   -4.3520 C.2    41  GLY41       0.2640
     21  O          1.9310   -0.6410   -3.9660 O.2    41  GLY41      -0.2714
     22  N          2.8470   -2.4370   -4.9410 N.am   42  SER42      -0.1935
     23  CA         1.5770   -3.1210   -5.1320 C.3    42  SER42       0.2055
     24  C          1.5870   -4.6050   -4.7910 C.2    42  SER42       0.2644
     25  O          0.7190   -5.3340   -5.2460 O.2    42  SER42      -0.2714
     26  CB         1.0980   -2.9410   -6.5660 C.3    42  SER42       0.2130
     27  OG         2.0320   -3.5030   -7.4620 O.3    42  SER42      -0.2179
     28  N          2.5560   -5.0590   -4.0100 N.am   43  GLY43      -0.1939
     29  CA         2.7150   -6.4790   -3.7560 C.3    43  GLY43       0.2014
     30  C          3.2100   -7.3330   -4.9080 C.2    43  GLY43       0.2639
     31  O          2.9180   -8.5180   -4.9760 O.2    43  GLY43      -0.2714
     32  N          3.9630   -6.7300   -5.8140 N.am   44  LYS44      -0.1963
     33  CA         4.5210   -7.4490   -6.9390 C.3    44  LYS44       0.1728
     34  C          5.5240   -8.5100   -6.5240 C.2    44  LYS44       0.2617
     35  O          5.5050   -9.6460   -7.0540 O.2    44  LYS44      -0.2715
     36  CB         5.2400   -6.4870   -7.8840 C.3    44  LYS44       0.0311
     37  CG         4.3900   -5.7140   -8.8700 C.3    44  LYS44       0.0038
     38  CD         5.2570   -4.6590   -9.5680 C.3    44  LYS44       0.0206
     39  CE         5.5560   -3.5180   -8.5600 C.3    44  LYS44       0.1093
     40  NZ         6.5180   -2.5470   -9.0650 N.3    44  LYS44      -0.1314
     41  N          6.4470   -8.1470   -5.6420 N.am   45  THR45      -0.1937
     42  CA         7.4410   -9.1160   -5.1900 C.3    45  THR45       0.2028
     43  C          6.7760  -10.3510   -4.5840 C.2    45  THR45       0.2642
     44  O          7.1640  -11.4930   -4.8730 O.2    45  THR45      -0.2714
     45  CB         8.4030   -8.5020   -4.1780 C.3    45  THR45       0.1808
     46  OG1        7.6290   -7.9550   -3.1250 O.3    45  THR45      -0.2208
     47  CG2        9.1990   -7.4030   -4.8050 C.3    45  THR45       0.0379
     48  N          5.7910  -10.1200   -3.7310 N.am   46  SER46      -0.1949
     49  CA         5.0450  -11.1850   -3.1140 C.3    46  SER46       0.1924
     50  C          4.3340  -12.0800   -4.0940 C.2    46  SER46       0.2314
     51  O          4.3030  -13.3160   -3.9380 O.2    46  SER46      -0.2863
     52  CB         4.0150  -10.5380   -2.2020 C.3    46  SER46       0.2116
     53  OG         4.7000   -9.7330   -1.2590 O.3    46  SER46      -0.2180
     54  N          6.8550  -14.2480   -5.8710 N.3    49  MET49      -0.1245
     55  CA         7.2330  -15.4110   -5.0600 C.3    49  MET49       0.1570
     56  C          6.1420  -16.5020   -5.0850 C.2    49  MET49       0.2261
     57  O          6.4220  -17.7210   -5.1170 O.2    49  MET49      -0.2867
     58  CB         7.5450  -14.9780   -3.6200 C.3    49  MET49       0.0387
     59  CG         8.7740  -14.0760   -3.5210 C.3    49  MET49       0.0595
     60  SD         8.9540  -13.4190   -1.8530 S.3    49  MET49      -0.1393
     61  CE        10.3090  -12.2850   -1.9930 C.3    49  MET49       0.0692
     62  N         15.4550   -5.7620   -3.6120 N.3    93  GLU93      -0.1245
     63  CA        14.3750   -6.6740   -4.0300 C.3    93  GLU93       0.1567
     64  C         14.8430   -7.9150   -4.8020 C.2    93  GLU93       0.2260
     65  O         14.3880   -9.0290   -4.5210 O.2    93  GLU93      -0.2867
     66  CB        13.2450   -5.9220   -4.7590 C.3    93  GLU93       0.0388
     67  CG        12.5820   -4.8940   -3.7940 C.3    93  GLU93       0.1160
     68  CD        11.6300   -3.9060   -4.4680 C.2    93  GLU93       0.3649
     69  OE1       11.3920   -4.0490   -5.6730 O.co2  93  GLU93      -0.2457
     70  OE2       11.0880   -2.9970   -3.7880 O.co2  93  GLU93      -0.2457
     71  N         16.1770  -10.1370   -2.0970 N.3    96  LEU96      -0.1245
     72  CA        15.1220  -10.6370   -1.2020 C.3    96  LEU96       0.1561
     73  C         14.4320  -11.8420   -1.8610 C.2    96  LEU96       0.2260
     74  O         14.2420  -12.9190   -1.2510 O.2    96  LEU96      -0.2867
     75  CB        14.1180   -9.5270   -0.9280 C.3    96  LEU96       0.0270
     76  CG        12.7850   -9.9420   -0.2620 C.3    96  LEU96       0.0019
     77  CD1       13.0160  -10.2220    1.1910 C.3    96  LEU96       0.0001
     78  CD2       11.6950   -8.8730   -0.4470 C.3    96  LEU96       0.0001
     79  N         14.5640  -15.6980   -0.5130 N.3   100  LEU100     -0.1245
     80  CA        13.3560  -16.3740   -0.0550 C.3   100  LEU100      0.1561
     81  C         12.9560  -17.4840   -1.0330 C.2   100  LEU100      0.2260
     82  O         12.0810  -18.2820   -0.7250 O.2   100  LEU100     -0.2867
     83  CB        12.2220  -15.3520    0.1520 C.3   100  LEU100      0.0270
     84  CG        12.5260  -14.4150    1.3420 C.3   100  LEU100      0.0019
     85  CD1       11.4080  -13.4330    1.6340 C.3   100  LEU100      0.0001
     86  CD2       12.8100  -15.2160    2.5640 C.3   100  LEU100      0.0001
     87  N         -3.5890   -6.2920   -1.8670 N.3   180  TYR180     -0.1241
     88  CA        -3.7800   -5.7250   -0.5500 C.3   180  TYR180      0.1605
     89  C         -5.1790   -5.8780   -0.0370 C.2   180  TYR180      0.2264
     90  O         -5.6680   -4.9970    0.6780 O.2   180  TYR180     -0.2867
     91  CB        -3.4100   -4.2380   -0.5250 C.3   180  TYR180      0.0534
     92  CG        -1.9620   -3.9490   -0.8110 C.ar  180  TYR180     -0.0201
     93  CD1       -1.0050   -4.9560   -0.8140 C.ar  180  TYR180     -0.0009
     94  CD2       -1.5470   -2.6630   -1.1030 C.ar  180  TYR180     -0.0009
     95  CE1        0.3200   -4.6660   -1.0740 C.ar  180  TYR180      0.0417
     96  CE2       -0.2410   -2.3640   -1.3660 C.ar  180  TYR180      0.0417
     97  CZ         0.7060   -3.3600   -1.3550 C.ar  180  TYR180      0.1957
     98  OH         2.0360   -3.0230   -1.6280 O.3   180  TYR180     -0.2866
     99  N         -2.6460  -11.2230    1.7790 N.3   199  ARG199     -0.1245
    100  CA        -1.4610  -11.5340    2.5480 C.3   199  ARG199      0.1563
    101  C         -1.8990  -12.0070    3.9110 C.2   199  ARG199      0.2260
    102  O         -2.5810  -11.2730    4.6490 O.2   199  ARG199     -0.2867
    103  CB        -0.5470  -10.3130    2.6520 C.3   199  ARG199      0.0307
    104  CG         0.0510   -9.9290    1.2970 C.3   199  ARG199      0.0489
    105  CD         0.9260   -8.6870    1.3650 C.3   199  ARG199      0.2205
    106  NE         0.1620   -7.5720    1.8880 N.pl3 199  ARG199     -0.0865
    107  CZ         0.6890   -6.4000    2.2080 C.cat 199  ARG199      0.5346
    108  NH1        1.9770   -6.1800    2.0180 N.pl3 199  ARG199      0.1354
    109  NH2       -0.0710   -5.4500    2.7210 N.pl3 199  ARG199      0.1354
    110  N         -0.8190  -12.7820    7.4000 N.3   201  PHE201     -0.1241
    111  CA         0.2780  -12.4870    8.3000 C.3   201  PHE201      0.1605
    112  C          0.3070  -13.4990    9.4060 C.2   201  PHE201      0.2264
    113  O         -0.4900  -13.4420   10.3050 O.2   201  PHE201     -0.2867
    114  CB         0.0960  -11.0850    8.8510 C.3   201  PHE201      0.0534
    115  CG         0.2920  -10.0610    7.8220 C.ar  201  PHE201     -0.0203
    116  CD1       -0.7980   -9.5030    7.1790 C.ar  201  PHE201     -0.0042
    117  CD2        1.5760   -9.7330    7.3980 C.ar  201  PHE201     -0.0042
    118  CE1       -0.6200   -8.5880    6.1570 C.ar  201  PHE201     -0.0003
    119  CE2        1.7670   -8.8170    6.3780 C.ar  201  PHE201     -0.0003
    120  CZ         0.6640   -8.2400    5.7530 C.ar  201  PHE201     -0.0000
    121  N          9.9090    1.3740    2.4770 N.3   228  LEU228     -0.1231
    122  CA         8.9940    0.6560    1.6090 C.3   228  LEU228      0.1693
    123  C          8.4500    1.6460    0.6060 C.2   228  LEU228      0.2593
    124  O          8.5520    2.8460    0.8090 O.2   228  LEU228     -0.2718
    125  CB         7.8420    0.0470    2.3900 C.3   228  LEU228      0.0284
    126  CG         8.1630   -1.0840    3.3500 C.3   228  LEU228      0.0019
    127  CD1        6.8760   -1.6450    3.9090 C.3   228  LEU228      0.0001
    128  CD2        8.9760   -2.1720    2.6840 C.3   228  LEU228      0.0001
    129  N          7.8820    1.1580   -0.4860 N.am  229  GLY229     -0.1942
    130  CA         7.1260    2.0460   -1.3450 C.3   229  GLY229      0.2014
    131  C          6.0500    2.7870   -0.5730 C.2   229  GLY229      0.2638
    132  O          5.8250    3.9850   -0.7790 O.2   229  GLY229     -0.2714
    133  N          5.3620    2.0720    0.3120 N.am  230  ASP230     -0.1971
    134  CA         4.4030    2.7250    1.2170 C.3   230  ASP230      0.1709
    135  C          4.3850    2.1660    2.6440 C.2   230  ASP230      0.2293
    136  O          3.7310    1.1360    2.9160 O.2   230  ASP230     -0.2864
    137  CB         3.0060    2.6030    0.6510 C.3   230  ASP230      0.1436
    138  CG         1.9760    3.2690    1.5380 C.2   230  ASP230      0.3671
    139  OD1        2.3760    4.0750    2.4140 O.co2 230  ASP230     -0.2456
    140  OD2        0.7740    2.9800    1.3540 O.co2 230  ASP230     -0.2456
    141  N          0.9370    1.1810    4.7310 N.3   233  GLN233     -0.1231
    142  CA         0.1770   -0.0740    4.7730 C.3   233  GLN233      0.1698
    143  C          0.7700   -1.0390    5.7970 C.2   233  GLN233      0.2592
    144  O          0.0380   -1.8190    6.4300 O.2   233  GLN233     -0.2718
    145  CB        -0.0350   -0.7380    3.3850 C.3   233  GLN233      0.0381
    146  CG         1.1680   -0.9470    2.5460 C.3   233  GLN233      0.0905
    147  CD         1.9770   -2.1560    2.9570 C.2   233  GLN233      0.2608
    148  OE1        1.4270   -3.1890    3.4070 O.2   233  GLN233     -0.2717
    149  NE2        3.3050   -2.0380    2.8230 N.am  233  GLN233     -0.0878
    150  N          2.0770   -0.9510    6.0040 N.am  234  PHE234     -0.1976
    151  CA         2.7300   -1.7900    6.9960 C.3   234  PHE234      0.1639
    152  C          2.2730   -1.3890    8.3840 C.2   234  PHE234      0.2290
    153  O          1.8900   -2.2600    9.1750 O.2   234  PHE234     -0.2864
    154  CB         4.2550   -1.6970    6.8910 C.3   234  PHE234      0.0560
    155  CG         4.9840   -2.4770    7.9360 C.ar  234  PHE234     -0.0200
    156  CD1        4.6800   -3.8080    8.1650 C.ar  234  PHE234     -0.0042
    157  CD2        6.0240   -1.9000    8.6520 C.ar  234  PHE234     -0.0042
    158  CE1        5.3780   -4.5380    9.1160 C.ar  234  PHE234     -0.0003
    159  CE2        6.7280   -2.6330    9.6080 C.ar  234  PHE234     -0.0003
    160  CZ         6.4080   -3.9470    9.8330 C.ar  234  PHE234     -0.0000
    161  N         -1.2690   -2.6460    8.8610 N.3   237  VAL237     -0.1245
    162  CA        -1.2600   -4.0920    9.1240 C.3   237  VAL237      0.1561
    163  C         -0.9510   -4.3750   10.6200 C.2   237  VAL237      0.2260
    164  O         -1.6360   -5.1660   11.2710 O.2   237  VAL237     -0.2867
    165  CB        -0.2730   -4.8300    8.1770 C.3   237  VAL237      0.0252
    166  CG1        0.0850   -6.2590    8.6750 C.3   237  VAL237      0.0019
    167  CG2       -0.8200   -4.8680    6.7190 C.3   237  VAL237      0.0019
    168  N         11.9940    4.4540    0.8660 N.3   253  ASP253     -0.1225
    169  CA        12.0680    3.2140    0.1000 C.3   253  ASP253      0.1805
    170  C         13.5340    2.8220   -0.1760 C.2   253  ASP253      0.2597
    171  O         14.3800    3.6830   -0.4070 O.2   253  ASP253     -0.2718
    172  CB        11.2860    3.3350   -1.2070 C.3   253  ASP253      0.1424
    173  CG        10.9460    1.9510   -1.8140 C.2   253  ASP253      0.3668
    174  OD1       11.2390    0.8930   -1.1760 O.co2 253  ASP253     -0.2456
    175  OD2       10.3730    1.9140   -2.9080 O.co2 253  ASP253     -0.2456
    176  N         13.8320    1.5260   -0.0820 N.am  254  HIS254     -0.1975
    177  CA        15.1760    0.9820   -0.3310 C.3   254  HIS254      0.1656
    178  C         16.2660    1.5470    0.5760 C.2   254  HIS254      0.2291
    179  O         17.4420    1.4520    0.2640 O.2   254  HIS254     -0.2864
    180  CB        15.5790    1.1740   -1.8000 C.3   254  HIS254      0.0771
    181  CG        14.5430    0.7180   -2.7680 C.ar  254  HIS254      0.0820
    182  ND1       14.2140   -0.6140   -2.9420 N.ar  254  HIS254     -0.2267
    183  CD2       13.7390    1.4110   -3.6100 C.ar  254  HIS254      0.1154
    184  CE1       13.2740   -0.7180   -3.8600 C.ar  254  HIS254      0.1986
    185  NE2       12.9630    0.5010   -4.2800 N.ar  254  HIS254     -0.2212
    186  N         10.1320   -5.4420    8.1790 N.3   271  THR271     -0.1204
    187  CA         9.6720   -6.3450    7.1430 C.3   271  THR271      0.1979
    188  C         10.8500   -7.1450    6.6050 C.2   271  THR271      0.2460
    189  O         12.0050   -6.8010    6.8300 O.2   271  THR271     -0.2732
    190  CB         8.9950   -5.6090    5.9470 C.3   271  THR271      0.1783
    191  OG1        9.9680   -5.0380    5.0760 O.3   271  THR271     -0.2211
    192  CG2        8.0710   -4.5000    6.4220 C.3   271  THR271      0.0376
    193  N         10.5670   -8.2060    5.8480 N.am  272  PRO272     -0.2717
    194  CA        11.7080   -8.9560    5.3160 C.3   272  PRO272      0.1535
    195  C         12.6210   -8.1530    4.3730 C.2   272  PRO272      0.2598
    196  O         13.8380   -8.3940    4.3240 O.2   272  PRO272     -0.2715
    197  CB        11.0310  -10.1100    4.5850 C.3   272  PRO272      0.0310
    198  CG         9.7890  -10.3400    5.3490 C.3   272  PRO272      0.0237
    199  CD         9.3060   -8.9480    5.7000 C.3   272  PRO272      0.0939
    200  N         12.0260   -7.2500    3.5990 N.am  273  LYS273     -0.1978
    201  CA        12.7390   -6.3610    2.6940 C.3   273  LYS273      0.1596
    202  C         13.7310   -5.5360    3.4600 C.2   273  LYS273      0.2287
    203  O         14.8570   -5.3280    3.0130 O.2   273  LYS273     -0.2864
    204  CB        11.7330   -5.4740    1.9080 C.3   273  LYS273      0.0298
    205  CG        12.3240   -4.3340    1.1630 C.3   273  LYS273      0.0038
    206  CD        11.3200   -3.6950    0.2290 C.3   273  LYS273      0.0206
    207  CE        11.8210   -2.3250   -0.1960 C.3   273  LYS273      0.1093
    208  NZ        11.0350   -1.8110   -1.3600 N.3   273  LYS273     -0.1314
    209  N          7.9750   -9.2060   10.4350 N.3   287  LEU287     -0.1245
    210  CA         6.6860   -9.8340   10.1800 C.3   287  LEU287      0.1561
    211  C          6.6870  -10.4500    8.7730 C.2   287  LEU287      0.2260
    212  O          7.0420   -9.7980    7.7910 O.2   287  LEU287     -0.2867
    213  CB         5.5970   -8.7790   10.2780 C.3   287  LEU287      0.0270
    214  CG         4.1500   -9.2340   10.1330 C.3   287  LEU287      0.0019
    215  CD1        3.6910  -10.0760   11.3360 C.3   287  LEU287      0.0001
    216  CD2        3.2700   -8.0120    9.9910 C.3   287  LEU287      0.0001
    217  N          4.5160  -13.2560    5.9660 N.3   289  PHE289     -0.1241
    218  CA         3.1670  -13.6270    5.5820 C.3   289  PHE289      0.1605
    219  C          3.1820  -14.6580    4.4690 C.2   289  PHE289      0.2264
    220  O          4.1710  -14.7810    3.7440 O.2   289  PHE289     -0.2867
    221  CB         2.4020  -12.3880    5.0890 C.3   289  PHE289      0.0534
    222  CG         3.1210  -11.6200    4.0050 C.ar  289  PHE289     -0.0203
    223  CD1        2.8340  -11.8440    2.6550 C.ar  289  PHE289     -0.0042
    224  CD2        4.0790  -10.6700    4.3270 C.ar  289  PHE289     -0.0042
    225  CE1        3.5140  -11.1360    1.6480 C.ar  289  PHE289     -0.0003
    226  CE2        4.7530   -9.9670    3.3290 C.ar  289  PHE289     -0.0003
    227  CZ         4.4690  -10.2050    1.9860 C.ar  289  PHE289     -0.0000
@<TRIPOS>BOND
     1     1     2    1
     2     2     3    1
     3     2     5    1
     4    38    37    1
     5    38    39    1
     6    12    11    1
     7     3     4    2
     8     3     7   am
     9     5     6    1
    10    40    39    1
    11    37    36    1
    12     7     8    1
    13    11     8    1
    14    11    13    1
    15     8     9    1
    16    36    33    1
    17    27    26    1
    18    35    34    2
    19    33    34    1
    20    33    32    1
    21    26    23    1
    22     9    10    2
    23     9    14   am
    24    34    41   am
    25    54    55    1
    26    32    30   am
    27    69    68   ar
    28    41    42    1
    29    14    15    1
    30    25    24    2
    31    42    43    1
    32    42    45    1
    33    23    22    1
    34    23    24    1
    35    57    56    2
    36    56    55    1
    37    55    58    1
    38    31    30    2
    39    22    20   am
    40    30    29    1
    41    44    43    2
    42    47    45    1
    43    64    65    2
    44    64    63    1
    45    24    28   am
    46    66    63    1
    47    66    67    1
    48    43    48   am
    49    18    19    1
    50    18    16   am
    51    68    67    1
    52    68    70   ar
    53    20    19    1
    54    20    21    2
    55   185   184   ar
    56   185   183   ar
    57    15    16    1
    58    45    46    1
    59    50    51    2
    60    50    49    1
    61    63    62    1
    62    28    29    1
    63   184   182   ar
    64    48    49    1
    65    16    17    2
    66    58    59    1
    67   183   181   ar
    68    59    60    1
    69    49    52    1
    70   182   181   ar
    71   175   173   ar
    72   181   180    1
    73    52    53    1
    74    71    72    1
    75    61    60    1
    76    87    88    1
    77    73    74    2
    78    73    72    1
    79   173   172    1
    80   173   174   ar
    81   180   177    1
    82    98    97    1
    83    96    97   ar
    84    96    94   ar
    85   208   207    1
    86    97    95   ar
    87   130   131    1
    88   130   129    1
    89   172   169    1
    90    72    75    1
    91    94    92   ar
    92    95    93   ar
    93    81    82    2
    94    81    80    1
    95    75    76    1
    96    93    92   ar
    97    92    91    1
    98   132   131    2
    99   131   133   am
   100    88    91    1
   101    88    89    1
   102    79    80    1
   103   129   123   am
   104    78    76    1
   105   171   170    2
   106   177   176    1
   107   177   178    1
   108    76    77    1
   109   207   206    1
   110   170   176   am
   111   170   169    1
   112    80    83    1
   113    89    90    2
   114   169   168    1
   115    83    84    1
   116   206   205    1
   117   179   178    2
   118   133   134    1
   119   123   124    2
   120   123   122    1
   121   137   134    1
   122   137   138    1
   123   205   204    1
   124   134   135    1
   125   104   105    1
   126   104   103    1
   127    84    85    1
   128    84    86    1
   129   140   138   ar
   130   105   106    1
   131   138   139   ar
   132   122   125    1
   133   122   121    1
   134   225   227   ar
   135   225   223   ar
   136    99   100    1
   137   106   107    2
   138   204   201    1
   139   227   226   ar
   140   108   107    1
   141   107   109    1
   142   125   126    1
   143   146   147    1
   144   146   145    1
   145   100   103    1
   146   100   101    1
   147   135   136    2
   148   223   222   ar
   149   128   126    1
   150   201   202    1
   151   201   200    1
   152   149   147   am
   153   147   148    2
   154   203   202    2
   155   226   224   ar
   156   126   127    1
   157   145   142    1
   158   200   195   am
   159   220   219    2
   160   101   102    2
   161   222   224   ar
   162   222   221    1
   163   196   195    2
   164   195   194    1
   165   219   218    1
   166   197   194    1
   167   197   198    1
   168   141   142    1
   169   142   143    1
   170   191   190    1
   171   221   218    1
   172   194   193    1
   173   198   199    1
   174   218   217    1
   175   199   193    1
   176   120   118   ar
   177   120   119   ar
   178   143   150   am
   179   143   144    2
   180   193   188   am
   181   190   192    1
   182   190   187    1
   183   150   151    1
   184   118   116   ar
   185   119   117   ar
   186   188   189    2
   187   188   187    1
   188   167   165    1
   189   154   151    1
   190   154   155    1
   191   151   152    1
   192   187   186    1
   193   116   115   ar
   194   117   115   ar
   195   110   111    1
   196   212   211    2
   197   115   114    1
   198   155   156   ar
   199   155   157   ar
   200   156   158   ar
   201   165   166    1
   202   165   162    1
   203   111   114    1
   204   111   112    1
   205   152   153    2
   206   157   159   ar
   207   211   210    1
   208   161   162    1
   209   158   160   ar
   210   162   163    1
   211   112   113    2
   212   159   160   ar
   213   216   214    1
   214   214   213    1
   215   214   215    1
   216   210   213    1
   217   210   209    1
   218   163   164    2
