@<TRIPOS>MOLECULE
tmp/4itmA00.pdb
 166 157 0 0 0
SMALL
GASTEIGER

@<TRIPOS>ATOM
      1  N          1.4370    4.4900   -6.6020 N.3    48  GLY48      -0.1210
      2  CA         1.2940    3.1200   -6.1250 C.3    48  GLY48       0.1956
      3  C         -0.0960    2.5490   -6.3650 C.2    48  GLY48       0.2613
      4  O         -1.0930    3.2590   -6.2810 O.2    48  GLY48      -0.2717
      5  N         -0.1720    1.2570   -6.6600 N.am   49  SER49      -0.1938
      6  CA        -1.4660    0.6020   -6.7750 C.3    49  SER49       0.2055
      7  C         -1.4530   -0.7430   -6.0750 C.2    49  SER49       0.2644
      8  O         -2.1220   -1.6880   -6.5170 O.2    49  SER49      -0.2714
      9  CB        -1.8720    0.4360   -8.2500 C.3    49  SER49       0.2130
     10  OG        -2.0680    1.6990   -8.8680 O.3    49  SER49      -0.2179
     11  N         -0.6670   -0.8370   -5.0020 N.am   50  GLY50      -0.1939
     12  CA        -0.6370   -2.0380   -4.1750 C.3    50  GLY50       0.2014
     13  C          0.2290   -3.1750   -4.6930 C.2    50  GLY50       0.2639
     14  O          0.0290   -4.3460   -4.3340 O.2    50  GLY50      -0.2714
     15  N          1.2200   -2.8500   -5.5140 N.am   51  LYS51      -0.1963
     16  CA         2.0330   -3.9020   -6.1370 C.3    51  LYS51       0.1728
     17  C          2.8590   -4.7790   -5.1870 C.2    51  LYS51       0.2617
     18  O          2.9520   -5.9810   -5.3770 O.2    51  LYS51      -0.2715
     19  CB         2.9020   -3.3260   -7.2590 C.3    51  LYS51       0.0311
     20  CG         4.3410   -3.7960   -7.2810 C.3    51  LYS51       0.0038
     21  CD         5.2220   -2.5840   -7.4950 C.3    51  LYS51       0.0206
     22  CE         6.6750   -2.9360   -7.6000 C.3    51  LYS51       0.1093
     23  NZ         7.2660   -3.3320   -6.2920 N.3    51  LYS51      -0.1314
     24  N          3.4670   -4.1850   -4.1790 N.am   52  THR52      -0.1937
     25  CA         4.2670   -4.9770   -3.2530 C.3    52  THR52       0.2028
     26  C          3.3700   -5.9930   -2.5510 C.2    52  THR52       0.2642
     27  O          3.7070   -7.1580   -2.5000 O.2    52  THR52      -0.2714
     28  CB         4.9810   -4.0900   -2.2330 C.3    52  THR52       0.1808
     29  OG1        5.7480   -3.0990   -2.9410 O.3    52  THR52      -0.2208
     30  CG2        5.8840   -4.9270   -1.2890 C.3    52  THR52       0.0379
     31  N          2.2170   -5.5490   -2.0570 N.am   53  SER53      -0.1949
     32  CA         1.2440   -6.4650   -1.4680 C.3    53  SER53       0.1924
     33  C          0.8900   -7.6030   -2.4300 C.2    53  SER53       0.2314
     34  O          0.9270   -8.7700   -2.0530 O.2    53  SER53      -0.2863
     35  CB        -0.0370   -5.7300   -1.0760 C.3    53  SER53       0.2116
     36  OG         0.1410   -4.9970    0.1220 O.3    53  SER53      -0.2180
     37  N          3.5770  -10.0610   -2.8630 N.3    56  MET56      -0.1245
     38  CA         3.6440  -10.9160   -1.6700 C.3    56  MET56       0.1570
     39  C          2.6010  -12.0330   -1.7550 C.2    56  MET56       0.2261
     40  O          2.9010  -13.2100   -1.5280 O.2    56  MET56      -0.2867
     41  CB         3.4590  -10.0940   -0.3820 C.3    56  MET56       0.0387
     42  CG         4.6260   -9.1430   -0.0880 C.3    56  MET56       0.0595
     43  SD         4.2430   -7.8570    1.1170 S.3    56  MET56      -0.1393
     44  CE         4.1050   -8.8150    2.6460 C.3    56  MET56       0.0692
     45  N         13.7870   -0.4620   -3.6060 N.3   100  GLU100     -0.1245
     46  CA        12.6420   -1.3110   -3.8960 C.3   100  GLU100      0.1567
     47  C         12.9480   -2.7910   -4.1450 C.2   100  GLU100      0.2260
     48  O         12.2420   -3.6600   -3.6310 O.2   100  GLU100     -0.2867
     49  CB        11.8450   -0.7360   -5.0590 C.3   100  GLU100      0.0388
     50  CG        10.5480   -1.4510   -5.2820 C.3   100  GLU100      0.1160
     51  CD         9.4280   -0.4830   -5.5590 C.2   100  GLU100      0.3649
     52  OE1        9.6870    0.7410   -5.5260 O.co2 100  GLU100     -0.2457
     53  OE2        8.2950   -0.9370   -5.8110 O.co2 100  GLU100     -0.2457
     54  N         13.8890   -4.2070   -0.7730 N.3   103  LEU103     -0.1245
     55  CA        12.7830   -4.3670    0.1560 C.3   103  LEU103      0.1561
     56  C         11.9660   -5.6060   -0.1900 C.2   103  LEU103      0.2260
     57  O         11.5570   -6.3640    0.6950 O.2   103  LEU103     -0.2867
     58  CB        11.9050   -3.1130    0.2000 C.3   103  LEU103      0.0270
     59  CG        10.5580   -3.2570    0.9150 C.3   103  LEU103      0.0019
     60  CD1       10.7280   -3.6970    2.3810 C.3   103  LEU103      0.0001
     61  CD2        9.7860   -1.9510    0.8290 C.3   103  LEU103      0.0001
     62  N         10.9420   -8.6850    2.1130 N.3   107  LEU107     -0.1245
     63  CA         9.5520   -9.0640    2.3420 C.3   107  LEU107      0.1561
     64  C          9.2570  -10.5040    1.8890 C.2   107  LEU107      0.2260
     65  O          8.2810  -11.1020    2.3300 O.2   107  LEU107     -0.2867
     66  CB         8.6060   -8.0610    1.6740 C.3   107  LEU107      0.0270
     67  CG         8.5550   -6.7420    2.4400 C.3   107  LEU107      0.0019
     68  CD1        7.6980   -5.7080    1.7400 C.3   107  LEU107      0.0001
     69  CD2        8.0500   -6.9970    3.8620 C.3   107  LEU107      0.0001
     70  N         -6.6020   -0.7320   -3.4420 N.3   187  TYR187     -0.1241
     71  CA        -6.9900    0.3730   -2.5710 C.3   187  TYR187      0.1605
     72  C         -8.4520    0.2530   -2.1000 C.2   187  TYR187      0.2264
     73  O         -9.1420    1.2460   -1.9240 O.2   187  TYR187     -0.2867
     74  CB        -6.7010    1.7220   -3.2390 C.3   187  TYR187      0.0534
     75  CG        -5.2380    2.1140   -3.1780 C.ar  187  TYR187     -0.0201
     76  CD1       -4.2490    1.3070   -3.7490 C.ar  187  TYR187     -0.0009
     77  CD2       -4.8420    3.2850   -2.5390 C.ar  187  TYR187     -0.0009
     78  CE1       -2.8980    1.6600   -3.6790 C.ar  187  TYR187      0.0417
     79  CE2       -3.5050    3.6530   -2.4670 C.ar  187  TYR187      0.0417
     80  CZ        -2.5400    2.8440   -3.0390 C.ar  187  TYR187      0.1957
     81  OH        -1.2240    3.2260   -2.9600 O.3   187  TYR187     -0.2866
     82  N         -5.9880   -5.8870    2.4440 N.3   206  ARG206     -0.1245
     83  CA        -4.9100   -6.0830    3.3980 C.3   206  ARG206      0.1563
     84  C         -5.4930   -6.1010    4.8020 C.2   206  ARG206      0.2260
     85  O         -6.4540   -5.3890    5.0860 O.2   206  ARG206     -0.2867
     86  CB        -3.8570   -4.9720    3.2870 C.3   206  ARG206      0.0307
     87  CG        -2.7390   -5.2390    2.2800 C.3   206  ARG206      0.0489
     88  CD        -3.2480   -5.1910    0.8370 C.3   206  ARG206      0.2205
     89  NE        -3.8400   -3.8910    0.5220 N.pl3 206  ARG206     -0.0865
     90  CZ        -3.1410   -2.8060    0.1970 C.cat 206  ARG206      0.5346
     91  NH1       -1.8100   -2.8470    0.1350 N.pl3 206  ARG206      0.1354
     92  NH2       -3.7750   -1.6770   -0.0740 N.pl3 206  ARG206      0.1354
     93  N          7.0800   -6.4450   11.8730 N.3   212  LEU212     -0.1245
     94  CA         8.3280   -6.9580   11.3350 C.3   212  LEU212      0.1561
     95  C          9.4830   -6.3720   12.1510 C.2   212  LEU212      0.2260
     96  O          9.5330   -5.1660   12.3650 O.2   212  LEU212     -0.2867
     97  CB         8.4650   -6.6000    9.8580 C.3   212  LEU212      0.0270
     98  CG         7.4570   -7.2620    8.9220 C.3   212  LEU212      0.0019
     99  CD1        7.4470   -6.5410    7.5890 C.3   212  LEU212      0.0001
    100  CD2        7.7770   -8.7740    8.7370 C.3   212  LEU212      0.0001
    101  N         -0.0440    8.6960    5.3590 N.3   240  GLN240     -0.1245
    102  CA        -0.6170    7.3490    5.3960 C.3   240  GLN240      0.1566
    103  C         -0.2700    6.6270    6.7110 C.2   240  GLN240      0.2260
    104  O         -1.1510    6.0930    7.3900 O.2   240  GLN240     -0.2867
    105  CB        -0.1370    6.5320    4.1910 C.3   240  GLN240      0.0367
    106  CG        -0.7770    5.1550    4.0370 C.3   240  GLN240      0.0905
    107  CD        -0.3810    4.4710    2.7290 C.2   240  GLN240      0.2608
    108  OE1        0.3020    5.0640    1.8880 O.2   240  GLN240     -0.2717
    109  NE2       -0.8090    3.2230    2.5510 N.am  240  GLN240     -0.0878
    110  N          8.1990    2.5730    8.5520 N.3   278  THR278     -0.1204
    111  CA         7.7360    1.8800    7.3450 C.3   278  THR278      0.1979
    112  C          8.7550    0.8340    6.9250 C.2   278  THR278      0.2460
    113  O          9.9370    0.9400    7.2710 O.2   278  THR278     -0.2732
    114  CB         7.5430    2.8490    6.1450 C.3   278  THR278      0.1783
    115  OG1        8.8240    3.2910    5.6880 O.3   278  THR278     -0.2211
    116  CG2        6.6950    4.0560    6.5470 C.3   278  THR278      0.0376
    117  N          8.3040   -0.1950    6.1960 N.am  279  PRO279     -0.2717
    118  CA         9.2800   -1.1860    5.7250 C.3   279  PRO279      0.1535
    119  C         10.3560   -0.5580    4.8310 C.2   279  PRO279      0.2598
    120  O         11.4950   -1.0170    4.8660 O.2   279  PRO279     -0.2715
    121  CB         8.4050   -2.1880    4.9650 C.3   279  PRO279      0.0310
    122  CG         7.0870   -2.1220    5.6990 C.3   279  PRO279      0.0237
    123  CD         6.9160   -0.6520    5.9970 C.3   279  PRO279      0.0939
    124  N         10.0150    0.4950    4.0890 N.am  280  LYS280     -0.1978
    125  CA        10.9930    1.1900    3.2530 C.3   280  LYS280      0.1596
    126  C         12.0650    1.8850    4.0840 C.2   280  LYS280      0.2287
    127  O         13.2050    2.0460    3.6340 O.2   280  LYS280     -0.2864
    128  CB        10.3220    2.2040    2.3160 C.3   280  LYS280      0.0298
    129  CG         9.8350    1.6200    1.0040 C.3   280  LYS280      0.0038
    130  CD         9.3260    2.6840    0.0200 C.3   280  LYS280      0.0206
    131  CE         8.1540    3.4810    0.5810 C.3   280  LYS280      0.1093
    132  NZ         7.5540    4.3940   -0.4420 N.3   280  LYS280     -0.1314
    133  N          5.0550   -2.4920   10.4520 N.3   294  LEU294     -0.1231
    134  CA         3.7920   -3.2220   10.4720 C.3   294  LEU294      0.1693
    135  C          3.7760   -4.1920    9.3040 C.2   294  LEU294      0.2592
    136  O          4.2230   -3.8570    8.2090 O.2   294  LEU294     -0.2718
    137  CB         2.6080   -2.2620   10.3330 C.3   294  LEU294      0.0284
    138  CG         2.4940   -1.0660   11.2830 C.3   294  LEU294      0.0019
    139  CD1        1.3440   -0.1740   10.8560 C.3   294  LEU294      0.0001
    140  CD2        2.3010   -1.5310   12.7030 C.3   294  LEU294      0.0001
    141  N          3.2560   -5.3870    9.5460 N.am  295  ASN295     -0.1960
    142  CA         3.1290   -6.4050    8.5240 C.3   295  ASN295      0.1819
    143  C          1.6470   -6.6810    8.2880 C.2   295  ASN295      0.2621
    144  O          0.8900   -6.8360    9.2410 O.2   295  ASN295     -0.2715
    145  CB         3.8570   -7.6800    8.9730 C.3   295  ASN295      0.1195
    146  CG         3.7900   -8.7920    7.9400 C.2   295  ASN295      0.2630
    147  OD1        4.1240   -8.6020    6.7670 O.2   295  ASN295     -0.2716
    148  ND2        3.3360   -9.9540    8.3700 N.am  295  ASN295     -0.0877
    149  N          1.2320   -6.7160    7.0210 N.am  296  PHE296     -0.1974
    150  CA        -0.1700   -6.9570    6.6760 C.3   296  PHE296      0.1639
    151  C         -0.3210   -8.2200    5.8400 C.2   296  PHE296      0.2290
    152  O          0.4400   -8.4370    4.8870 O.2   296  PHE296     -0.2864
    153  CB        -0.7540   -5.7720    5.8930 C.3   296  PHE296      0.0560
    154  CG        -0.8770   -4.5170    6.6980 C.ar  296  PHE296     -0.0200
    155  CD1        0.2000   -3.6520    6.8270 C.ar  296  PHE296     -0.0042
    156  CD2       -2.0700   -4.1980    7.3330 C.ar  296  PHE296     -0.0042
    157  CE1        0.0900   -2.5000    7.5730 C.ar  296  PHE296     -0.0003
    158  CE2       -2.1850   -3.0380    8.0790 C.ar  296  PHE296     -0.0003
    159  CZ        -1.1030   -2.1930    8.2040 C.ar  296  PHE296     -0.0000
    160  N         -2.1570  -10.3020    2.9870 N.3   298  VAL298     -0.1245
    161  CA        -2.7710   -9.8820    1.7320 C.3   298  VAL298      0.1561
    162  C         -3.7500  -10.9430    1.2550 C.2   298  VAL298      0.2260
    163  O         -3.3920  -12.1160    1.1520 O.2   298  VAL298     -0.2867
    164  CB        -1.7150   -9.6360    0.6580 C.3   298  VAL298      0.0252
    165  CG1       -2.3650   -9.0860   -0.6290 C.3   298  VAL298      0.0019
    166  CG2       -0.6650   -8.6820    1.1900 C.3   298  VAL298      0.0019
@<TRIPOS>BOND
     1    10     9    1
     2     9     6    1
     3    22    21    1
     4    22    23    1
     5    21    20    1
     6    20    19    1
     7    19    16    1
     8     6     5    1
     9     6     7    1
    10     5     3   am
    11     1     2    1
    12     8     7    2
    13     3     4    2
    14     3     2    1
    15    16    15    1
    16    16    17    1
    17     7    11   am
    18    53    51   ar
    19    51    52   ar
    20    51    50    1
    21    15    13   am
    22    18    17    2
    23    50    49    1
    24    17    24   am
    25    49    46    1
    26    11    12    1
    27    13    14    2
    28    13    12    1
    29    24    25    1
    30    47    46    1
    31    47    48    2
    32    46    45    1
    33    76    78   ar
    34    76    75   ar
    35    78    80   ar
    36    70    71    1
    37    25    26    1
    38    25    28    1
    39    74    75    1
    40    74    71    1
    41    75    77   ar
    42    80    81    1
    43    80    79   ar
    44    29    28    1
    45    37    38    1
    46    71    72    1
    47    26    27    2
    48    26    31   am
    49    77    79   ar
    50    33    34    2
    51    33    32    1
    52    28    30    1
    53    72    73    2
    54    31    32    1
    55    39    38    1
    56    39    40    2
    57    38    41    1
    58    32    35    1
    59    35    36    1
    60    54    55    1
    61   165   164    1
    62   132   131    1
    63    41    42    1
    64    56    55    1
    65    56    57    2
    66    42    43    1
    67    92    90    1
    68   130   131    1
    69   130   129    1
    70    91    90    1
    71    55    58    1
    72    90    89    2
    73    58    59    1
    74    89    88    1
    75   164   166    1
    76   164   161    1
    77    61    59    1
    78    88    87    1
    79    59    60    1
    80   129   128    1
    81    43    44    1
    82   163   162    2
    83   162   161    1
    84    66    63    1
    85    66    67    1
    86   161   160    1
    87    68    67    1
    88   108   107    2
    89    64    65    2
    90    64    63    1
    91    62    63    1
    92    87    86    1
    93   128   125    1
    94    67    69    1
    95    82    83    1
    96   109   107   am
    97   107   106    1
    98   125   126    1
    99   125   124    1
   100    86    83    1
   101    83    84    1
   102   127   126    2
   103   106   105    1
   104   124   119   am
   105   105   102    1
   106    84    85    2
   107   119   120    2
   108   119   118    1
   109   152   151    2
   110   121   122    1
   111   121   118    1
   112   101   102    1
   113   102   103    1
   114   115   114    1
   115   122   123    1
   116   118   117    1
   117   151   150    1
   118   153   150    1
   119   153   154    1
   120   123   117    1
   121   114   116    1
   122   114   111    1
   123   117   112   am
   124   150   149    1
   125   154   155   ar
   126   154   156   ar
   127   103   104    2
   128   147   146    2
   129   155   157   ar
   130   112   113    2
   131   112   111    1
   132   149   143   am
   133   156   158   ar
   134   111   110    1
   135   157   159   ar
   136    99    98    1
   137   146   148   am
   138   146   145    1
   139   158   159   ar
   140   136   135    2
   141   143   142    1
   142   143   144    2
   143   142   145    1
   144   142   141    1
   145   100    98    1
   146    98    97    1
   147   135   141   am
   148   135   134    1
   149    97    94    1
   150   137   134    1
   151   137   138    1
   152   133   134    1
   153   139   138    1
   154   138   140    1
   155    94    93    1
   156    94    95    1
   157    95    96    2
