@<TRIPOS>MOLECULE
tmp/4itoA00.pdb
 164 158 0 0 0
SMALL
GASTEIGER

@<TRIPOS>ATOM
      1  N         -8.4640    0.5760    5.9100 N.3    64  ASN64      -0.1240
      2  CA        -9.2990    1.5060    6.6590 C.3    64  ASN64       0.1653
      3  C        -10.4880    1.9510    5.8250 C.2    64  ASN64       0.2266
      4  O        -10.3120    2.3960    4.6820 O.2    64  ASN64      -0.2867
      5  CB        -8.5260    2.7820    7.0500 C.3    64  ASN64       0.1155
      6  CG        -7.4360    2.5510    8.0910 C.2    64  ASN64       0.2627
      7  OD1       -7.2950    1.4810    8.6530 O.2    64  ASN64      -0.2716
      8  ND2       -6.6490    3.5880    8.3410 N.am   64  ASN64      -0.0877
      9  N        -13.9990    8.3560   12.8740 N.3    88  ILE88      -0.1231
     10  CA       -13.1150    8.7370   11.7830 C.3    88  ILE88       0.1692
     11  C        -12.8490    7.5790   10.8100 C.2    88  ILE88       0.2591
     12  O        -12.7900    7.7930    9.5960 O.2    88  ILE88      -0.2718
     13  CB       -11.7870    9.3820   12.3010 C.3    88  ILE88       0.0266
     14  CG1      -10.8600    9.7450   11.1430 C.3    88  ILE88       0.0019
     15  CG2      -11.0630    8.5140   13.3220 C.3    88  ILE88       0.0020
     16  CD1       -9.6810   10.6100   11.5660 C.3    88  ILE88       0.0001
     17  N        -12.7030    6.3570   11.3130 N.am   89  GLN89      -0.1979
     18  CA       -12.4090    5.2160   10.4510 C.3    89  GLN89       0.1601
     19  C        -12.6570    3.9370   11.2140 C.2    89  GLN89       0.2287
     20  O        -12.7040    3.9470   12.4550 O.2    89  GLN89      -0.2864
     21  CB       -10.9550    5.2430    9.9430 C.3    89  GLN89       0.0394
     22  CG        -9.8920    5.3030   11.0240 C.3    89  GLN89       0.0908
     23  CD        -9.1620    3.9870   11.3050 C.2    89  GLN89       0.2608
     24  OE1       -9.7150    2.9010   11.2640 O.2    89  GLN89      -0.2717
     25  NE2       -7.9170    4.1140   11.7590 N.am   89  GLN89      -0.0878
     26  N        -11.2210   -0.3570   10.9420 N.3    91  HIS91      -0.1241
     27  CA       -10.3350   -1.3170   10.3180 C.3    91  HIS91       0.1621
     28  C        -10.3920   -2.5980   11.1360 C.2    91  HIS91       0.2264
     29  O        -11.0450   -2.6520   12.1950 O.2    91  HIS91      -0.2867
     30  CB        -8.8930   -0.7870   10.2860 C.3    91  HIS91       0.0745
     31  CG        -8.3310   -0.5540   11.6550 C.ar   91  HIS91       0.0817
     32  ND1       -8.5140    0.6280   12.3340 N.ar   91  HIS91      -0.2268
     33  CD2       -7.6690   -1.3760   12.5030 C.ar   91  HIS91       0.1154
     34  CE1       -7.9620    0.5320   13.5340 C.ar   91  HIS91       0.1986
     35  NE2       -7.4560   -0.6860   13.6730 N.ar   91  HIS91      -0.2212
     36  N         -8.0270   -6.3150   12.4210 N.3    93  HIS93      -0.1241
     37  CA        -6.8110   -7.1160   12.5620 C.3    93  HIS93       0.1621
     38  C         -7.2660   -8.5710   12.4490 C.2    93  HIS93       0.2264
     39  O         -8.3360   -8.9170   12.9580 O.2    93  HIS93      -0.2867
     40  CB        -6.1350   -6.8790   13.9210 C.3    93  HIS93       0.0745
     41  CG        -5.8510   -5.4350   14.1990 C.ar   93  HIS93       0.0817
     42  ND1       -4.6210   -4.8580   13.9850 N.ar   93  HIS93      -0.2268
     43  CD2       -6.6610   -4.4320   14.6260 C.ar   93  HIS93       0.1154
     44  CE1       -4.6810   -3.5700   14.3030 C.ar   93  HIS93       0.1986
     45  NE2       -5.9160   -3.2760   14.6790 N.ar   93  HIS93      -0.2212
     46  N        -12.0000   -2.5670   14.8660 N.3   116  HIS116     -0.1241
     47  CA       -11.7580   -1.3510   15.6320 C.3   116  HIS116      0.1621
     48  C        -12.4420   -0.1790   14.9610 C.2   116  HIS116      0.2264
     49  O        -12.0670    0.2060   13.8470 O.2   116  HIS116     -0.2867
     50  CB       -10.2510   -1.0840   15.7090 C.3   116  HIS116      0.0745
     51  CG        -9.5370   -2.0480   16.5870 C.ar  116  HIS116      0.0817
     52  ND1       -8.1670   -2.2470   16.5590 N.ar  116  HIS116     -0.2268
     53  CD2      -10.0360   -2.8870   17.5250 C.ar  116  HIS116      0.1154
     54  CE1       -7.8630   -3.1630   17.4630 C.ar  116  HIS116      0.1986
     55  NE2       -8.9720   -3.5650   18.0620 N.ar  116  HIS116     -0.2212
     56  N        -12.7850    3.6180   15.3110 N.3   118  VAL118     -0.1245
     57  CA       -11.9330    4.6350   15.9150 C.3   118  VAL118      0.1561
     58  C        -12.6380    5.9750   15.9520 C.2   118  VAL118      0.2260
     59  O        -13.1030    6.4570   14.9240 O.2   118  VAL118     -0.2867
     60  CB       -10.6130    4.7640   15.1130 C.3   118  VAL118      0.0252
     61  CG1       -9.7050    5.8060   15.7400 C.3   118  VAL118      0.0019
     62  CG2       -9.9190    3.4050   14.9670 C.3   118  VAL118      0.0019
     63  N         -8.1730   15.1660   14.8080 N.3   127  PHE127     -0.1227
     64  CA        -7.6590   13.8590   15.1920 C.3   127  PHE127      0.1736
     65  C         -6.1950   13.9270   15.5940 C.2   127  PHE127      0.2596
     66  O         -5.7760   13.2790   16.5510 O.2   127  PHE127     -0.2718
     67  CB        -7.8770   12.9100   14.0170 C.3   127  PHE127      0.0547
     68  CG        -7.4050   11.5200   14.2510 C.ar  127  PHE127     -0.0202
     69  CD1       -8.0470   10.6940   15.1440 C.ar  127  PHE127     -0.0042
     70  CD2       -6.3130   11.0200   13.5670 C.ar  127  PHE127     -0.0042
     71  CE1       -7.6190    9.3910   15.3520 C.ar  127  PHE127     -0.0003
     72  CE2       -5.8870    9.7170   13.7770 C.ar  127  PHE127     -0.0003
     73  CZ        -6.5490    8.9110   14.6740 C.ar  127  PHE127     -0.0000
     74  N         -5.4060   14.7100   14.8610 N.am  128  GLY128     -0.1957
     75  CA        -3.9950   14.8390   15.1640 C.3   128  GLY128      0.1869
     76  C         -3.7200   15.4380   16.5330 C.2   128  GLY128      0.2309
     77  O         -2.7460   15.0890   17.2020 O.2   128  GLY128     -0.2863
     78  N         -4.8300   12.6090   19.3890 N.3   131  VAL131     -0.1245
     79  CA        -3.9350   11.4970   19.7250 C.3   131  VAL131      0.1561
     80  C         -2.8250   11.8910   20.6920 C.2   131  VAL131      0.2260
     81  O         -2.1360   11.0170   21.2390 O.2   131  VAL131     -0.2867
     82  CB        -3.2820   10.8240   18.4940 C.3   131  VAL131      0.0252
     83  CG1       -4.3400   10.2410   17.6020 C.3   131  VAL131      0.0019
     84  CG2       -2.4020   11.7850   17.7230 C.3   131  VAL131      0.0019
     85  N         -8.9550    9.5690   22.2550 N.3   137  LEU137     -0.1245
     86  CA        -9.6140    8.6020   21.3860 C.3   137  LEU137      0.1561
     87  C        -10.4870    7.6630   22.1890 C.2   137  LEU137      0.2260
     88  O        -10.2070    7.3770   23.3570 O.2   137  LEU137     -0.2867
     89  CB        -8.5950    7.7450   20.6230 C.3   137  LEU137      0.0270
     90  CG        -8.1180    8.2780   19.2760 C.3   137  LEU137      0.0019
     91  CD1       -7.5960    9.6780   19.3110 C.3   137  LEU137      0.0001
     92  CD2       -7.0920    7.3350   18.6650 C.3   137  LEU137      0.0001
     93  N        -11.8660    3.7920   21.1580 N.3   139  VAL139     -0.1245
     94  CA       -11.9240    2.7480   20.1430 C.3   139  VAL139      0.1561
     95  C        -12.8750    1.6800   20.6380 C.2   139  VAL139      0.2260
     96  O        -12.7210    1.1600   21.7570 O.2   139  VAL139     -0.2867
     97  CB       -10.5310    2.1690   19.7620 C.3   139  VAL139      0.0252
     98  CG1      -10.7020    1.1440   18.6610 C.3   139  VAL139      0.0019
     99  CG2       -9.5970    3.2570   19.3130 C.3   139  VAL139      0.0019
    100  N         -2.9260    3.1870   21.2770 N.3   194  LEU194     -0.1231
    101  CA        -2.9210    2.6410   19.9300 C.3   194  LEU194      0.1693
    102  C         -2.1900    1.3020   19.9440 C.2   194  LEU194      0.2593
    103  O         -1.1800    1.1550   20.6460 O.2   194  LEU194     -0.2718
    104  CB        -2.1860    3.5690   18.9640 C.3   194  LEU194      0.0284
    105  CG        -2.6870    5.0130   18.8690 C.3   194  LEU194      0.0019
    106  CD1       -1.8250    5.7810   17.8720 C.3   194  LEU194      0.0001
    107  CD2       -4.1610    5.1020   18.4990 C.3   194  LEU194      0.0001
    108  N         -2.6450    0.3440   19.1410 N.am  195  THR195     -0.1939
    109  CA        -1.9950   -0.9680   19.1050 C.3   195  THR195      0.2028
    110  C         -0.9640   -1.0820   17.9860 C.2   195  THR195      0.2643
    111  O         -0.3690   -2.1460   17.8120 O.2   195  THR195     -0.2714
    112  CB        -2.9910   -2.1140   18.9540 C.3   195  THR195      0.1808
    113  OG1       -3.5750   -2.0220   17.6540 O.3   195  THR195     -0.2208
    114  CG2       -4.0730   -2.0790   20.0300 C.3   195  THR195      0.0379
    115  N         -0.7620   -0.0100   17.2360 N.am  196  THR196     -0.1937
    116  CA         0.3280    0.0520   16.2690 C.3   196  THR196      0.2013
    117  C          1.1620    1.2760   16.5760 C.2   196  THR196      0.2484
    118  O          0.6800    2.2240   17.1820 O.2   196  THR196     -0.2729
    119  CB        -0.1690    0.1890   14.8150 C.3   196  THR196      0.1807
    120  OG1       -0.7650    1.4710   14.6320 O.3   196  THR196     -0.2208
    121  CG2       -1.1650   -0.8810   14.4490 C.3   196  THR196      0.0379
    122  N          2.4180    1.2940   16.1100 N.am  197  PRO197     -0.2715
    123  CA         3.2120    2.5220   16.1750 C.3   197  PRO197      0.1521
    124  C          2.3730    3.6810   15.6550 C.2   197  PRO197      0.2440
    125  O          1.6670    3.5230   14.6630 O.2   197  PRO197     -0.2731
    126  CB         4.4200    2.1940   15.2890 C.3   197  PRO197      0.0310
    127  CG         4.6140    0.7220   15.5340 C.3   197  PRO197      0.0237
    128  CD         3.1950    0.1920   15.5150 C.3   197  PRO197      0.0939
    129  N          2.4300    4.8460   16.3040 N.am  198  PRO198     -0.2727
    130  CA         3.3500    5.2390   17.3770 C.3   198  PRO198      0.1402
    131  C          2.9430    4.8200   18.8110 C.2   198  PRO198      0.2269
    132  O          3.5990    5.2720   19.7500 O.2   198  PRO198     -0.2865
    133  CB         3.3660    6.7590   17.2480 C.3   198  PRO198      0.0296
    134  CG         2.0310    7.1080   16.7190 C.3   198  PRO198      0.0237
    135  CD         1.6730    6.0020   15.7800 C.3   198  PRO198      0.0939
    136  N          0.6870    5.5140   20.9040 N.3   200  LEU200     -0.1245
    137  CA         0.3610    6.6170   21.7980 C.3   200  LEU200      0.1561
    138  C         -0.7020    6.2140   22.8140 C.2   200  LEU200      0.2260
    139  O         -1.6770    5.5210   22.4950 O.2   200  LEU200     -0.2867
    140  CB        -0.1240    7.8230   20.9910 C.3   200  LEU200      0.0270
    141  CG         0.9450    8.4260   20.0730 C.3   200  LEU200      0.0019
    142  CD1        0.3400    9.4630   19.1410 C.3   200  LEU200      0.0001
    143  CD2        2.0880    9.0360   20.8760 C.3   200  LEU200      0.0001
    144  N         -6.0100    6.2640   24.2740 N.3   203  VAL203     -0.1245
    145  CA        -7.2550    5.5670   23.9480 C.3   203  VAL203      0.1561
    146  C         -8.0190    5.0900   25.1730 C.2   203  VAL203      0.2260
    147  O         -7.4540    4.4090   26.0380 O.2   203  VAL203     -0.2867
    148  CB        -6.9810    4.3130   23.0710 C.3   203  VAL203      0.0252
    149  CG1       -8.2910    3.6110   22.7340 C.3   203  VAL203      0.0019
    150  CG2       -6.2180    4.6690   21.7880 C.3   203  VAL203      0.0019
    151  N        -10.4210    2.3010   25.6900 N.3   205  TRP205     -0.1241
    152  CA       -10.8630    1.0930   24.9980 C.3   205  TRP205      0.1605
    153  C        -12.2240    0.6680   25.5200 C.2   205  TRP205      0.2264
    154  O        -12.4420    0.6260   26.7290 O.2   205  TRP205     -0.2867
    155  CB        -9.8380   -0.0490   25.1860 C.3   205  TRP205      0.0550
    156  CG        -8.7460    0.0660   24.1960 C.ar  205  TRP205      0.0003
    157  CD1       -7.5320    0.6520   24.3630 C.ar  205  TRP205      0.0946
    158  CD2       -8.8180   -0.3310   22.8280 C.ar  205  TRP205      0.0152
    159  NE1       -6.8340    0.6390   23.1780 N.ar  205  TRP205     -0.2442
    160  CE2       -7.6040    0.0320   22.2270 C.ar  205  TRP205      0.0810
    161  CE3       -9.7860   -0.9790   22.0550 C.ar  205  TRP205      0.0012
    162  CZ2       -7.3360   -0.2190   20.8900 C.ar  205  TRP205      0.0191
    163  CZ3       -9.5170   -1.2340   20.7300 C.ar  205  TRP205      0.0001
    164  CH2       -8.3020   -0.8560   20.1570 C.ar  205  TRP205      0.0015
@<TRIPOS>BOND
     1     4     3    2
     2     3     2    1
     3     1     2    1
     4     2     5    1
     5     5     6    1
     6     6     8   am
     7     6     7    2
     8    12    11    2
     9    21    18    1
    10    21    22    1
    11    30    27    1
    12    30    31    1
    13    27    26    1
    14    27    28    1
    15    18    19    1
    16    18    17    1
    17    11    17   am
    18    11    10    1
    19    22    23    1
    20    28    29    2
    21    14    16    1
    22    14    13    1
    23    19    20    2
    24    24    23    2
    25    23    25   am
    26    31    32   ar
    27    31    33   ar
    28    10    13    1
    29    10     9    1
    30    13    15    1
    31    32    34   ar
    32    36    37    1
    33    38    37    1
    34    38    39    2
    35    33    35   ar
    36    37    40    1
    37    34    35   ar
    38    70    72   ar
    39    70    68   ar
    40    72    73   ar
    41    49    48    2
    42    40    41    1
    43    42    41   ar
    44    42    44   ar
    45    67    68    1
    46    67    64    1
    47    41    43   ar
    48    68    69   ar
    49    44    45   ar
    50   121   119    1
    51    43    45   ar
    52   120   119    1
    53   125   124    2
    54    73    71   ar
    55    63    64    1
    56   119   116    1
    57    74    75    1
    58    74    65   am
    59    46    47    1
    60    59    58    2
    61    48    47    1
    62    62    60    1
    63    60    61    1
    64    60    57    1
    65    69    71   ar
    66    75    76    1
    67    64    65    1
    68   126   127    1
    69   126   123    1
    70    56    57    1
    71   128   127    1
    72   128   122    1
    73    65    66    2
    74    47    50    1
    75   124   123    1
    76   124   129   am
    77    50    51    1
    78   135   129    1
    79   135   134    1
    80    57    58    1
    81   122   123    1
    82   122   117   am
    83   116   117    1
    84   116   115    1
    85   129   130    1
    86    76    77    2
    87    52    51   ar
    88    52    54   ar
    89   117   118    2
    90    51    53   ar
    91   134   133    1
    92   115   110   am
    93   133   130    1
    94   130   131    1
    95    54    55   ar
    96    53    55   ar
    97    83    82    1
    98   113   112    1
    99    84    82    1
   100   111   110    2
   101   106   105    1
   102   110   109    1
   103    82    79    1
   104   107   105    1
   105    98    97    1
   106    92    90    1
   107   131   132    2
   108   105   104    1
   109   112   109    1
   110   112   114    1
   111   104   101    1
   112   109   108    1
   113   108   102   am
   114   142   141    1
   115    90    91    1
   116    90    89    1
   117    99    97    1
   118    78    79    1
   119    79    80    1
   120    97    94    1
   121   101   102    1
   122   101   100    1
   123   102   103    2
   124   141   143    1
   125   141   140    1
   126    94    95    1
   127    94    93    1
   128   164   163   ar
   129   164   162   ar
   130    89    86    1
   131    95    96    2
   132    80    81    2
   133   163   161   ar
   134   162   160   ar
   135   136   137    1
   136   140   137    1
   137    86    87    1
   138    86    85    1
   139   150   148    1
   140   137   138    1
   141   161   158   ar
   142    87    88    2
   143   160   158   ar
   144   160   159   ar
   145   139   138    2
   146   149   148    1
   147   158   156   ar
   148   148   145    1
   149   159   157   ar
   150   145   144    1
   151   145   146    1
   152   156   157   ar
   153   156   155    1
   154   152   155    1
   155   152   153    1
   156   152   151    1
   157   146   147    2
   158   153   154    2
