@<TRIPOS>MOLECULE
tmp/4itpA00.pdb
 148 143 0 0 0
SMALL
GASTEIGER

@<TRIPOS>ATOM
      1  N          8.5770    6.1030   11.3040 N.3    89  GLN89      -0.1245
      2  CA         8.8440    4.9580   10.4470 C.3    89  GLN89       0.1566
      3  C          8.5740    3.6640   11.1960 C.2    89  GLN89       0.2260
      4  O          8.5340    3.6640   12.4240 O.2    89  GLN89      -0.2867
      5  CB        10.2920    4.9880    9.9240 C.3    89  GLN89       0.0367
      6  CG        11.3860    5.0950   11.0120 C.3    89  GLN89       0.0905
      7  CD        12.1160    3.7910   11.2780 C.2    89  GLN89       0.2608
      8  OE1       11.5330    2.7130   11.2210 O.2    89  GLN89      -0.2717
      9  NE2       13.4090    3.8880   11.5740 N.am   89  GLN89      -0.0878
     10  N          9.9410   -0.6540   10.9530 N.3    91  HIS91      -0.1241
     11  CA        10.8390   -1.5970   10.3170 C.3    91  HIS91       0.1621
     12  C         10.7970   -2.8730   11.1280 C.2    91  HIS91       0.2264
     13  O         10.1330   -2.9300   12.1650 O.2    91  HIS91      -0.2867
     14  CB        12.2590   -1.0490   10.3050 C.3    91  HIS91       0.0745
     15  CG        12.8170   -0.8200   11.6790 C.ar   91  HIS91       0.0817
     16  ND1       12.6510    0.3660   12.3550 N.ar   91  HIS91      -0.2268
     17  CD2       13.4960   -1.6410   12.5020 C.ar   91  HIS91       0.1154
     18  CE1       13.2160    0.2790   13.5380 C.ar   91  HIS91       0.1986
     19  NE2       13.7480   -0.9430   13.6580 N.ar   91  HIS91      -0.2212
     20  N         13.1510   -6.5760   12.4160 N.3    93  HIS93      -0.1241
     21  CA        14.3720   -7.3640   12.5210 C.3    93  HIS93       0.1621
     22  C         13.9680   -8.8280   12.4080 C.2    93  HIS93       0.2264
     23  O         12.9430   -9.2300   12.9530 O.2    93  HIS93      -0.2867
     24  CB        15.0460   -7.1120   13.8630 C.3    93  HIS93       0.0745
     25  CG        15.3310   -5.6580   14.1240 C.ar   93  HIS93       0.0817
     26  ND1       16.5550   -5.0900   13.8720 N.ar   93  HIS93      -0.2268
     27  CD2       14.5300   -4.6680   14.5730 C.ar   93  HIS93       0.1154
     28  CE1       16.5170   -3.8060   14.1920 C.ar   93  HIS93       0.1986
     29  NE2       15.2820   -3.5200   14.6080 N.ar   93  HIS93      -0.2212
     30  N          9.1840   -2.8560   14.8410 N.3   116  HIS116     -0.1241
     31  CA         9.4290   -1.6390   15.5850 C.3   116  HIS116      0.1621
     32  C          8.7530   -0.4630   14.9100 C.2   116  HIS116      0.2264
     33  O          9.1370   -0.0680   13.7990 O.2   116  HIS116     -0.2867
     34  CB        10.9370   -1.3740   15.6610 C.3   116  HIS116      0.0745
     35  CG        11.6610   -2.3380   16.5600 C.ar  116  HIS116      0.0817
     36  ND1       13.0200   -2.4850   16.5330 N.ar  116  HIS116     -0.2268
     37  CD2       11.1830   -3.1880   17.4930 C.ar  116  HIS116      0.1154
     38  CE1       13.3730   -3.4180   17.4320 C.ar  116  HIS116      0.1986
     39  NE2       12.2700   -3.8460   18.0190 N.ar  116  HIS116     -0.2212
     40  N          8.4770    3.2790   15.2360 N.3   118  VAL118     -0.1245
     41  CA         9.3140    4.3010   15.8640 C.3   118  VAL118      0.1561
     42  C          8.6100    5.6460   15.9110 C.2   118  VAL118      0.2260
     43  O          8.1710    6.1590   14.8680 O.2   118  VAL118     -0.2867
     44  CB        10.5990    4.4750   15.0640 C.3   118  VAL118      0.0252
     45  CG1       11.5260    5.4680   15.7540 C.3   118  VAL118      0.0019
     46  CG2       11.2920    3.1370   14.8720 C.3   118  VAL118      0.0019
     47  N         13.0850   14.6860   14.7820 N.3   127  PHE127     -0.1227
     48  CA        13.6420   13.4070   15.1770 C.3   127  PHE127      0.1736
     49  C         15.1020   13.5240   15.6170 C.2   127  PHE127      0.2596
     50  O         15.5180   12.8650   16.5710 O.2   127  PHE127     -0.2718
     51  CB        13.5160   12.4090   14.0290 C.3   127  PHE127      0.0547
     52  CG        14.0680   11.0560   14.3510 C.ar  127  PHE127     -0.0202
     53  CD1       13.3060   10.1410   15.0610 C.ar  127  PHE127     -0.0042
     54  CD2       15.3320   10.6880   13.9350 C.ar  127  PHE127     -0.0042
     55  CE1       13.8030    8.8890   15.3620 C.ar  127  PHE127     -0.0003
     56  CE2       15.8410    9.4410   14.2330 C.ar  127  PHE127     -0.0003
     57  CZ        15.0710    8.5360   14.9540 C.ar  127  PHE127     -0.0000
     58  N         15.8760   14.3600   14.9260 N.am  128  GLY128     -0.1957
     59  CA        17.2850   14.5190   15.2440 C.3   128  GLY128      0.1869
     60  C         17.5040   15.0840   16.6340 C.2   128  GLY128      0.2309
     61  O         18.4260   14.6700   17.3440 O.2   128  GLY128     -0.2863
     62  N         16.4080   12.2220   19.4480 N.3   131  VAL131     -0.1245
     63  CA        17.3110   11.1350   19.8290 C.3   131  VAL131      0.1561
     64  C         18.3890   11.5880   20.8220 C.2   131  VAL131      0.2260
     65  O         19.0760   10.7630   21.4130 O.2   131  VAL131     -0.2867
     66  CB        17.9560   10.4430   18.6050 C.3   131  VAL131      0.0252
     67  CG1       16.8710    9.9630   17.6610 C.3   131  VAL131      0.0019
     68  CG2       18.9030   11.3960   17.8800 C.3   131  VAL131      0.0019
     69  N         12.2570    9.2780   22.2970 N.3   137  LEU137     -0.1245
     70  CA        11.6360    8.3020   21.4250 C.3   137  LEU137      0.1561
     71  C         10.7530    7.3520   22.1970 C.2   137  LEU137      0.2260
     72  O         10.9870    7.0740   23.3820 O.2   137  LEU137     -0.2867
     73  CB        12.7150    7.4900   20.7010 C.3   137  LEU137      0.0270
     74  CG        13.1090    7.9380   19.2910 C.3   137  LEU137      0.0019
     75  CD1       13.6000    9.3720   19.2650 C.3   137  LEU137      0.0001
     76  CD2       14.1610    7.0020   18.6910 C.3   137  LEU137      0.0001
     77  N          9.3440    3.5370   21.0830 N.3   139  VAL139     -0.1245
     78  CA         9.2650    2.5090   20.0500 C.3   139  VAL139      0.1561
     79  C          8.3070    1.4110   20.5120 C.2   139  VAL139      0.2260
     80  O          8.4390    0.8730   21.6170 O.2   139  VAL139     -0.2867
     81  CB        10.6550    1.9250   19.6730 C.3   139  VAL139      0.0252
     82  CG1       10.5110    0.8950   18.5440 C.3   139  VAL139      0.0019
     83  CG2       11.5890    3.0360   19.2240 C.3   139  VAL139      0.0019
     84  N         18.2010    2.9080   21.2310 N.3   194  LEU194     -0.1231
     85  CA        18.2540    2.3970   19.8600 C.3   194  LEU194      0.1693
     86  C         18.9810    1.0500   19.8770 C.2   194  LEU194      0.2593
     87  O         19.9840    0.8850   20.5750 O.2   194  LEU194     -0.2718
     88  CB        19.0260    3.3780   18.9670 C.3   194  LEU194      0.0284
     89  CG        18.3340    4.4850   18.1640 C.3   194  LEU194      0.0019
     90  CD1       16.9490    4.8310   18.6820 C.3   194  LEU194      0.0001
     91  CD2       19.2130    5.7390   18.0670 C.3   194  LEU194      0.0001
     92  N         18.5070    0.0800   19.1020 N.am  195  THR195     -0.1939
     93  CA        19.1760   -1.2280   19.0720 C.3   195  THR195      0.2028
     94  C         20.2050   -1.3700   17.9510 C.2   195  THR195      0.2643
     95  O         20.7790   -2.4540   17.7550 O.2   195  THR195     -0.2714
     96  CB        18.1640   -2.3610   18.9330 C.3   195  THR195      0.1808
     97  OG1       17.5350   -2.2530   17.6530 O.3   195  THR195     -0.2208
     98  CG2       17.1040   -2.2770   20.0470 C.3   195  THR195      0.0379
     99  N         20.4100   -0.2950   17.1940 N.am  196  THR196     -0.1937
    100  CA        21.5060   -0.2280   16.2400 C.3   196  THR196      0.2013
    101  C         22.3130    1.0140   16.5600 C.2   196  THR196      0.2484
    102  O         21.8160    1.9140   17.2540 O.2   196  THR196     -0.2729
    103  CB        21.0000   -0.1150   14.7890 C.3   196  THR196      0.1807
    104  OG1       20.5300    1.2190   14.5510 O.3   196  THR196     -0.2208
    105  CG2       19.8840   -1.1200   14.5190 C.3   196  THR196      0.0379
    106  N         23.5490    1.0800   16.0500 N.am  197  PRO197     -0.2715
    107  CA        24.2810    2.3390   16.1540 C.3   197  PRO197      0.1521
    108  C         23.3970    3.4580   15.6170 C.2   197  PRO197      0.2440
    109  O         22.6620    3.2320   14.6450 O.2   197  PRO197     -0.2731
    110  CB        25.4950    2.0890   15.2500 C.3   197  PRO197      0.0310
    111  CG        25.8060    0.6380   15.5140 C.3   197  PRO197      0.0237
    112  CD        24.3970   -0.0010   15.5090 C.3   197  PRO197      0.0939
    113  N         23.4520    4.6480   16.2310 N.am  198  PRO198     -0.2727
    114  CA        24.3670    5.0690   17.3040 C.3   198  PRO198      0.1402
    115  C         24.0190    4.6140   18.7260 C.2   198  PRO198      0.2269
    116  O         24.6720    5.1030   19.6560 O.2   198  PRO198     -0.2865
    117  CB        24.3030    6.6000   17.2240 C.3   198  PRO198      0.0296
    118  CG        22.9210    6.8860   16.7170 C.3   198  PRO198      0.0237
    119  CD        22.5900    5.7550   15.7710 C.3   198  PRO198      0.0939
    120  N         21.8380    5.2670   20.8760 N.3   200  LEU200     -0.1245
    121  CA        21.5170    6.3350   21.8210 C.3   200  LEU200      0.1561
    122  C         20.4410    5.9320   22.8360 C.2   200  LEU200      0.2260
    123  O         19.4600    5.2550   22.5130 O.2   200  LEU200     -0.2867
    124  CB        21.1090    7.6090   21.0730 C.3   200  LEU200      0.0270
    125  CG        22.2020    8.1990   20.1660 C.3   200  LEU200      0.0019
    126  CD1       21.6530    9.3150   19.3040 C.3   200  LEU200      0.0001
    127  CD2       23.3680    8.7160   20.9880 C.3   200  LEU200      0.0001
    128  N         15.1210    5.9570   24.2350 N.3   203  VAL203     -0.1245
    129  CA        13.8910    5.2420   23.8930 C.3   203  VAL203      0.1561
    130  C         13.1120    4.7730   25.1150 C.2   203  VAL203      0.2260
    131  O         13.6690    4.1350   26.0060 O.2   203  VAL203     -0.2867
    132  CB        14.1790    3.9870   23.0240 C.3   203  VAL203      0.0252
    133  CG1       12.8700    3.2790   22.6670 C.3   203  VAL203      0.0019
    134  CG2       14.9530    4.3570   21.7380 C.3   203  VAL203      0.0019
    135  N         10.7640    1.9970   25.6860 N.3   205  TRP205     -0.1241
    136  CA        10.3330    0.8030   24.9770 C.3   205  TRP205      0.1605
    137  C          8.9830    0.3530   25.4890 C.2   205  TRP205      0.2264
    138  O          8.7580    0.2920   26.6910 O.2   205  TRP205     -0.2867
    139  CB        11.3630   -0.3190   25.1400 C.3   205  TRP205      0.0550
    140  CG        12.4600   -0.1930   24.1310 C.ar  205  TRP205      0.0003
    141  CD1       13.6920    0.3620   24.3160 C.ar  205  TRP205      0.0946
    142  CD2       12.3870   -0.5920   22.7580 C.ar  205  TRP205      0.0152
    143  NE1       14.3990    0.3220   23.1340 N.ar  205  TRP205     -0.2442
    144  CE2       13.6290   -0.2710   22.1680 C.ar  205  TRP205      0.0810
    145  CE3       11.4090   -1.2160   21.9720 C.ar  205  TRP205      0.0012
    146  CZ2       13.9120   -0.5400   20.8250 C.ar  205  TRP205      0.0191
    147  CZ3       11.6940   -1.4960   20.6410 C.ar  205  TRP205      0.0001
    148  CH2       12.9370   -1.1540   20.0820 C.ar  205  TRP205      0.0015
@<TRIPOS>BOND
     1     5     2    1
     2     5     6    1
     3    14    11    1
     4    14    15    1
     5    11    10    1
     6    11    12    1
     7     2     3    1
     8     2     1    1
     9     6     7    1
    10    12    13    2
    11     3     4    2
    12     8     7    2
    13     7     9   am
    14    15    16   ar
    15    15    17   ar
    16    16    18   ar
    17    22    21    1
    18    22    23    2
    19    20    21    1
    20    17    19   ar
    21    21    24    1
    22    18    19   ar
    23    33    32    2
    24    24    25    1
    25    26    25   ar
    26    26    28   ar
    27    54    56   ar
    28    54    52   ar
    29    51    52    1
    30    51    48    1
    31    25    27   ar
    32    28    29   ar
    33    56    57   ar
    34    52    53   ar
    35   105   103    1
    36   104   103    1
    37    27    29   ar
    38   109   108    2
    39    47    48    1
    40   103   100    1
    41    30    31    1
    42    43    42    2
    43    46    44    1
    44    32    31    1
    45    58    59    1
    46    58    49   am
    47    57    55   ar
    48    53    55   ar
    49    44    45    1
    50    44    41    1
    51    48    49    1
    52    40    41    1
    53    59    60    1
    54   110   111    1
    55   110   107    1
    56   112   111    1
    57   112   106    1
    58    31    34    1
    59   108   107    1
    60   108   113   am
    61    49    50    2
    62    34    35    1
    63   119   113    1
    64   119   118    1
    65    41    42    1
    66   106   107    1
    67   106   101   am
    68   113   114    1
    69   100   101    1
    70   100    99    1
    71    36    35   ar
    72    36    38   ar
    73   101   102    2
    74    35    37   ar
    75    60    61    2
    76   118   117    1
    77    99    94   am
    78   117   114    1
    79   114   115    1
    80    38    39   ar
    81    37    39   ar
    82    97    96    1
    83    67    66    1
    84    95    94    2
    85    68    66    1
    86    94    93    1
    87    91    89    1
    88    89    90    1
    89    89    88    1
    90    82    81    1
    91    66    63    1
    92    76    74    1
    93   115   116    2
    94    96    93    1
    95    96    98    1
    96    88    85    1
    97    93    92    1
    98    92    86   am
    99    83    81    1
   100    75    74    1
   101    74    73    1
   102   126   125    1
   103    62    63    1
   104    81    78    1
   105    63    64    1
   106    85    86    1
   107    85    84    1
   108    86    87    2
   109    78    79    1
   110    78    77    1
   111   148   147   ar
   112   148   146   ar
   113   125   127    1
   114   125   124    1
   115    79    80    2
   116   147   145   ar
   117    73    70    1
   118    64    65    2
   119   146   144   ar
   120   120   121    1
   121   124   121    1
   122    70    71    1
   123    70    69    1
   124   134   132    1
   125   121   122    1
   126   145   142   ar
   127   144   142   ar
   128   144   143   ar
   129    71    72    2
   130   123   122    2
   131   133   132    1
   132   142   140   ar
   133   132   129    1
   134   143   141   ar
   135   129   128    1
   136   129   130    1
   137   140   141   ar
   138   140   139    1
   139   136   139    1
   140   136   137    1
   141   136   135    1
   142   130   131    2
   143   137   138    2
