@<TRIPOS>MOLECULE
tmp/4itrA00.pdb
 138 129 0 0 0
SMALL
GASTEIGER

@<TRIPOS>ATOM
      1  N         14.2510  -24.5830  -35.9090 N.3   183  LYS183     -0.1231
      2  CA        13.5550  -25.8570  -35.8350 C.3   183  LYS183      0.1693
      3  C         13.4550  -26.4040  -37.2490 C.2   183  LYS183      0.2591
      4  O         13.2950  -25.6400  -38.2040 O.2   183  LYS183     -0.2718
      5  CB        12.1610  -25.7000  -35.2090 C.3   183  LYS183      0.0285
      6  CG        11.1800  -24.8670  -36.0330 C.3   183  LYS183      0.0035
      7  CD         9.9420  -24.4650  -35.2300 C.3   183  LYS183      0.0206
      8  CE         8.9750  -25.6160  -35.0280 C.3   183  LYS183      0.1093
      9  NZ         7.7340  -25.1660  -34.3320 N.3   183  LYS183     -0.1314
     10  N         13.5750  -27.7210  -37.3800 N.am  184  GLU184     -0.1979
     11  CA        13.3830  -28.3950  -38.6610 C.3   184  GLU184      0.1602
     12  C         14.3040  -27.8520  -39.7580 C.2   184  GLU184      0.2287
     13  O         13.8670  -27.6250  -40.8880 O.2   184  GLU184     -0.2864
     14  CB        11.9100  -28.3030  -39.0850 C.3   184  GLU184      0.0415
     15  CG        10.9370  -28.4770  -37.9200 C.3   184  GLU184      0.1163
     16  CD         9.5280  -28.8210  -38.3600 C.2   184  GLU184      0.3649
     17  OE1        9.1440  -30.0030  -38.2350 O.co2 184  GLU184     -0.2457
     18  OE2        8.8010  -27.9120  -38.8160 O.co2 184  GLU184     -0.2457
     19  N         15.5170  -25.0000  -40.2540 N.3   186  ALA186     -0.1245
     20  CA        15.2110  -23.6600  -40.7460 C.3   186  ALA186      0.1562
     21  C         16.2910  -22.6360  -40.3930 C.2   186  ALA186      0.2260
     22  O         16.9360  -22.7310  -39.3470 O.2   186  ALA186     -0.2867
     23  CB        13.8610  -23.2020  -40.2260 C.3   186  ALA186      0.0290
     24  N         16.4480  -18.6960  -39.6800 N.3   188  PHE188     -0.1241
     25  CA        15.6760  -17.4810  -39.4470 C.3   188  PHE188      0.1605
     26  C         16.6060  -16.2960  -39.2130 C.2   188  PHE188      0.2264
     27  O         17.8120  -16.4730  -39.0400 O.2   188  PHE188     -0.2867
     28  CB        14.7490  -17.6510  -38.2400 C.3   188  PHE188      0.0534
     29  CG        13.7340  -18.7520  -38.3930 C.ar  188  PHE188     -0.0203
     30  CD1       12.7340  -18.6680  -39.3510 C.ar  188  PHE188     -0.0042
     31  CD2       13.7650  -19.8590  -37.5570 C.ar  188  PHE188     -0.0042
     32  CE1       11.7940  -19.6760  -39.4830 C.ar  188  PHE188     -0.0003
     33  CE2       12.8290  -20.8690  -37.6810 C.ar  188  PHE188     -0.0003
     34  CZ        11.8420  -20.7770  -38.6450 C.ar  188  PHE188     -0.0000
     35  N          7.8410  -15.1830  -42.1800 N.3   227  ILE227     -0.1245
     36  CA         8.2930  -16.4890  -41.7080 C.3   227  ILE227      0.1561
     37  C          9.8200  -16.5560  -41.6640 C.2   227  ILE227      0.2260
     38  O         10.4010  -17.1050  -40.7250 O.2   227  ILE227     -0.2867
     39  CB         7.7050  -17.6270  -42.5830 C.3   227  ILE227      0.0252
     40  CG1        6.3280  -18.0400  -42.0510 C.3   227  ILE227      0.0019
     41  CG2        8.6330  -18.8360  -42.6230 C.3   227  ILE227      0.0019
     42  CD1        5.4760  -18.7950  -43.0510 C.3   227  ILE227      0.0001
     43  N         10.7550  -14.2220  -38.5810 N.3   230  ALA230     -0.1245
     44  CA        10.3280  -14.8800  -37.3390 C.3   230  ALA230      0.1562
     45  C         10.7760  -14.1690  -36.0590 C.2   230  ALA230      0.2260
     46  O         11.5120  -14.7430  -35.2570 O.2   230  ALA230     -0.2867
     47  CB        10.7890  -16.3360  -37.3260 C.3   230  ALA230      0.0290
     48  N          9.1750  -15.1720  -30.1880 N.3   233  ALA233     -0.1231
     49  CA         9.6350  -16.4180  -29.5820 C.3   233  ALA233      0.1694
     50  C          8.7970  -17.5970  -30.0560 C.2   233  ALA233      0.2592
     51  O          9.2780  -18.7310  -30.1340 O.2   233  ALA233     -0.2718
     52  CB         9.5820  -16.3100  -28.0730 C.3   233  ALA233      0.0304
     53  N          7.5380  -17.3130  -30.3730 N.am  234  GLU234     -0.1966
     54  CA         6.5840  -18.3450  -30.7480 C.3   234  GLU234      0.1733
     55  C          5.5010  -17.7710  -31.6600 C.2   234  GLU234      0.2617
     56  O          5.3130  -16.5520  -31.7260 O.2   234  GLU234     -0.2715
     57  CB         5.9350  -18.9170  -29.4860 C.3   234  GLU234      0.0429
     58  CG         5.7430  -20.4210  -29.4980 C.3   234  GLU234      0.1163
     59  CD         7.0080  -21.1740  -29.1480 C.2   234  GLU234      0.3649
     60  OE1        7.6970  -20.7850  -28.1800 O.co2 234  GLU234     -0.2457
     61  OE2        7.3090  -22.1660  -29.8400 O.co2 234  GLU234     -0.2457
     62  N          4.7920  -18.6530  -32.3610 N.am  235  GLY235     -0.1940
     63  CA         3.6100  -18.2720  -33.1180 C.3   235  GLY235      0.2014
     64  C          3.8520  -17.4210  -34.3520 C.2   235  GLY235      0.2639
     65  O          2.9470  -16.7230  -34.8140 O.2   235  GLY235     -0.2714
     66  N          5.0670  -17.4780  -34.8900 N.am  236  ASN236     -0.1958
     67  CA         5.3990  -16.7190  -36.0910 C.3   236  ASN236      0.1819
     68  C          4.6260  -17.2070  -37.3100 C.2   236  ASN236      0.2621
     69  O          4.2190  -16.4090  -38.1580 O.2   236  ASN236     -0.2715
     70  CB         6.9060  -16.7680  -36.3610 C.3   236  ASN236      0.1195
     71  CG         7.7120  -16.0730  -35.2820 C.2   236  ASN236      0.2630
     72  OD1        7.7840  -14.8460  -35.2430 O.2   236  ASN236     -0.2716
     73  ND2        8.3200  -16.8540  -34.4000 N.am  236  ASN236     -0.0877
     74  N          4.4220  -18.5190  -37.3880 N.am  237  GLY237     -0.1954
     75  CA         3.6950  -19.1200  -38.4940 C.3   237  GLY237      0.1869
     76  C          2.2190  -18.7680  -38.4980 C.2   237  GLY237      0.2309
     77  O          1.6530  -18.4330  -39.5430 O.2   237  GLY237     -0.2863
     78  N          0.2550  -16.1550  -41.2370 N.3   241  ARG241     -0.1245
     79  CA        -0.9030  -16.6190  -41.9950 C.3   241  ARG241      0.1563
     80  C         -2.1420  -15.7540  -41.7710 C.2   241  ARG241      0.2260
     81  O         -2.9460  -15.5680  -42.6860 O.2   241  ARG241     -0.2867
     82  CB        -1.1810  -18.0970  -41.6940 C.3   241  ARG241      0.0307
     83  CG        -0.0990  -19.0130  -42.2570 C.3   241  ARG241      0.0489
     84  CD        -0.2390  -20.4750  -41.8580 C.3   241  ARG241      0.2205
     85  NE         0.8060  -21.2640  -42.5110 N.pl3 241  ARG241     -0.0865
     86  CZ         1.9410  -21.6400  -41.9290 C.cat 241  ARG241      0.5346
     87  NH1        2.1790  -21.3270  -40.6620 N.pl3 241  ARG241      0.1354
     88  NH2        2.8390  -22.3390  -42.6090 N.pl3 241  ARG241      0.1354
     89  N         -0.7490  -23.7050  -46.1570 N.3   258  LYS258     -0.1245
     90  CA         0.6910  -23.9020  -46.2740 C.3   258  LYS258      0.1561
     91  C          1.0550  -24.3130  -47.6910 C.2   258  LYS258      0.2260
     92  O          0.1770  -24.5170  -48.5320 O.2   258  LYS258     -0.2867
     93  CB         1.1790  -24.9750  -45.2960 C.3   258  LYS258      0.0271
     94  CG         0.9780  -24.6390  -43.8270 C.3   258  LYS258      0.0035
     95  CD         1.7070  -25.6400  -42.9410 C.3   258  LYS258      0.0206
     96  CE         1.6260  -25.2640  -41.4710 C.3   258  LYS258      0.1093
     97  NZ         2.3270  -26.2700  -40.6250 N.3   258  LYS258     -0.1314
     98  N          7.7610  -26.2720  -49.0850 N.3   264  GLU264     -0.1231
     99  CA         7.8900  -25.3740  -47.9340 C.3   264  GLU264      0.1684
    100  C          9.3320  -25.1080  -47.4570 C.2   264  GLU264      0.2434
    101  O          9.6810  -23.9630  -47.1700 O.2   264  GLU264     -0.2733
    102  CB         7.0120  -25.8470  -46.7670 C.3   264  GLU264      0.0402
    103  CG         6.8080  -24.7980  -45.6810 C.3   264  GLU264      0.1161
    104  CD         5.5600  -23.9620  -45.8930 C.2   264  GLU264      0.3649
    105  OE1        4.4620  -24.5460  -46.0000 O.co2 264  GLU264     -0.2457
    106  OE2        5.6730  -22.7190  -45.9420 O.co2 264  GLU264     -0.2457
    107  N         10.1770  -26.1540  -47.3700 N.am  265  PRO265     -0.2729
    108  CA        11.5420  -25.8570  -46.9140 C.3   265  PRO265      0.1401
    109  C         12.4010  -25.1610  -47.9750 C.2   265  PRO265      0.2269
    110  O         13.5620  -24.8520  -47.7020 O.2   265  PRO265     -0.2865
    111  CB        12.1190  -27.2450  -46.6050 C.3   265  PRO265      0.0296
    112  CG        10.9310  -28.1420  -46.4460 C.3   265  PRO265      0.0237
    113  CD         9.9200  -27.6060  -47.4030 C.3   265  PRO265      0.0939
    114  N         11.4890  -22.2620  -49.3610 N.3   267  ILE267     -0.1231
    115  CA        11.1310  -20.8430  -49.3570 C.3   267  ILE267      0.1692
    116  C         12.0030  -19.9840  -48.4320 C.2   267  ILE267      0.2591
    117  O         12.0340  -18.7580  -48.5630 O.2   267  ILE267     -0.2718
    118  CB         9.6270  -20.6280  -49.0440 C.3   267  ILE267      0.0266
    119  CG1        9.3450  -20.7770  -47.5460 C.3   267  ILE267      0.0019
    120  CG2        8.7690  -21.5920  -49.8620 C.3   267  ILE267      0.0020
    121  CD1        7.9290  -20.3870  -47.1540 C.3   267  ILE267      0.0001
    122  N         12.6980  -20.6270  -47.4970 N.am  268  ILE268     -0.1980
    123  CA        13.7090  -19.9570  -46.6790 C.3   268  ILE268      0.1595
    124  C         14.9690  -20.8260  -46.6380 C.2   268  ILE268      0.2287
    125  O         14.8910  -22.0370  -46.8630 O.2   268  ILE268     -0.2864
    126  CB        13.2030  -19.6500  -45.2370 C.3   268  ILE268      0.0276
    127  CG1       12.9650  -20.9320  -44.4390 C.3   268  ILE268      0.0022
    128  CG2       11.9400  -18.7890  -45.2660 C.3   268  ILE268      0.0022
    129  CD1       12.5010  -20.6720  -43.0090 C.3   268  ILE268      0.0001
    130  N         18.0770  -23.1550  -45.4460 N.3   270  GLN270     -0.1245
    131  CA        18.0750  -24.2830  -44.5250 C.3   270  GLN270      0.1566
    132  C         19.4830  -24.6010  -44.0310 C.2   270  GLN270      0.2260
    133  O         20.4690  -24.2580  -44.6820 O.2   270  GLN270     -0.2867
    134  CB        17.4690  -25.5180  -45.1950 C.3   270  GLN270      0.0367
    135  CG        16.1140  -25.2810  -45.8540 C.3   270  GLN270      0.0905
    136  CD        14.9730  -25.1560  -44.8570 C.2   270  GLN270      0.2608
    137  OE1       14.7070  -26.0730  -44.0800 O.2   270  GLN270     -0.2717
    138  NE2       14.2890  -24.0170  -44.8800 N.am  270  GLN270     -0.0878
@<TRIPOS>BOND
     1   120   118    1
     2   114   115    1
     3   115   118    1
     4   115   116    1
     5    98    99    1
     6   118   119    1
     7   117   116    2
     8    92    91    2
     9   116   122   am
    10   109   110    2
    11   109   108    1
    12    99   100    1
    13    99   102    1
    14    91    90    1
    15   119   121    1
    16   122   123    1
    17   100   107   am
    18   100   101    2
    19   113   107    1
    20   113   112    1
    21   107   108    1
    22   108   111    1
    23   125   124    2
    24   102   103    1
    25   123   124    1
    26   123   126    1
    27   111   112    1
    28    90    89    1
    29    90    93    1
    30   105   104   ar
    31   106   104   ar
    32   104   103    1
    33   135   134    1
    34   135   136    1
    35   130   131    1
    36    93    94    1
    37   128   126    1
    38   126   127    1
    39   134   131    1
    40   138   136   am
    41   136   137    2
    42   133   132    2
    43   131   132    1
    44   127   129    1
    45    94    95    1
    46    42    40    1
    47    95    96    1
    48    81    80    2
    49    41    39    1
    50    88    86    1
    51    39    40    1
    52    39    36    1
    53    85    86    2
    54    85    84    1
    55    83    84    1
    56    83    82    1
    57    35    36    1
    58    79    80    1
    59    79    82    1
    60    79    78    1
    61    86    87    1
    62    36    37    1
    63    37    38    2
    64    96    97    1
    65    13    12    2
    66    20    21    1
    67    20    19    1
    68    20    23    1
    69    21    22    2
    70    12    11    1
    71    24    25    1
    72    77    76    2
    73    32    30   ar
    74    32    34   ar
    75    25    26    1
    76    25    28    1
    77    30    29   ar
    78    26    27    2
    79    14    11    1
    80    14    15    1
    81    18    16   ar
    82    11    10    1
    83    34    33   ar
    84    43    44    1
    85    76    75    1
    86    75    74    1
    87    29    28    1
    88    29    31   ar
    89    16    17   ar
    90    16    15    1
    91     4     3    2
    92    69    68    2
    93    33    31   ar
    94    74    68   am
    95    10     3   am
    96    44    47    1
    97    44    45    1
    98    68    67    1
    99     3     2    1
   100    70    67    1
   101    70    71    1
   102    67    66    1
   103    45    46    2
   104     6     7    1
   105     6     5    1
   106     1     2    1
   107     2     5    1
   108    71    72    2
   109    71    73   am
   110     7     8    1
   111     8     9    1
   112    66    64   am
   113    65    64    2
   114    64    63    1
   115    63    62    1
   116    62    55   am
   117    56    55    2
   118    55    54    1
   119    54    53    1
   120    54    57    1
   121    53    50   am
   122    48    49    1
   123    51    50    2
   124    50    49    1
   125    61    59   ar
   126    49    52    1
   127    58    57    1
   128    58    59    1
   129    59    60   ar
