@<TRIPOS>MOLECULE
tmp/4itsA00.pdb
 109 105 0 0 0
SMALL
GASTEIGER

@<TRIPOS>ATOM
      1  N         -7.2530    0.3250   17.2520 N.3    59  ARG59      -0.1231
      2  CA        -7.8660    0.8080   15.9850 C.3    59  ARG59       0.1694
      3  C         -7.5290    2.2700   15.7830 C.2    59  ARG59       0.2593
      4  O         -8.3820    3.1540   15.9860 O.2    59  ARG59      -0.2718
      5  CB        -9.3990    0.6160   16.0530 C.3    59  ARG59       0.0321
      6  CG        -9.7800   -0.8410   16.0940 C.3    59  ARG59       0.0489
      7  CD       -11.2180   -1.1450   16.4420 C.3    59  ARG59       0.2205
      8  NE       -11.6230   -2.4480   15.8980 N.pl3  59  ARG59      -0.0865
      9  CZ       -11.3460   -3.6410   16.4340 C.cat  59  ARG59       0.5346
     10  NH1      -10.6540   -3.7470   17.5690 N.pl3  59  ARG59       0.1354
     11  NH2      -11.7680   -4.7410   15.8250 N.pl3  59  ARG59       0.1354
     12  N         -6.2890    2.5490   15.3790 N.am   60  THR60      -0.1939
     13  CA        -5.8530    3.9260   15.1950 C.3    60  THR60       0.2028
     14  C         -6.6360    4.6230   14.0800 C.2    60  THR60       0.2642
     15  O         -6.9670    4.0040   13.0410 O.2    60  THR60      -0.2714
     16  CB        -4.3180    4.0530   14.9760 C.3    60  THR60       0.1808
     17  OG1       -3.8900    3.3610   13.7850 O.3    60  THR60      -0.2208
     18  CG2       -3.5380    3.4690   16.2060 C.3    60  THR60       0.0379
     19  N         -6.9480    5.8940   14.3180 N.am   61  ASP61      -0.1971
     20  CA        -7.8230    6.6610   13.4370 C.3    61  ASP61       0.1709
     21  C         -7.0260    7.1600   12.2390 C.2    61  ASP61       0.2293
     22  O         -5.8030    7.0410   12.1520 O.2    61  ASP61      -0.2864
     23  CB        -8.3850    7.9410   14.1180 C.3    61  ASP61       0.1436
     24  CG        -9.5090    7.6970   15.1460 C.2    61  ASP61       0.3671
     25  OD1      -10.0860    6.5840   15.2310 O.co2  61  ASP61      -0.2456
     26  OD2       -9.8670    8.6880   15.8560 O.co2  61  ASP61      -0.2456
     27  N         -3.3150    8.9390   12.1650 N.3    64  VAL64      -0.1245
     28  CA        -2.5920    8.6180   13.4280 C.3    64  VAL64       0.1561
     29  C         -1.4500    7.6320   13.1890 C.2    64  VAL64       0.2260
     30  O         -1.6130    6.6420   12.4450 O.2    64  VAL64      -0.2867
     31  CB        -3.5930    8.0730   14.4800 C.3    64  VAL64       0.0252
     32  CG1       -2.9120    7.6430   15.8060 C.3    64  VAL64       0.0019
     33  CG2       -4.6200    9.1910   14.8260 C.3    64  VAL64       0.0019
     34  N         -2.3070    2.1940   27.4640 N.3   110  ARG110     -0.1245
     35  CA        -1.4490    2.6040   26.3580 C.3   110  ARG110      0.1563
     36  C         -0.6860    3.8580   26.6920 C.2   110  ARG110      0.2260
     37  O         -1.0810    4.6530   27.5380 O.2   110  ARG110     -0.2867
     38  CB        -2.3350    2.9390   25.1790 C.3   110  ARG110      0.0307
     39  CG        -3.2080    1.7600   24.7940 C.3   110  ARG110      0.0489
     40  CD        -3.9560    2.1650   23.4990 C.3   110  ARG110      0.2205
     41  NE        -4.9350    1.1050   23.2440 N.pl3 110  ARG110     -0.0865
     42  CZ        -5.9390    1.1920   22.3790 C.cat 110  ARG110      0.5346
     43  NH1       -6.0940    2.3000   21.6470 N.pl3 110  ARG110      0.1354
     44  NH2       -6.7910    0.1580   22.2990 N.pl3 110  ARG110      0.1354
     45  N          0.7310    7.1350   24.5240 N.3   112  TYR112     -0.1241
     46  CA         0.7760    7.8680   23.2570 C.3   112  TYR112      0.1605
     47  C          1.7390    9.0320   23.3970 C.2   112  TYR112      0.2264
     48  O          1.9930    9.5430   24.5090 O.2   112  TYR112     -0.2867
     49  CB        -0.5940    8.4410   22.9130 C.3   112  TYR112      0.0534
     50  CG        -1.6070    7.4410   22.4220 C.ar  112  TYR112     -0.0201
     51  CD1       -2.3200    6.6520   23.3160 C.ar  112  TYR112     -0.0009
     52  CD2       -1.9320    7.3600   21.0570 C.ar  112  TYR112     -0.0009
     53  CE1       -3.2870    5.7550   22.8590 C.ar  112  TYR112      0.0417
     54  CE2       -2.8960    6.4600   20.6130 C.ar  112  TYR112      0.0417
     55  CZ        -3.5700    5.6920   21.5160 C.ar  112  TYR112      0.1957
     56  OH        -4.5290    4.8150   21.0660 O.3   112  TYR112     -0.2866
     57  N         -8.6580    4.9500   26.6590 N.3   200  PHE200     -0.1227
     58  CA        -8.8670    6.2680   26.0370 C.3   200  PHE200      0.1736
     59  C        -10.1130    6.2540   25.1650 C.2   200  PHE200      0.2595
     60  O        -10.3320    5.2880   24.4110 O.2   200  PHE200     -0.2718
     61  CB        -7.6550    6.6870   25.1870 C.3   200  PHE200      0.0547
     62  CG        -6.4060    6.9750   25.9910 C.ar  200  PHE200     -0.0202
     63  CD1       -6.2820    8.1690   26.7050 C.ar  200  PHE200     -0.0042
     64  CD2       -5.3540    6.0500   26.0430 C.ar  200  PHE200     -0.0042
     65  CE1       -5.1340    8.4640   27.4250 C.ar  200  PHE200     -0.0003
     66  CE2       -4.1970    6.3310   26.7800 C.ar  200  PHE200     -0.0003
     67  CZ        -4.0850    7.5600   27.4550 C.ar  200  PHE200     -0.0000
     68  N        -10.9270    7.3130   25.2540 N.am  201  MET201     -0.1965
     69  CA       -12.1730    7.4110   24.4810 C.3   201  MET201      0.1736
     70  C        -11.9260    8.1080   23.1450 C.2   201  MET201      0.2616
     71  O        -10.8710    8.6950   22.9370 O.2   201  MET201     -0.2715
     72  CB       -13.2300    8.1830   25.2940 C.3   201  MET201      0.0427
     73  CG       -13.5730    7.4600   26.6110 C.3   201  MET201      0.0599
     74  SD       -14.7730    8.4940   27.4840 S.3   201  MET201     -0.1393
     75  CE       -13.7570    9.9340   27.8670 C.3   201  MET201      0.0692
     76  N        -12.9060    8.0440   22.2410 N.am  202  MET202     -0.1963
     77  CA       -12.7580    8.7120   20.9540 C.3   202  MET202      0.1736
     78  C        -12.4590   10.1660   21.2520 C.2   202  MET202      0.2616
     79  O        -13.1780   10.8070   22.0300 O.2   202  MET202     -0.2715
     80  CB       -14.0430    8.5960   20.1100 C.3   202  MET202      0.0427
     81  CG       -13.8890    9.1840   18.6540 C.3   202  MET202      0.0599
     82  SD       -15.5260    9.0760   17.9390 S.3   202  MET202     -0.1393
     83  CE       -15.4070    7.3640   17.4310 C.3   202  MET202      0.0692
     84  N        -11.4050   10.6750   20.6180 N.am  203  HIS203     -0.1973
     85  CA       -11.0030   12.0830   20.6790 C.3   203  HIS203      0.1656
     86  C        -10.4950   12.5360   22.0490 C.2   203  HIS203      0.2291
     87  O        -10.1890   13.7150   22.2280 O.2   203  HIS203     -0.2864
     88  CB       -12.1390   12.9960   20.2430 C.3   203  HIS203      0.0771
     89  CG       -12.5760   12.7850   18.8190 C.ar  203  HIS203      0.0820
     90  ND1      -13.7820   13.2310   18.3520 N.ar  203  HIS203     -0.2267
     91  CD2      -11.9650   12.1670   17.7730 C.ar  203  HIS203      0.1154
     92  CE1      -13.9080   12.9100   17.0660 C.ar  203  HIS203      0.1986
     93  NE2      -12.8230   12.2620   16.6960 N.ar  203  HIS203     -0.2212
     94  N         -7.6200   12.0530   23.8830 N.3   205  ILE205     -0.1245
     95  CA        -6.2920   12.6800   23.9480 C.3   205  ILE205      0.1561
     96  C         -6.2220   13.9840   23.1440 C.2   205  ILE205      0.2260
     97  O         -5.6490   14.9890   23.5740 O.2   205  ILE205     -0.2867
     98  CB        -5.1850   11.6820   23.4000 C.3   205  ILE205      0.0252
     99  CG1       -5.0210   10.5200   24.3720 C.3   205  ILE205      0.0019
    100  CG2       -3.8300   12.4210   23.3080 C.3   205  ILE205      0.0019
    101  CD1       -4.0920    9.3770   23.8700 C.3   205  ILE205      0.0001
    102  N         -0.4640   12.7290   16.5920 N.3   244  LEU244     -0.1245
    103  CA        -0.6510   11.6720   17.5680 C.3   244  LEU244      0.1561
    104  C          0.0620   10.3470   17.1520 C.2   244  LEU244      0.2260
    105  O         -0.0800    9.9260   16.0080 O.2   244  LEU244     -0.2867
    106  CB        -2.1660   11.4070   17.7310 C.3   244  LEU244      0.0270
    107  CG        -2.4720   10.3760   18.8240 C.3   244  LEU244      0.0019
    108  CD1       -2.1000   10.9210   20.2090 C.3   244  LEU244      0.0001
    109  CD2       -3.9570   10.0480   18.7450 C.3   244  LEU244      0.0001
@<TRIPOS>BOND
     1    22    21    2
     2    27    28    1
     3    21    20    1
     4    30    29    2
     5    15    14    2
     6    29    28    1
     7    28    31    1
     8    20    23    1
     9    20    19    1
    10    17    16    1
    11    14    19   am
    12    14    13    1
    13    23    24    1
    14    31    33    1
    15    31    32    1
    16    16    13    1
    17    16    18    1
    18    24    25   ar
    19    24    26   ar
    20    13    12    1
    21    12     3   am
    22     3     2    1
    23     3     4    2
    24    11     9    1
    25     8     9    2
    26     8     7    1
    27     2     5    1
    28     2     1    1
    29   105   104    2
    30     5     6    1
    31     6     7    1
    32     9    10    1
    33   102   103    1
    34    93    92   ar
    35    93    91   ar
    36    92    90   ar
    37   104   103    1
    38    83    82    1
    39   103   106    1
    40   106   107    1
    41    91    89   ar
    42    82    81    1
    43    90    89   ar
    44    81    80    1
    45   109   107    1
    46    89    88    1
    47   107   108    1
    48    80    77    1
    49    88    85    1
    50    54    52   ar
    51    54    55   ar
    52    84    85    1
    53    84    78   am
    54    85    86    1
    55    77    78    1
    56    77    76    1
    57    52    50   ar
    58    56    55    1
    59    78    79    2
    60    55    53   ar
    61    43    42    1
    62    86    87    2
    63    76    70   am
    64    44    42    1
    65    42    41    2
    66    50    49    1
    67    50    51   ar
    68    53    51   ar
    69    49    46    1
    70    71    70    2
    71    96    97    2
    72    96    95    1
    73    70    69    1
    74    41    40    1
    75    46    47    1
    76    46    45    1
    77   100    98    1
    78    47    48    2
    79    98    95    1
    80    98    99    1
    81    40    39    1
    82   101    99    1
    83    94    95    1
    84    60    59    2
    85    69    68    1
    86    69    72    1
    87    39    38    1
    88    59    68   am
    89    59    58    1
    90    38    35    1
    91    61    62    1
    92    61    58    1
    93    72    73    1
    94    62    64   ar
    95    62    63   ar
    96    58    57    1
    97    64    66   ar
    98    35    36    1
    99    35    34    1
   100    73    74    1
   101    36    37    2
   102    63    65   ar
   103    66    67   ar
   104    65    67   ar
   105    74    75    1
