@<TRIPOS>MOLECULE
tmp/4ituA01.pdb
 136 128 0 0 0
SMALL
GASTEIGER

@<TRIPOS>ATOM
      1  N          7.4580  152.9470   63.9390 N.3    93  ALA93      -0.1245
      2  CA         8.1070  154.0910   63.3210 C.3    93  ALA93       0.1562
      3  C          7.0800  154.8200   62.4630 C.2    93  ALA93       0.2260
      4  O          5.9920  154.3020   62.1970 O.2    93  ALA93      -0.2867
      5  CB         9.2850  153.6420   62.4730 C.3    93  ALA93       0.0290
      6  N         18.1770  152.7760   68.6790 N.3   141  SER141     -0.1202
      7  CA        18.3740  152.6860   67.2460 C.3   141  SER141      0.2020
      8  C         19.5010  153.6500   66.9420 C.2   141  SER141      0.2619
      9  O         19.8450  154.4790   67.7870 O.2   141  SER141     -0.2717
     10  CB        17.1060  153.1200   66.5040 C.3   141  SER141      0.2103
     11  OG        17.3560  153.2790   65.1200 O.3   141  SER141     -0.2182
     12  N         20.0860  153.5580   65.7530 N.am  142  VAL142     -0.1965
     13  CA        20.9420  154.6440   65.3050 C.3   142  VAL142      0.1727
     14  C         20.1270  155.9400   65.3640 C.2   142  VAL142      0.2616
     15  O         20.6710  157.0090   65.6570 O.2   142  VAL142     -0.2715
     16  CB        21.5190  154.4070   63.8960 C.3   142  VAL142      0.0290
     17  CG1       22.5370  153.2800   63.9280 C.3   142  VAL142      0.0023
     18  CG2       20.4100  154.0920   62.9010 C.3   142  VAL142      0.0023
     19  N         18.8100  155.8300   65.1610 N.am  143  ALA143     -0.1977
     20  CA        17.9090  156.9830   65.2340 C.3   143  ALA143      0.1597
     21  C         17.7580  157.5730   66.6400 C.2   143  ALA143      0.2287
     22  O         17.1750  158.6510   66.7900 O.2   143  ALA143     -0.2864
     23  CB        16.5290  156.6300   64.6670 C.3   143  ALA143      0.0319
     24  N         17.7800  161.7000   62.1120 N.3   148  ILE148     -0.1245
     25  CA        17.4210  161.1160   60.8290 C.3   148  ILE148      0.1561
     26  C         16.4190  162.0340   60.1610 C.2   148  ILE148      0.2260
     27  O         15.3990  162.3520   60.7610 O.2   148  ILE148     -0.2867
     28  CB        16.7610  159.7300   61.0070 C.3   148  ILE148      0.0252
     29  CG1       17.6330  158.8070   61.8610 C.3   148  ILE148      0.0019
     30  CG2       16.4550  159.0940   59.6410 C.3   148  ILE148      0.0019
     31  CD1       19.0160  158.5530   61.2860 C.3   148  ILE148      0.0001
     32  N         12.1580  162.0790   60.4680 N.3   151  MET151     -0.1245
     33  CA        11.6440  161.1580   61.4810 C.3   151  MET151      0.1570
     34  C         11.7000  161.7660   62.8690 C.2   151  MET151      0.2261
     35  O         12.3680  161.2370   63.7660 O.2   151  MET151     -0.2867
     36  CB        12.4070  159.8380   61.4460 C.3   151  MET151      0.0387
     37  CG        12.3360  159.1200   60.1110 C.3   151  MET151      0.0595
     38  SD        13.0880  157.4800   60.2020 S.3   151  MET151     -0.1393
     39  CE        11.7630  156.5310   60.9500 C.3   151  MET151      0.0692
     40  N         10.0670  159.6330   65.9230 N.3   154  TYR154     -0.1241
     41  CA        10.8500  158.4130   66.0980 C.3   154  TYR154      0.1605
     42  C         12.2340  158.7120   66.7040 C.2   154  TYR154      0.2264
     43  O         12.6730  158.0000   67.6170 O.2   154  TYR154     -0.2867
     44  CB        10.9560  157.6440   64.7740 C.3   154  TYR154      0.0534
     45  CG        11.5790  156.2590   64.8920 C.ar  154  TYR154     -0.0201
     46  CD1       10.8660  155.1870   65.4330 C.ar  154  TYR154     -0.0009
     47  CD2       12.8730  156.0270   64.4580 C.ar  154  TYR154     -0.0009
     48  CE1       11.4380  153.9210   65.5400 C.ar  154  TYR154      0.0417
     49  CE2       13.4530  154.7680   64.5540 C.ar  154  TYR154      0.0417
     50  CZ        12.7320  153.7210   65.0870 C.ar  154  TYR154      0.1957
     51  OH        13.3280  152.4820   65.1720 O.3   154  TYR154     -0.2866
     52  N         20.3180  149.3430   67.0320 N.3   184  PRO184     -0.2102
     53  CA        20.5880  148.7560   65.7170 C.3   184  PRO184      0.1504
     54  C         20.6290  149.7890   64.6000 C.2   184  PRO184      0.2576
     55  O         19.9330  150.8170   64.6650 O.2   184  PRO184     -0.2718
     56  CB        19.3820  147.8280   65.4960 C.3   184  PRO184      0.0282
     57  CG        18.7590  147.6470   66.8770 C.3   184  PRO184      0.0208
     58  CD        18.9990  148.9530   67.5600 C.3   184  PRO184      0.0893
     59  N         21.4510  149.5190   63.5870 N.am  185  GLY185     -0.1943
     60  CA        21.3170  150.1900   62.3060 C.3   185  GLY185      0.2014
     61  C         20.1360  149.5980   61.5520 C.2   185  GLY185      0.2640
     62  O         19.4860  148.6590   62.0310 O.2   185  GLY185     -0.2714
     63  N         19.8580  150.1470   60.3750 N.am  186  THR186     -0.1936
     64  CA        18.7520  149.6850   59.5340 C.3   186  THR186      0.2028
     65  C         18.7750  148.1820   59.2460 C.2   186  THR186      0.2642
     66  O         19.8060  147.6120   58.8640 O.2   186  THR186     -0.2714
     67  CB        18.7460  150.4570   58.2170 C.3   186  THR186      0.1808
     68  OG1       18.4370  151.8230   58.4980 O.3   186  THR186     -0.2208
     69  CG2       17.6960  149.9000   57.2680 C.3   186  THR186      0.0379
     70  N         17.6230  147.5500   59.4510 N.am  187  VAL187     -0.1977
     71  CA        17.4130  146.1400   59.1450 C.3   187  VAL187      0.1596
     72  C         16.2470  146.1160   58.1650 C.2   187  VAL187      0.2287
     73  O         15.1010  146.3730   58.5370 O.2   187  VAL187     -0.2864
     74  CB        17.0620  145.3400   60.4140 C.3   187  VAL187      0.0276
     75  CG1       16.7840  143.8790   60.0690 C.3   187  VAL187      0.0022
     76  CG2       18.1990  145.4500   61.4500 C.3   187  VAL187      0.0022
     77  N          9.0910  146.8920   59.5820 N.3   192  MET192     -0.1230
     78  CA         9.5190  148.2710   59.7570 C.3   192  MET192      0.1702
     79  C         10.5660  148.6290   58.7190 C.2   192  MET192      0.2592
     80  O         10.5730  149.7370   58.1940 O.2   192  MET192     -0.2718
     81  CB        10.0880  148.5120   61.1550 C.3   192  MET192      0.0401
     82  CG        10.4500  149.9730   61.4000 C.3   192  MET192      0.0596
     83  SD        11.0540  150.2740   63.0690 S.3   192  MET192     -0.1393
     84  CE         9.6360  149.7620   64.0430 C.3   192  MET192      0.0692
     85  N         11.4650  147.6920   58.4380 N.am  193  GLY193     -0.1957
     86  CA        12.4610  147.8960   57.3980 C.3   193  GLY193      0.1869
     87  C         11.8150  148.1640   56.0470 C.2   193  GLY193      0.2309
     88  O         12.2510  149.0450   55.3020 O.2   193  GLY193     -0.2863
     89  N         10.3290  151.5420   55.9490 N.3   196  LEU196     -0.1245
     90  CA        11.3630  152.5570   55.7210 C.3   196  LEU196      0.1561
     91  C         11.7270  152.6980   54.2400 C.2   196  LEU196      0.2260
     92  O         11.7760  153.8140   53.7160 O.2   196  LEU196     -0.2867
     93  CB        12.6200  152.2410   56.5390 C.3   196  LEU196      0.0270
     94  CG        13.8050  153.1990   56.3720 C.3   196  LEU196      0.0019
     95  CD1       13.4530  154.5990   56.8840 C.3   196  LEU196      0.0001
     96  CD2       15.0650  152.6580   57.0670 C.3   196  LEU196      0.0001
     97  N         21.4720  155.8880   51.2840 N.3   209  ARG209     -0.1245
     98  CA        21.2780  155.3110   52.6060 C.3   209  ARG209      0.1563
     99  C         22.3290  154.2450   52.8900 C.2   209  ARG209      0.2260
    100  O         22.9160  154.2270   53.9740 O.2   209  ARG209     -0.2867
    101  CB        19.8690  154.7270   52.7460 C.3   209  ARG209      0.0307
    102  CG        19.5860  154.1350   54.1230 C.3   209  ARG209      0.0489
    103  CD        18.1890  153.5120   54.2240 C.3   209  ARG209      0.2205
    104  NE        17.1310  154.5160   54.3130 N.pl3 209  ARG209     -0.0865
    105  CZ        16.2410  154.7470   53.3530 C.cat 209  ARG209      0.5346
    106  NH1       16.2720  154.0390   52.2320 N.pl3 209  ARG209      0.1354
    107  NH2       15.3130  155.6800   53.5120 N.pl3 209  ARG209      0.1354
    108  N         25.8150  155.1320   54.0670 N.3   212  LYS212     -0.1231
    109  CA        25.9700  155.5680   55.4540 C.3   212  LYS212      0.1693
    110  C         26.5610  154.4510   56.3100 C.2   212  LYS212      0.2592
    111  O         26.9760  154.6880   57.4440 O.2   212  LYS212     -0.2718
    112  CB        24.6240  156.0050   56.0410 C.3   212  LYS212      0.0285
    113  CG        23.9700  157.1760   55.3090 C.3   212  LYS212      0.0035
    114  CD        22.7030  157.6390   56.0210 C.3   212  LYS212      0.0206
    115  CE        22.1090  158.8740   55.3390 C.3   212  LYS212      0.1093
    116  NZ        20.9770  159.4630   56.1250 N.3   212  LYS212     -0.1314
    117  N         26.6020  153.2430   55.7570 N.am  213  TYR213     -0.1976
    118  CA        27.0490  152.0550   56.4800 C.3   213  TYR213      0.1639
    119  C         28.4060  151.5710   55.9850 C.2   213  TYR213      0.2290
    120  O         28.4960  150.9750   54.9030 O.2   213  TYR213     -0.2864
    121  CB        25.9930  150.9460   56.3530 C.3   213  TYR213      0.0560
    122  CG        24.7460  151.2920   57.1210 C.ar  213  TYR213     -0.0198
    123  CD1       23.7900  152.1530   56.5930 C.ar  213  TYR213     -0.0009
    124  CD2       24.5620  150.8230   58.4150 C.ar  213  TYR213     -0.0009
    125  CE1       22.6690  152.4990   57.3200 C.ar  213  TYR213      0.0417
    126  CE2       23.4490  151.1660   59.1500 C.ar  213  TYR213      0.0417
    127  CZ        22.5110  152.0050   58.5990 C.ar  213  TYR213      0.1957
    128  OH        21.4090  152.3370   59.3420 O.3   213  TYR213     -0.2866
    129  N         27.6810  152.7340   61.3030 N.3   250  MET250     -0.1245
    130  CA        26.9570  153.9530   60.9310 C.3   250  MET250      0.1570
    131  C         27.2690  155.1330   61.8490 C.2   250  MET250      0.2261
    132  O         27.5970  156.2230   61.3800 O.2   250  MET250     -0.2867
    133  CB        25.4450  153.6820   60.8710 C.3   250  MET250      0.0387
    134  CG        24.5890  154.8250   60.2940 C.3   250  MET250      0.0595
    135  SD        24.0900  156.0440   61.5290 S.3   250  MET250     -0.1393
    136  CE        22.8180  156.9480   60.6450 C.3   250  MET250      0.0692
@<TRIPOS>BOND
     1    97    98    1
     2   106   105    1
     3    98   101    1
     4    98    99    1
     5   101   102    1
     6    99   100    2
     7   105   107    1
     8   105   104    2
     9    92    91    2
    10   108   109    1
    11   102   103    1
    12   103   104    1
    13    91    90    1
    14   120   119    2
    15    88    87    2
    16   113   114    1
    17   113   112    1
    18   115   114    1
    19   115   116    1
    20   109   112    1
    21   109   110    1
    22    90    89    1
    23    90    93    1
    24   117   110   am
    25   117   118    1
    26   119   118    1
    27    87    86    1
    28   110   111    2
    29   121   118    1
    30   121   122    1
    31    94    93    1
    32    94    95    1
    33    94    96    1
    34   123   122   ar
    35   123   125   ar
    36   122   124   ar
    37    69    67    1
    38   125   127   ar
    39    86    85    1
    40    72    73    2
    41    72    71    1
    42    80    79    2
    43    67    68    1
    44    67    64    1
    45   124   126   ar
    46    85    79   am
    47   127   126   ar
    48   127   128    1
    49    79    78    1
    50    66    65    2
    51    71    70    1
    52    71    74    1
    53    65    70   am
    54    65    64    1
    55    64    63    1
    56    77    78    1
    57    30    28    1
    58    78    81    1
    59    75    74    1
    60    37    38    1
    61    37    36    1
    62    26    27    2
    63    26    25    1
    64    38    39    1
    65   134   133    1
    66   134   135    1
    67    63    61   am
    68    74    76    1
    69    32    33    1
    70   136   135    1
    71    25    28    1
    72    25    24    1
    73   133   130    1
    74   130   129    1
    75   130   131    1
    76    28    29    1
    77    81    82    1
    78    31    29    1
    79   132   131    2
    80    82    83    1
    81    36    33    1
    82    33    34    1
    83    61    62    2
    84    61    60    1
    85     4     3    2
    86    60    59    1
    87     3     2    1
    88     5     2    1
    89    34    35    2
    90    18    16    1
    91    83    84    1
    92     2     1    1
    93    59    54   am
    94    16    17    1
    95    16    13    1
    96    47    49   ar
    97    47    45   ar
    98    49    50   ar
    99    54    55    2
   100    54    53    1
   101    23    20    1
   102    44    45    1
   103    44    41    1
   104    45    46   ar
   105    50    51    1
   106    50    48   ar
   107    11    10    1
   108    19    20    1
   109    19    14   am
   110    20    21    1
   111    13    14    1
   112    13    12    1
   113    14    15    2
   114    46    48   ar
   115    56    53    1
   116    56    57    1
   117    53    52    1
   118    12     8   am
   119    40    41    1
   120    41    42    1
   121    10     7    1
   122    21    22    2
   123    42    43    2
   124    57    58    1
   125     8     7    1
   126     8     9    2
   127    52    58    1
   128     7     6    1
