@<TRIPOS>MOLECULE
tmp/4itxA00.pdb
 158 151 0 0 0
SMALL
GASTEIGER

@<TRIPOS>ATOM
      1  N         -1.0990   11.6180   43.1080 N.3    81  CYS81      -0.1221
      2  CA        -1.8510   11.7250   44.3210 C.3    81  CYS81       0.1808
      3  C         -1.4820   10.6190   45.2770 C.2    81  CYS81       0.2602
      4  O         -0.6700    9.7260   44.9640 O.2    81  CYS81      -0.2717
      5  CB        -3.3810   11.6320   44.0140 C.3    81  CYS81       0.0970
      6  SG        -3.9550   10.0210   43.3470 S.3    81  CYS81      -0.0800
      7  N         -2.0190   10.6550   46.4800 N.am   82  GLY82      -0.1942
      8  CA        -1.6740    9.5950   47.4380 C.3    82  GLY82       0.2014
      9  C         -2.1070    8.2100   46.9940 C.2    82  GLY82       0.2638
     10  O         -1.3390    7.2460   47.1670 O.2    82  GLY82      -0.2714
     11  N         -3.3320    8.0860   46.4260 N.am   83  ALA83      -0.1977
     12  CA        -3.7980    6.7690   46.0220 C.3    83  ALA83       0.1597
     13  C         -2.8570    6.1530   44.9510 C.2    83  ALA83       0.2287
     14  O         -2.6640    4.9350   44.8730 O.2    83  ALA83      -0.2864
     15  CB        -5.2470    6.8540   45.4920 C.3    83  ALA83       0.0319
     16  N          0.2680    4.8860   46.7980 N.3    86  VAL86      -0.1245
     17  CA         0.0210    3.5890   47.4700 C.3    86  VAL86       0.1561
     18  C          0.0510    2.4360   46.4300 C.2    86  VAL86       0.2260
     19  O          0.8150    1.4420   46.5770 O.2    86  VAL86      -0.2867
     20  CB        -1.2730    3.5870   48.2950 C.3    86  VAL86       0.0252
     21  CG1       -1.6300    2.1350   48.7810 C.3    86  VAL86       0.0019
     22  CG2       -1.1400    4.5540   49.4950 C.3    86  VAL86       0.0019
     23  N         -6.5670    2.8420   54.4270 N.3   107  TYR107     -0.1241
     24  CA        -7.3870    3.6000   53.5630 C.3   107  TYR107      0.1605
     25  C         -8.1060    2.7070   52.4970 C.2   107  TYR107      0.2264
     26  O         -7.5440    1.8240   51.9440 O.2   107  TYR107     -0.2867
     27  CB        -6.6030    4.7400   52.8860 C.3   107  TYR107      0.0534
     28  CG        -7.4430    5.5180   51.8890 C.ar  107  TYR107     -0.0201
     29  CD1       -8.6890    6.0410   52.2380 C.ar  107  TYR107     -0.0009
     30  CD2       -7.0420    5.7010   50.5880 C.ar  107  TYR107     -0.0009
     31  CE1       -9.4450    6.7300   51.3240 C.ar  107  TYR107      0.0417
     32  CE2       -7.8160    6.4170   49.6900 C.ar  107  TYR107      0.0417
     33  CZ        -9.0110    6.9260   50.0210 C.ar  107  TYR107      0.1957
     34  OH        -9.8360    7.6400   49.1230 O.3   107  TYR107     -0.2866
     35  N         -0.5890    1.3460   58.3730 N.3   150  GLU150     -0.1245
     36  CA        -1.0790    2.7130   58.3500 C.3   150  GLU150      0.1567
     37  C         -1.3820    3.0630   59.8160 C.2   150  GLU150      0.2260
     38  O         -2.2800    2.4810   60.4070 O.2   150  GLU150     -0.2867
     39  CB        -2.3220    2.7750   57.5500 C.3   150  GLU150      0.0388
     40  CG        -2.8390    4.2300   57.3080 C.3   150  GLU150      0.1160
     41  CD        -4.0190    4.3290   56.3540 C.2   150  GLU150      0.3649
     42  OE1       -4.0620    3.5900   55.3360 O.co2 150  GLU150     -0.2457
     43  OE2       -4.9190    5.1370   56.5960 O.co2 150  GLU150     -0.2457
     44  N         -6.9540    4.6640   59.1470 N.3   154  SER154     -0.1217
     45  CA        -8.0020    5.4240   58.5290 C.3   154  SER154      0.1889
     46  C         -9.3140    5.3910   59.3020 C.2   154  SER154      0.2288
     47  O         -9.7750    4.3440   59.7010 O.2   154  SER154     -0.2866
     48  CB        -8.2770    4.9830   57.0530 C.3   154  SER154      0.2089
     49  OG        -7.4140    5.5450   56.0900 O.3   154  SER154     -0.2183
     50  N          1.6060    3.9500   55.1960 N.3   181  ASP181     -0.1239
     51  CA         0.9300    5.2140   54.8570 C.3   181  ASP181      0.1674
     52  C          1.0200    6.1430   56.0440 C.2   181  ASP181      0.2266
     53  O          0.2650    5.9620   57.0460 O.2   181  ASP181     -0.2867
     54  CB        -0.5140    4.9700   54.3760 C.3   181  ASP181      0.1410
     55  CG        -1.1720    6.2260   53.8260 C.2   181  ASP181      0.3668
     56  OD1       -0.8440    7.3300   54.2870 O.co2 181  ASP181     -0.2456
     57  OD2       -2.0110    6.0830   52.8820 O.co2 181  ASP181     -0.2456
     58  N          0.5890    9.4990   56.2190 N.3   183  THR183     -0.1203
     59  CA        -0.0630   10.7390   55.8830 C.3   183  THR183      0.1994
     60  C         -0.5230   11.5330   57.1030 C.2   183  THR183      0.2617
     61  O         -0.3380   12.7760   57.1490 O.2   183  THR183     -0.2717
     62  CB        -1.3080   10.5460   54.9740 C.3   183  THR183      0.1784
     63  OG1       -0.9740    9.8160   53.7710 O.3   183  THR183     -0.2211
     64  CG2       -1.9110   11.8450   54.5920 C.3   183  THR183      0.0376
     65  N         -1.0790   10.8440   58.0830 N.am  184  TRP184     -0.1975
     66  CA        -1.5890   11.5550   59.2930 C.3   184  TRP184      0.1640
     67  C         -0.5250   12.3340   59.9980 C.2   184  TRP184      0.2290
     68  O         -0.7380   13.4540   60.4970 O.2   184  TRP184     -0.2864
     69  CB        -2.2340   10.5480   60.2290 C.3   184  TRP184      0.0576
     70  CG        -2.9040   11.1320   61.4280 C.ar  184  TRP184      0.0006
     71  CD1       -4.2380   11.4540   61.5390 C.ar  184  TRP184      0.0946
     72  CD2       -2.3020   11.3720   62.7250 C.ar  184  TRP184      0.0152
     73  NE1       -4.4840   11.9160   62.8330 N.ar  184  TRP184     -0.2442
     74  CE2       -3.3040   11.9210   63.5480 C.ar  184  TRP184      0.0810
     75  CE3       -1.0090   11.2650   63.2300 C.ar  184  TRP184      0.0012
     76  CZ2       -3.0720   12.2590   64.8710 C.ar  184  TRP184      0.0191
     77  CZ3       -0.7950   11.5830   64.4970 C.ar  184  TRP184      0.0001
     78  CH2       -1.8310   12.0660   65.3300 C.ar  184  TRP184      0.0015
     79  N         -0.1130   10.7810   51.1360 N.3   203  ALA203     -0.1245
     80  CA        -0.9360   11.6610   50.3970 C.3   203  ALA203      0.1562
     81  C         -0.5210   13.0590   50.7770 C.2   203  ALA203      0.2260
     82  O         -1.0460   13.6910   51.7050 O.2   203  ALA203     -0.2867
     83  CB        -2.3720   11.3610   50.6610 C.3   203  ALA203      0.0290
     84  N         -1.0780   15.5790   49.2510 N.3   205  THR205     -0.1203
     85  CA        -2.3870   16.2600   49.1530 C.3   205  THR205      0.1994
     86  C         -2.8510   16.8360   50.4680 C.2   205  THR205      0.2617
     87  O         -3.5020   17.9290   50.4390 O.2   205  THR205     -0.2717
     88  CB        -3.4510   15.2530   48.7750 C.3   205  THR205      0.1784
     89  OG1       -3.0780   14.6140   47.5450 O.3   205  THR205     -0.2211
     90  CG2       -4.9530   15.8290   48.5850 C.3   205  THR205      0.0376
     91  N         -2.5640   16.1690   51.5900 N.am  206  LYS206     -0.1979
     92  CA        -3.1240   16.5340   52.8520 C.3   206  LYS206      0.1596
     93  C         -2.2940   17.6080   53.5630 C.2   206  LYS206      0.2287
     94  O         -2.2630   18.7570   53.1450 O.2   206  LYS206     -0.2864
     95  CB        -3.4990   15.2520   53.6340 C.3   206  LYS206      0.0298
     96  CG        -4.3410   14.3600   52.6470 C.3   206  LYS206      0.0038
     97  CD        -5.3330   13.6000   53.2920 C.3   206  LYS206      0.0206
     98  CE        -5.9640   12.6020   52.2980 C.3   206  LYS206      0.1093
     99  NZ        -6.4220   13.0040   50.9190 N.3   206  LYS206     -0.1314
    100  N         -3.0170   18.1040   44.5410 N.3   215  MET215     -0.1245
    101  CA        -2.9890   16.6470   44.7890 C.3   215  MET215      0.1570
    102  C         -1.6380   16.0430   44.3840 C.2   215  MET215      0.2261
    103  O         -1.0210   16.5160   43.4090 O.2   215  MET215     -0.2867
    104  CB        -4.1480   15.8450   44.1500 C.3   215  MET215      0.0387
    105  CG        -5.4480   16.4330   44.5190 C.3   215  MET215      0.0595
    106  SD        -6.8660   15.4710   44.2100 S.3   215  MET215     -0.1393
    107  CE        -6.4450   13.9240   45.1330 C.3   215  MET215      0.0692
    108  N        -14.5310   15.1820   51.4650 N.3   334  TYR334     -0.1227
    109  CA       -13.5520   14.1780   51.6100 C.3   334  TYR334      0.1736
    110  C        -12.2010   14.9080   51.7260 C.2   334  TYR334      0.2596
    111  O        -12.1290   16.1280   51.5090 O.2   334  TYR334     -0.2718
    112  CB       -13.5360   13.2150   50.4400 C.3   334  TYR334      0.0548
    113  CG       -14.6530   12.2250   50.5280 C.ar  334  TYR334     -0.0200
    114  CD1      -14.5710   11.1380   51.3810 C.ar  334  TYR334     -0.0009
    115  CD2      -15.7990   12.4040   49.7750 C.ar  334  TYR334     -0.0009
    116  CE1      -15.6450   10.2390   51.5160 C.ar  334  TYR334      0.0417
    117  CE2      -16.8990   11.4910   49.8560 C.ar  334  TYR334      0.0417
    118  CZ       -16.7960   10.4470   50.7300 C.ar  334  TYR334      0.1957
    119  OH       -17.7950    9.5690   50.9000 O.3   334  TYR334     -0.2866
    120  N        -11.1880   14.1410   52.1040 N.am  335  SER335     -0.1938
    121  CA        -9.8270   14.6690   52.4200 C.3   335  SER335      0.2055
    122  C         -9.8250   15.5460   53.7010 C.2   335  SER335      0.2643
    123  O        -10.7930   15.6240   54.4270 O.2   335  SER335     -0.2714
    124  CB        -9.1340   15.3490   51.2160 C.3   335  SER335      0.2130
    125  OG        -7.7460   15.4450   51.4280 O.3   335  SER335     -0.2179
    126  N         -8.6810   16.1850   53.9410 N.am  336  TRP336     -0.1973
    127  CA        -8.3450   16.7460   55.2420 C.3   336  TRP336      0.1640
    128  C         -6.9050   17.2220   55.1390 C.2   336  TRP336      0.2290
    129  O         -6.3070   17.1180   54.0710 O.2   336  TRP336     -0.2864
    130  CB        -8.5190   15.6960   56.3420 C.3   336  TRP336      0.0576
    131  CG        -8.0690   14.2570   56.0740 C.ar  336  TRP336      0.0006
    132  CD1       -8.8300   13.2160   55.5460 C.ar  336  TRP336      0.0946
    133  CD2       -6.8090   13.6750   56.4140 C.ar  336  TRP336      0.0152
    134  NE1       -8.0670   12.1130   55.4140 N.ar  336  TRP336     -0.2442
    135  CE2       -6.8530   12.3170   56.0190 C.ar  336  TRP336      0.0810
    136  CE3       -5.6450   14.1560   57.0170 C.ar  336  TRP336      0.0012
    137  CZ2       -5.8010   11.4780   56.1830 C.ar  336  TRP336      0.0191
    138  CZ3       -4.5710   13.2770   57.2140 C.ar  336  TRP336      0.0001
    139  CH2       -4.6590   11.9550   56.8210 C.ar  336  TRP336      0.0015
    140  N        -17.3520   14.3240   58.4290 N.3   344  LEU344     -0.1245
    141  CA       -17.8390   13.1860   57.6380 C.3   344  LEU344      0.1561
    142  C        -18.4990   12.1860   58.5960 C.2   344  LEU344      0.2260
    143  O        -17.9920   12.0270   59.7060 O.2   344  LEU344     -0.2867
    144  CB       -16.6450   12.5050   56.9160 C.3   344  LEU344      0.0270
    145  CG       -16.3150   12.8800   55.4920 C.3   344  LEU344      0.0019
    146  CD1      -15.4900   11.7190   54.8740 C.3   344  LEU344      0.0001
    147  CD2      -17.6110   13.2370   54.6850 C.3   344  LEU344      0.0001
    148  N        -16.0910   11.6420   61.8520 N.3   368  ARG368     -0.1245
    149  CA       -14.6760   12.0200   61.7200 C.3   368  ARG368      0.1563
    150  C        -14.5380   13.5370   61.5540 C.2   368  ARG368      0.2260
    151  O        -15.2020   14.1190   60.6920 O.2   368  ARG368     -0.2867
    152  CB       -14.0110   11.3110   60.4980 C.3   368  ARG368      0.0307
    153  CG       -12.5770   11.5740   60.4370 C.3   368  ARG368      0.0489
    154  CD       -11.9210   10.9410   59.2370 C.3   368  ARG368      0.2205
    155  NE       -12.2730   11.6840   58.0330 N.pl3 368  ARG368     -0.0865
    156  CZ       -11.8490   11.3480   56.8080 C.cat 368  ARG368      0.5346
    157  NH1      -11.0120   10.3010   56.6130 N.pl3 368  ARG368      0.1354
    158  NH2      -12.1560   12.1440   55.8000 N.pl3 368  ARG368      0.1354
@<TRIPOS>BOND
     1     1     2    1
     2     6     5    1
     3   103   102    2
     4     5     2    1
     5   104   105    1
     6   104   101    1
     7   106   105    1
     8   106   107    1
     9     2     3    1
    10   102   101    1
    11   100   101    1
    12    14    13    2
    13    13    12    1
    14     4     3    2
    15     3     7   am
    16    15    12    1
    17    12    11    1
    18    11     9   am
    19    18    19    2
    20    18    17    1
    21     7     8    1
    22    16    17    1
    23     9    10    2
    24     9     8    1
    25    17    20    1
    26    89    88    1
    27    20    21    1
    28    20    22    1
    29    90    88    1
    30    88    85    1
    31    34    33    1
    32    85    84    1
    33    85    86    1
    34    32    33   ar
    35    32    30   ar
    36   115   117   ar
    37   115   113   ar
    38   117   118   ar
    39    33    31   ar
    40    80    83    1
    41    80    81    1
    42    80    79    1
    43    87    86    2
    44   112   113    1
    45   112   109    1
    46    86    91   am
    47   113   114   ar
    48    30    28   ar
    49   118   119    1
    50   118   116   ar
    51    81    82    2
    52    99    98    1
    53   124   125    1
    54   124   121    1
    55    31    29   ar
    56   114   116   ar
    57   108   109    1
    58   111   110    2
    59    91    92    1
    60   109   110    1
    61   110   120   am
    62    28    29   ar
    63    28    27    1
    64    26    25    2
    65   120   121    1
    66    98    97    1
    67   121   122    1
    68    25    24    1
    69    96    97    1
    70    96    95    1
    71    92    93    1
    72    92    95    1
    73    57    55   ar
    74    27    24    1
    75    94    93    2
    76    24    23    1
    77   122   126   am
    78   122   123    2
    79    63    62    1
    80    55    56   ar
    81    55    54    1
    82   126   127    1
    83   129   128    2
    84    54    51    1
    85    64    62    1
    86   147   145    1
    87    51    50    1
    88    51    52    1
    89   146   145    1
    90    62    59    1
    91   128   127    1
    92   127   130    1
    93    42    41   ar
    94   134   132   ar
    95   134   135   ar
    96   145   144    1
    97   132   131   ar
    98   158   156    1
    99    59    58    1
   100    59    60    1
   101   135   137   ar
   102   135   133   ar
   103    52    53    2
   104   131   130    1
   105   131   133   ar
   106    49    48    1
   107   137   139   ar
   108    41    43   ar
   109    41    40    1
   110   133   136   ar
   111   157   156    1
   112   156   155    2
   113   139   138   ar
   114   144   141    1
   115   136   138   ar
   116    48    45    1
   117    60    61    2
   118    60    65   am
   119    40    39    1
   120    39    36    1
   121   141   140    1
   122   141   142    1
   123   155   154    1
   124    65    66    1
   125    36    35    1
   126    36    37    1
   127    45    44    1
   128    45    46    1
   129   142   143    2
   130   154   153    1
   131    66    67    1
   132    66    69    1
   133    46    47    2
   134    37    38    2
   135    67    68    2
   136    69    70    1
   137   153   152    1
   138   152   149    1
   139   151   150    2
   140    70    71   ar
   141    70    72   ar
   142    71    73   ar
   143   150   149    1
   144   149   148    1
   145    72    75   ar
   146    72    74   ar
   147    73    74   ar
   148    75    77   ar
   149    74    76   ar
   150    77    78   ar
   151    76    78   ar
