@<TRIPOS>MOLECULE
tmp/4itzB00.pdb
 106 102 0 0 0
SMALL
GASTEIGER

@<TRIPOS>ATOM
      1  N         72.3120   20.9950   10.6020 N.3    49  PHE49      -0.1227
      2  CA        71.1650   21.1000   11.5250 C.3    49  PHE49       0.1736
      3  C         70.7570   19.7840   12.1630 C.2    49  PHE49       0.2595
      4  O         70.0710   19.7810   13.1970 O.2    49  PHE49      -0.2718
      5  CB        69.9570   21.7660   10.8380 C.3    49  PHE49       0.0547
      6  CG        69.5220   21.0980    9.5600 C.ar   49  PHE49      -0.0202
      7  CD1       68.7060   19.9640    9.5970 C.ar   49  PHE49      -0.0042
      8  CD2       69.8990   21.5880    8.3140 C.ar   49  PHE49      -0.0042
      9  CE1       68.2870   19.3480    8.4310 C.ar   49  PHE49      -0.0003
     10  CE2       69.4730   20.9770    7.1280 C.ar   49  PHE49      -0.0003
     11  CZ        68.6610   19.8270    7.1790 C.ar   49  PHE49      -0.0000
     12  N         71.1430   18.6650   11.5630 N.am   50  ASP50      -0.1974
     13  CA        70.7440   17.3710   12.1310 C.3    50  ASP50       0.1709
     14  C         71.6400   16.3200   11.5180 C.2    50  ASP50       0.2293
     15  O         72.0130   16.4120   10.3530 O.2    50  ASP50      -0.2864
     16  CB        69.2730   17.0970   11.8250 C.3    50  ASP50       0.1436
     17  CG        68.7600   15.7870   12.4370 C.2    50  ASP50       0.3671
     18  OD1       67.9080   15.1700   11.7930 O.co2  50  ASP50      -0.2456
     19  OD2       69.1730   15.4380   13.5670 O.co2  50  ASP50      -0.2456
     20  N         69.8020    5.8050   11.5430 N.3    59  PHE59      -0.1241
     21  CA        68.3990    6.2000   11.5810 C.3    59  PHE59       0.1605
     22  C         67.5960    5.2660   10.7040 C.2    59  PHE59       0.2264
     23  O         68.0220    4.9420    9.6000 O.2    59  PHE59      -0.2867
     24  CB        68.2900    7.6430   11.0730 C.3    59  PHE59       0.0534
     25  CG        66.9000    8.1890   11.1190 C.ar   59  PHE59      -0.0203
     26  CD1       66.4100    8.8110   12.2610 C.ar   59  PHE59      -0.0042
     27  CD2       66.0850    8.0780   10.0110 C.ar   59  PHE59      -0.0042
     28  CE1       65.1090    9.3050   12.2960 C.ar   59  PHE59      -0.0003
     29  CE2       64.8070    8.5770   10.0360 C.ar   59  PHE59      -0.0003
     30  CZ        64.3150    9.1880   11.1780 C.ar   59  PHE59      -0.0000
     31  N         55.8920    8.3050    4.0120 N.3    66  GLY66      -0.1210
     32  CA        55.6660    9.6630    4.4950 C.3    66  GLY66       0.1956
     33  C         56.1220    9.8850    5.9240 C.2    66  GLY66       0.2612
     34  O         55.5830   10.7500    6.6200 O.2    66  GLY66      -0.2717
     35  N         57.1080    9.1020    6.3620 N.am   67  GLU67      -0.1965
     36  CA        57.6230    9.1950    7.7360 C.3    67  GLU67       0.1733
     37  C         58.6750   10.2800    7.8680 C.2    67  GLU67       0.2616
     38  O         59.0340   10.7030    8.9920 O.2    67  GLU67      -0.2715
     39  CB        58.2750    7.8630    8.1130 C.3    67  GLU67       0.0429
     40  CG        57.2050    6.8150    8.3910 C.3    67  GLU67       0.1163
     41  CD        57.7690    5.5530    9.0040 C.2    67  GLU67       0.3649
     42  OE1       56.9790    4.6950    9.4390 O.co2  67  GLU67      -0.2457
     43  OE2       59.0010    5.4190    9.0380 O.co2  67  GLU67      -0.2457
     44  N         59.1770   10.7090    6.7160 N.am   68  VAL68      -0.1963
     45  CA        60.3030   11.6380    6.6400 C.3    68  VAL68       0.1727
     46  C         59.9710   12.6760    5.5780 C.2    68  VAL68       0.2616
     47  O         58.9670   12.5220    4.8400 O.2    68  VAL68      -0.2715
     48  CB        61.6000   10.8910    6.2300 C.3    68  VAL68       0.0290
     49  CG1       62.0140    9.9220    7.3740 C.3    68  VAL68       0.0023
     50  CG2       61.4280   10.1510    4.9320 C.3    68  VAL68       0.0023
     51  N         60.8090   13.7130    5.4480 N.am   69  ILE69      -0.1963
     52  CA        60.5650   14.6800    4.3710 C.3    69  ILE69       0.1727
     53  C         60.5520   14.0250    3.0000 C.2    69  ILE69       0.2616
     54  O         61.2030   13.0320    2.7680 O.2    69  ILE69      -0.2715
     55  CB        61.5750   15.8730    4.4270 C.3    69  ILE69       0.0290
     56  CG1       63.0180   15.3480    4.3200 C.3    69  ILE69       0.0022
     57  CG2       61.3720   16.6790    5.6780 C.3    69  ILE69       0.0023
     58  CD1       64.0320   16.4840    4.2170 C.3    69  ILE69       0.0001
     59  N         59.7830   14.5800    2.0740 N.am   70  LYS70      -0.1977
     60  CA        59.5680   13.9340    0.8010 C.3    70  LYS70       0.1596
     61  C         60.8680   13.6640    0.0550 C.2    70  LYS70       0.2287
     62  O         61.0150   12.6390   -0.6010 O.2    70  LYS70      -0.2864
     63  CB        58.6960   14.7930   -0.0740 C.3    70  LYS70       0.0298
     64  CG        58.1600   14.0600   -1.2680 C.3    70  LYS70       0.0038
     65  CD        57.3460   12.8390   -0.8370 C.3    70  LYS70       0.0206
     66  CE        56.8670   12.0330   -2.0520 C.3    70  LYS70       0.1093
     67  NZ        57.3650   10.6130   -2.0230 N.3    70  LYS70      -0.1314
     68  N         61.4830   19.5850    1.3010 N.3    94  GLY94      -0.1210
     69  CA        62.0240   19.6460    2.6290 C.3    94  GLY94       0.1956
     70  C         60.9720   20.1570    3.5720 C.2    94  GLY94       0.2611
     71  O         59.9190   19.5010    3.8000 O.2    94  GLY94      -0.2717
     72  N         61.2200   21.3390    4.1290 N.am   95  TYR95      -0.1976
     73  CA        60.2840   21.9240    5.0980 C.3    95  TYR95       0.1639
     74  C         59.5290   23.1480    4.5640 C.2    95  TYR95       0.2290
     75  O         58.8810   23.8990    5.3190 O.2    95  TYR95      -0.2864
     76  CB        60.9770   22.2510    6.4210 C.3    95  TYR95       0.0560
     77  CG        61.5470   21.0420    7.0940 C.ar   95  TYR95      -0.0198
     78  CD1       60.7710   20.2550    7.9490 C.ar   95  TYR95      -0.0009
     79  CD2       62.8560   20.6940    6.8690 C.ar   95  TYR95      -0.0009
     80  CE1       61.3180   19.1210    8.5680 C.ar   95  TYR95       0.0417
     81  CE2       63.4120   19.5890    7.4710 C.ar   95  TYR95       0.0417
     82  CZ        62.6490   18.8120    8.3130 C.ar   95  TYR95       0.1957
     83  OH        63.2580   17.7090    8.8910 O.3    95  TYR95      -0.2866
     84  N         61.2180   24.9310    9.6580 N.3   100  CYS100     -0.1235
     85  CA        60.9270   24.0840   10.8190 C.3   100  CYS100      0.1677
     86  C         61.8610   24.4300   11.9610 C.2   100  CYS100      0.2270
     87  O         63.0900   24.3950   11.8080 O.2   100  CYS100     -0.2867
     88  CB        61.1180   22.6150   10.4390 C.3   100  CYS100      0.0956
     89  SG        60.6200   21.4840   11.7390 S.3   100  CYS100     -0.0801
     90  N         63.9610   26.3000   15.0190 N.3   102  GLU102     -0.1245
     91  CA        64.9980   27.3160   15.0810 C.3   102  GLU102      0.1567
     92  C         66.0030   27.2480   13.9170 C.2   102  GLU102      0.2260
     93  O         66.4440   28.2740   13.3820 O.2   102  GLU102     -0.2867
     94  CB        65.7360   27.1480   16.4230 C.3   102  GLU102      0.0388
     95  CG        64.9310   26.3690   17.5160 C.3   102  GLU102      0.1160
     96  CD        64.7640   24.8590   17.2280 C.2   102  GLU102      0.3649
     97  OE1       65.4580   24.3200   16.3390 O.co2 102  GLU102     -0.2457
     98  OE2       63.9110   24.2170   17.8710 O.co2 102  GLU102     -0.2457
     99  N         65.9380   25.7410   10.7510 N.3   104  ILE104     -0.1245
    100  CA        65.6340   25.6650    9.3140 C.3   104  ILE104      0.1561
    101  C         64.6350   26.7490    8.9260 C.2   104  ILE104      0.2260
    102  O         63.4240   26.6520    9.2660 O.2   104  ILE104     -0.2867
    103  CB        65.0920   24.2920    8.9010 C.3   104  ILE104      0.0252
    104  CG1       66.1180   23.2020    9.2370 C.3   104  ILE104      0.0019
    105  CG2       64.7690   24.2850    7.3920 C.3   104  ILE104      0.0019
    106  CD1       65.6120   21.7840    9.0620 C.3   104  ILE104      0.0001
@<TRIPOS>BOND
     1    66    67    1
     2    66    65    1
     3    64    65    1
     4    64    63    1
     5    62    61    2
     6    63    60    1
     7    61    60    1
     8    60    59    1
     9    68    69    1
    10    59    53   am
    11    69    70    1
    12    54    53    2
    13    53    52    1
    14    70    71    2
    15    70    72   am
    16    31    32    1
    17    72    73    1
    18    58    56    1
    19    56    55    1
    20    52    55    1
    21    52    51    1
    22    55    57    1
    23    32    33    1
    24    74    73    1
    25    74    75    2
    26    47    46    2
    27    50    48    1
    28    73    76    1
    29    51    46   am
    30    46    45    1
    31    33    35   am
    32    33    34    2
    33    48    45    1
    34    48    49    1
    35    35    36    1
    36    76    77    1
    37    45    44    1
    38    44    37   am
    39    79    77   ar
    40    79    81   ar
    41    77    78   ar
    42    10    11   ar
    43    10     8   ar
    44    11     9   ar
    45   105   103    1
    46    81    82   ar
    47    36    37    1
    48    36    39    1
    49    37    38    2
    50    78    80   ar
    51    39    40    1
    52    82    80   ar
    53    82    83    1
    54     8     6   ar
    55    40    41    1
    56     9     7   ar
    57   103   104    1
    58   103   100    1
    59   101   102    2
    60   101   100    1
    61    41    43   ar
    62    41    42   ar
    63   106   104    1
    64   100    99    1
    65     6     7   ar
    66     6     5    1
    67    23    22    2
    68    84    85    1
    69    27    29   ar
    70    27    25   ar
    71    29    30   ar
    72    15    14    2
    73    88    85    1
    74    88    89    1
    75     1     2    1
    76    22    21    1
    77    85    86    1
    78     5     2    1
    79    24    25    1
    80    24    21    1
    81    25    26   ar
    82    30    28   ar
    83    14    13    1
    84     2     3    1
    85    20    21    1
    86    12    13    1
    87    12     3   am
    88    18    17   ar
    89    87    86    2
    90    16    13    1
    91    16    17    1
    92     3     4    2
    93    26    28   ar
    94    17    19   ar
    95    93    92    2
    96    92    91    1
    97    90    91    1
    98    91    94    1
    99    97    96   ar
   100    94    95    1
   101    96    95    1
   102    96    98   ar
