@<TRIPOS>MOLECULE
tmp/4iu0A00.pdb
 124 114 0 0 0
SMALL
GASTEIGER

@<TRIPOS>ATOM
      1  N          2.5380  -25.8970    8.6410 N.3   102  HIS102     -0.1241
      2  CA         2.6120  -26.2090    7.2170 C.3   102  HIS102      0.1621
      3  C          3.1150  -27.5830    6.8180 C.2   102  HIS102      0.2264
      4  O          3.0530  -27.9410    5.6440 O.2   102  HIS102     -0.2867
      5  CB         3.4080  -25.1310    6.4780 C.3   102  HIS102      0.0745
      6  CG         2.7640  -24.6920    5.1960 C.ar  102  HIS102      0.0817
      7  ND1        3.0600  -23.4940    4.5830 N.ar  102  HIS102     -0.2268
      8  CD2        1.8090  -25.2760    4.4350 C.ar  102  HIS102      0.1154
      9  CE1        2.3120  -23.3550    3.5050 C.ar  102  HIS102      0.1986
     10  NE2        1.5430  -24.4230    3.3920 N.ar  102  HIS102     -0.2212
     11  N          7.8330  -17.8430    3.4320 N.3   127  HIS127     -0.1241
     12  CA         8.9200  -18.8130    3.3190 C.3   127  HIS127      0.1621
     13  C          8.7390  -19.7860    2.1480 C.2   127  HIS127      0.2264
     14  O          7.6210  -20.0400    1.7000 O.2   127  HIS127     -0.2867
     15  CB         9.0400  -19.6090    4.6260 C.3   127  HIS127      0.0745
     16  CG         9.0790  -18.7530    5.8540 C.ar  127  HIS127      0.0817
     17  ND1        7.9410  -18.2520    6.4490 N.ar  127  HIS127     -0.2268
     18  CD2       10.1220  -18.2670    6.5700 C.ar  127  HIS127      0.1154
     19  CE1        8.2820  -17.4930    7.4760 C.ar  127  HIS127      0.1986
     20  NE2        9.6000  -17.4860    7.5700 N.ar  127  HIS127     -0.2212
     21  N          9.6620  -22.9720    2.2940 N.3   129  ASP129     -0.1239
     22  CA         9.3530  -24.2840    2.8560 C.3   129  ASP129      0.1674
     23  C          9.8780  -25.4120    1.9870 C.2   129  ASP129      0.2266
     24  O          9.1750  -26.3900    1.7410 O.2   129  ASP129     -0.2867
     25  CB         7.8390  -24.4270    3.0200 C.3   129  ASP129      0.1410
     26  CG         7.2910  -23.5130    4.1010 C.2   129  ASP129      0.3668
     27  OD1        8.0950  -22.7660    4.7020 O.co2 129  ASP129     -0.2456
     28  OD2        6.0690  -23.5410    4.3510 O.co2 129  ASP129     -0.2456
     29  N         13.3560  -26.5820    2.3880 N.3   131  ASN131     -0.1240
     30  CA        14.6250  -27.0570    2.9300 C.3   131  ASN131      0.1653
     31  C         14.6630  -28.5760    2.8530 C.2   131  ASN131      0.2266
     32  O         13.6620  -29.2410    3.1030 O.2   131  ASN131     -0.2867
     33  CB        14.7980  -26.6340    4.3870 C.3   131  ASN131      0.1155
     34  CG        15.5520  -25.3320    4.5250 C.2   131  ASN131      0.2627
     35  OD1       16.5940  -25.1380    3.8930 O.2   131  ASN131     -0.2716
     36  ND2       15.0390  -24.4350    5.3590 N.am  131  ASN131     -0.0877
     37  N         18.2280  -28.6220    6.0990 N.3   136  THR136     -0.1203
     38  CA        17.5890  -27.8480    7.1620 C.3   136  THR136      0.1994
     39  C         18.4910  -27.6170    8.3610 C.2   136  THR136      0.2618
     40  O         19.1140  -28.5460    8.8730 O.2   136  THR136     -0.2717
     41  CB        16.3160  -28.5240    7.6900 C.3   136  THR136      0.1784
     42  OG1       15.7500  -27.7040    8.7150 O.3   136  THR136     -0.2211
     43  CG2       16.6360  -29.8870    8.2860 C.3   136  THR136      0.0376
     44  N         18.5390  -26.3730    8.8180 N.am  137  VAL137     -0.1965
     45  CA        19.3550  -26.0200    9.9700 C.3   137  VAL137      0.1727
     46  C         18.5370  -26.1890   11.2530 C.2   137  VAL137      0.2616
     47  O         19.0140  -26.7500   12.2400 O.2   137  VAL137     -0.2715
     48  CB        19.8430  -24.5590    9.8640 C.3   137  VAL137      0.0290
     49  CG1       20.7530  -24.2210   11.0350 C.3   137  VAL137      0.0023
     50  CG2       20.5670  -24.3590    8.5510 C.3   137  VAL137      0.0023
     51  N         17.3010  -25.7000   11.2220 N.am  138  SER138     -0.1950
     52  CA        16.4000  -25.7860   12.3640 C.3   138  SER138      0.1924
     53  C         15.8450  -27.2060   12.5430 C.2   138  SER138      0.2314
     54  O         15.5090  -27.6170   13.6580 O.2   138  SER138     -0.2863
     55  CB        15.2350  -24.8190   12.1720 C.3   138  SER138      0.2116
     56  OG        14.4700  -25.1970   11.0390 O.3   138  SER138     -0.2180
     57  N         13.0610  -28.1360   11.7100 N.3   140  ASN140     -0.1240
     58  CA        11.6030  -28.0630   11.8040 C.3   140  ASN140      0.1653
     59  C         11.0110  -28.4100   10.4500 C.2   140  ASN140      0.2266
     60  O         11.1760  -27.6680    9.4790 O.2   140  ASN140     -0.2867
     61  CB        11.1510  -26.6660   12.2260 C.3   140  ASN140      0.1155
     62  CG        11.7140  -26.2620   13.5670 C.2   140  ASN140      0.2627
     63  OD1       11.8780  -27.0970   14.4530 O.2   140  ASN140     -0.2716
     64  ND2       12.0030  -24.9780   13.7300 N.am  140  ASN140     -0.0877
     65  N          8.0960  -28.2010    9.1840 N.3   142  HIS142     -0.1226
     66  CA         7.1050  -27.3570    8.5310 C.3   142  HIS142      0.1752
     67  C          7.7830  -26.4640    7.4870 C.2   142  HIS142      0.2596
     68  O          7.1110  -25.7960    6.7090 O.2   142  HIS142     -0.2718
     69  CB         6.3160  -26.5110    9.5430 C.3   142  HIS142      0.0759
     70  CG         7.1310  -25.4840   10.2620 C.ar  142  HIS142      0.0818
     71  ND1        6.5600  -24.3890   10.8800 N.ar  142  HIS142     -0.2268
     72  CD2        8.4620  -25.3970   10.4970 C.ar  142  HIS142      0.1154
     73  CE1        7.5050  -23.6720   11.4630 C.ar  142  HIS142      0.1986
     74  NE2        8.6680  -24.2610   11.2460 N.ar  142  HIS142     -0.2212
     75  N          9.1160  -26.4650    7.4790 N.am  143  GLY143     -0.1957
     76  CA         9.8690  -25.6910    6.5060 C.3   143  GLY143      0.1869
     77  C         10.5380  -26.6030    5.4830 C.2   143  GLY143      0.2309
     78  O         11.4620  -26.1810    4.7770 O.2   143  GLY143     -0.2863
     79  N         11.6810  -14.4870    3.1950 N.3   180  ALA180     -0.1245
     80  CA        12.5930  -15.0550    4.1830 C.3   180  ALA180      0.1562
     81  C         13.0470  -16.4200    3.6990 C.2   180  ALA180      0.2260
     82  O         12.8220  -17.4340    4.3520 O.2   180  ALA180     -0.2867
     83  CB        11.9120  -15.1750    5.5360 C.3   180  ALA180      0.0290
     84  N         15.9110  -19.1140    2.8050 N.3   182  ASP182     -0.1239
     85  CA        17.2540  -19.4720    3.2460 C.3   182  ASP182      0.1674
     86  C         18.1170  -19.5960    2.0020 C.2   182  ASP182      0.2266
     87  O         17.6130  -19.9020    0.9260 O.2   182  ASP182     -0.2867
     88  CB        17.2480  -20.8050    3.9980 C.3   182  ASP182      0.1410
     89  CG        16.4370  -20.7500    5.2760 C.2   182  ASP182      0.3668
     90  OD1       16.3820  -19.6670    5.8950 O.co2 182  ASP182     -0.2456
     91  OD2       15.8650  -21.7880    5.6730 O.co2 182  ASP182     -0.2456
     92  N         17.6990  -22.6140    0.0070 N.3   185  GLU185     -0.1245
     93  CA        16.4280  -22.5750   -0.7010 C.3   185  GLU185      0.1567
     94  C         16.4900  -21.6740   -1.9290 C.2   185  GLU185      0.2260
     95  O         15.8360  -21.9500   -2.9260 O.2   185  GLU185     -0.2867
     96  CB        15.3190  -22.0940    0.2300 C.3   185  GLU185      0.0388
     97  CG        14.9920  -23.0550    1.3500 C.3   185  GLU185      0.1160
     98  CD        13.9360  -22.4950    2.2670 C.2   185  GLU185      0.3649
     99  OE1       14.1790  -21.4160    2.8490 O.co2 185  GLU185     -0.2457
    100  OE2       12.8620  -23.1250    2.4000 O.co2 185  GLU185     -0.2457
    101  N         -0.1810  -20.0310    3.9260 N.3   231  ASP231     -0.1239
    102  CA         0.4810  -19.8490    5.2110 C.3   231  ASP231      0.1674
    103  C          0.1300  -18.4190    5.6350 C.2   231  ASP231      0.2266
    104  O          0.4200  -17.4580    4.9220 O.2   231  ASP231     -0.2867
    105  CB         1.9920  -20.0050    5.0510 C.3   231  ASP231      0.1410
    106  CG         2.7250  -20.0460    6.3820 C.2   231  ASP231      0.3668
    107  OD1        2.2710  -19.3920    7.3530 O.co2 231  ASP231     -0.2456
    108  OD2        3.7760  -20.7180    6.4500 O.co2 231  ASP231     -0.2456
    109  N          6.1390  -17.9550   12.7780 N.3   245  THR245     -0.1218
    110  CA         7.2870  -17.3770   12.0820 C.3   245  THR245      0.1862
    111  C          6.9470  -16.0750   11.3590 C.2   245  THR245      0.2287
    112  O          6.8890  -16.0320   10.1310 O.2   245  THR245     -0.2866
    113  CB         7.8530  -18.3790   11.0510 C.3   245  THR245      0.1770
    114  OG1        6.7760  -18.9000   10.2620 O.3   245  THR245     -0.2211
    115  CG2        8.5720  -19.5340   11.7500 C.3   245  THR245      0.0375
    116  N         -0.7840  -22.5200    9.8910 N.3   276  GLU276     -0.1245
    117  CA         0.0310  -21.7570   10.8260 C.3   276  GLU276      0.1567
    118  C         -0.6670  -20.7450   11.7360 C.2   276  GLU276      0.2260
    119  O         -0.0520  -19.7770   12.1610 O.2   276  GLU276     -0.2867
    120  CB         1.1850  -21.0700   10.0740 C.3   276  GLU276      0.0388
    121  CG         2.1770  -22.0240    9.3700 C.3   276  GLU276      0.1160
    122  CD         3.0590  -22.8370   10.3230 C.2   276  GLU276      0.3649
    123  OE1        2.9850  -22.6280   11.5550 O.co2 276  GLU276     -0.2457
    124  OE2        3.8420  -23.6890    9.8330 O.co2 276  GLU276     -0.2457
@<TRIPOS>BOND
     1    95    94    2
     2    94    93    1
     3    93    92    1
     4    93    96    1
     5    96    97    1
     6    87    86    2
     7    97    98    1
     8    14    13    2
     9    24    23    2
    10    23    22    1
    11    86    85    1
    12    13    12    1
    13    98   100   ar
    14    98    99   ar
    15    21    22    1
    16    29    30    1
    17    84    85    1
    18    31    30    1
    19    31    32    2
    20    22    25    1
    21    30    33    1
    22    25    26    1
    23    79    80    1
    24    85    88    1
    25    12    11    1
    26    12    15    1
    27    10     9   ar
    28    10     8   ar
    29     9     7   ar
    30    81    80    1
    31    81    82    2
    32    35    34    2
    33   101   102    1
    34    88    89    1
    35    26    28   ar
    36    26    27   ar
    37    80    83    1
    38    33    34    1
    39     8     6   ar
    40    34    36   am
    41     7     6   ar
    42    15    16    1
    43    78    77    2
    44   104   103    2
    45   105   102    1
    46   105   106    1
    47     6     5    1
    48   102   103    1
    49    89    91   ar
    50    89    90   ar
    51    77    76    1
    52     4     3    2
    53    16    17   ar
    54    16    18   ar
    55    37    38    1
    56   106   108   ar
    57   106   107   ar
    58    17    19   ar
    59     5     2    1
    60    76    75    1
    61    18    20   ar
    62    68    67    2
    63     3     2    1
    64    38    41    1
    65    38    39    1
    66     2     1    1
    67    19    20   ar
    68    75    67   am
    69    67    66    1
    70    41    43    1
    71    41    42    1
    72    39    44   am
    73    39    40    2
    74    66    65    1
    75    66    69    1
    76    50    48    1
    77    44    45    1
    78   121   120    1
    79   121   122    1
    80    60    59    2
    81    69    70    1
    82   124   122   ar
    83    48    45    1
    84    48    49    1
    85   116   117    1
    86    45    46    1
    87   120   117    1
    88   112   111    2
    89    70    72   ar
    90    70    71   ar
    91   114   113    1
    92   122   123   ar
    93    59    58    1
    94    72    74   ar
    95   117   118    1
    96    71    73   ar
    97    56    55    1
    98   113   115    1
    99   113   110    1
   100    51    46   am
   101    51    52    1
   102    74    73   ar
   103    46    47    2
   104   111   110    1
   105    57    58    1
   106   118   119    2
   107    58    61    1
   108   110   109    1
   109    55    52    1
   110    61    62    1
   111    52    53    1
   112    53    54    2
   113    62    64   am
   114    62    63    2
