@<TRIPOS>MOLECULE
tmp/4iu1A00.pdb
 140 128 0 0 0
SMALL
GASTEIGER

@<TRIPOS>ATOM
      1  N         21.0890  -15.1560   28.8250 N.3   102  HIS102     -0.1241
      2  CA        21.3210  -15.3380   30.2540 C.3   102  HIS102      0.1621
      3  C         22.2660  -16.4580   30.7030 C.2   102  HIS102      0.2264
      4  O         22.5800  -16.5650   31.8880 O.2   102  HIS102     -0.2867
      5  CB        19.9720  -15.4820   30.9640 C.3   102  HIS102      0.0745
      6  CG        19.9030  -14.7580   32.2720 C.ar  102  HIS102      0.0817
      7  ND1       18.7130  -14.4860   32.9120 N.ar  102  HIS102     -0.2268
      8  CD2       20.8770  -14.2300   33.0510 C.ar  102  HIS102      0.1154
      9  CE1       18.9560  -13.8190   34.0260 C.ar  102  HIS102      0.1986
     10  NE2       20.2620  -13.6500   34.1340 N.ar  102  HIS102     -0.2212
     11  N         13.8400  -11.6690   36.7480 N.3   125  ASP125     -0.1239
     12  CA        13.5220  -12.4340   35.5590 C.3   125  ASP125      0.1674
     13  C         12.0730  -12.9050   35.5490 C.2   125  ASP125      0.2266
     14  O         11.4030  -12.9600   36.5890 O.2   125  ASP125     -0.2867
     15  CB        14.4330  -13.6490   35.5520 C.3   125  ASP125      0.1410
     16  CG        14.6400  -14.2290   34.1840 C.2   125  ASP125      0.3668
     17  OD1       13.6830  -14.3040   33.3890 O.co2 125  ASP125     -0.2456
     18  OD2       15.7790  -14.6400   33.9290 O.co2 125  ASP125     -0.2456
     19  N         11.6040  -15.7650   34.1440 N.3   127  HIS127     -0.1241
     20  CA        11.9220  -17.1890   34.2260 C.3   127  HIS127      0.1621
     21  C         12.8720  -17.4710   35.3770 C.2   127  HIS127      0.2264
     22  O         13.6410  -16.6010   35.7830 O.2   127  HIS127     -0.2867
     23  CB        12.5670  -17.6560   32.9280 C.3   127  HIS127      0.0745
     24  CG        11.9030  -17.1170   31.7040 C.ar  127  HIS127      0.0817
     25  ND1       12.1050  -15.8290   31.2580 N.ar  127  HIS127     -0.2268
     26  CD2       11.0120  -17.6760   30.8540 C.ar  127  HIS127      0.1154
     27  CE1       11.3660  -15.6170   30.1840 C.ar  127  HIS127      0.1986
     28  NE2       10.6920  -16.7230   29.9180 N.ar  127  HIS127     -0.2212
     29  N         15.2170  -19.8420   35.2770 N.3   129  ASP129     -0.1239
     30  CA        16.4920  -20.3160   34.7390 C.3   129  ASP129      0.1674
     31  C         17.2140  -21.3080   35.6480 C.2   129  ASP129      0.2266
     32  O         18.4270  -21.2080   35.8550 O.2   129  ASP129     -0.2867
     33  CB        17.4010  -19.1260   34.4690 C.3   129  ASP129      0.1410
     34  CG        16.8590  -18.2270   33.3750 C.2   129  ASP129      0.3668
     35  OD1       15.9780  -18.6900   32.6090 O.co2 129  ASP129     -0.2456
     36  OD2       17.3230  -17.0690   33.2800 O.co2 129  ASP129     -0.2456
     37  N         16.4870  -24.8570   35.3480 N.3   131  ASN131     -0.1240
     38  CA        16.3290  -26.2030   34.7980 C.3   131  ASN131      0.1653
     39  C         17.6560  -26.9570   34.8140 C.2   131  ASN131      0.2266
     40  O         18.7300  -26.3710   34.6270 O.2   131  ASN131     -0.2867
     41  CB        15.8010  -26.1610   33.3590 C.3   131  ASN131      0.1155
     42  CG        14.2880  -26.1310   33.2910 C.2   131  ASN131      0.2627
     43  OD1       13.6060  -27.0240   33.8070 O.2   131  ASN131     -0.2716
     44  ND2       13.7540  -25.1070   32.6450 N.am  131  ASN131     -0.0877
     45  N         15.7940  -30.1480   31.7040 N.3   136  THR136     -0.1203
     46  CA        15.4940  -29.1660   30.6720 C.3   136  THR136      0.1994
     47  C         14.7500  -29.7600   29.4870 C.2   136  THR136      0.2618
     48  O         15.2720  -30.6200   28.7800 O.2   136  THR136     -0.2717
     49  CB        16.7510  -28.5050   30.1230 C.3   136  THR136      0.1784
     50  OG1       16.3780  -27.6280   29.0540 O.3   136  THR136     -0.2211
     51  CG2       17.7150  -29.5470   29.5960 C.3   136  THR136      0.0376
     52  N         13.5280  -29.2910   29.2650 N.am  137  VAL137     -0.1965
     53  CA        12.7390  -29.7860   28.1540 C.3   137  VAL137      0.1727
     54  C         13.2270  -29.1410   26.8590 C.2   137  VAL137      0.2616
     55  O         13.5100  -29.8310   25.8700 O.2   137  VAL137     -0.2715
     56  CB        11.2410  -29.4590   28.3300 C.3   137  VAL137      0.0290
     57  CG1       10.4250  -30.2990   27.3740 C.3   137  VAL137      0.0023
     58  CG2       10.8080  -29.6980   29.7710 C.3   137  VAL137      0.0023
     59  N         13.3420  -27.8140   26.8750 N.am  138  SER138     -0.1950
     60  CA        13.7770  -27.0640   25.7010 C.3   138  SER138      0.1924
     61  C         15.2350  -27.3130   25.3280 C.2   138  SER138      0.2314
     62  O         15.5920  -27.2710   24.1520 O.2   138  SER138     -0.2863
     63  CB        13.5740  -25.5710   25.9350 C.3   138  SER138      0.2116
     64  OG        14.4340  -25.1150   26.9630 O.3   138  SER138     -0.2180
     65  N         17.5850  -25.3660   25.8810 N.3   140  ASN140     -0.1240
     66  CA        18.2300  -24.0630   25.7200 C.3   140  ASN140      0.1653
     67  C         18.9090  -23.7260   27.0360 C.2   140  ASN140      0.2266
     68  O         18.2590  -23.4430   28.0410 O.2   140  ASN140     -0.2867
     69  CB        17.1970  -22.9980   25.3500 C.3   140  ASN140      0.1155
     70  CG        16.5590  -23.2630   24.0000 C.2   140  ASN140      0.2627
     71  OD1       17.2460  -23.6580   23.0640 O.2   140  ASN140     -0.2716
     72  ND2       15.2540  -23.0370   23.8870 N.am  140  ASN140     -0.0877
     73  N         20.2540  -21.2190   28.3090 N.3   142  HIS142     -0.1226
     74  CA        20.0530  -19.9580   29.0130 C.3   142  HIS142      0.1752
     75  C         19.0150  -20.1180   30.1240 C.2   142  HIS142      0.2596
     76  O         18.8200  -19.2090   30.9280 O.2   142  HIS142     -0.2718
     77  CB        19.6380  -18.8250   28.0610 C.3   142  HIS142      0.0759
     78  CG        18.3000  -19.0140   27.4160 C.ar  142  HIS142      0.0818
     79  ND1       17.6120  -17.9740   26.8230 N.ar  142  HIS142     -0.2268
     80  CD2       17.5480  -20.1230   27.2180 C.ar  142  HIS142      0.1154
     81  CE1       16.4970  -18.4360   26.2850 C.ar  142  HIS142      0.1986
     82  NE2       16.4340  -19.7370   26.5080 N.ar  142  HIS142     -0.2212
     83  N         18.3560  -21.2740   30.1670 N.am  143  GLY143     -0.1957
     84  CA        17.3730  -21.5250   31.2050 C.3   143  GLY143      0.1869
     85  C         17.8930  -22.5450   32.2060 C.2   143  GLY143      0.2309
     86  O         17.1260  -23.1170   32.9910 O.2   143  GLY143     -0.2863
     87  N          6.7750  -17.2610   34.4350 N.3   180  ALA180     -0.1245
     88  CA         6.8570  -18.3250   33.4330 C.3   180  ALA180      0.1562
     89  C          7.7900  -19.4260   33.9100 C.2   180  ALA180      0.2260
     90  O          8.8290  -19.6940   33.3050 O.2   180  ALA180     -0.2867
     91  CB         7.3300  -17.7740   32.0950 C.3   180  ALA180      0.0290
     92  N          8.6290  -23.4030   34.7780 N.3   182  ASP182     -0.1239
     93  CA         8.3220  -24.7610   34.3290 C.3   182  ASP182      0.1674
     94  C          7.9880  -25.6500   35.5260 C.2   182  ASP182      0.2266
     95  O          8.4670  -25.4140   36.6330 O.2   182  ASP182     -0.2867
     96  CB         9.5150  -25.3640   33.5820 C.3   182  ASP182      0.1410
     97  CG         9.9500  -24.5300   32.3890 C.2   182  ASP182      0.3668
     98  OD1        9.0790  -23.9350   31.7120 O.co2 182  ASP182     -0.2456
     99  OD2       11.1690  -24.4890   32.1150 O.co2 182  ASP182     -0.2456
    100  N         10.8860  -26.6910   37.4520 N.3   185  GLU185     -0.1245
    101  CA        11.4400  -25.5920   38.2210 C.3   185  GLU185      0.1567
    102  C         10.5940  -25.2460   39.4340 C.2   185  GLU185      0.2260
    103  O         11.1260  -24.8570   40.4650 O.2   185  GLU185     -0.2867
    104  CB        11.5930  -24.3640   37.3310 C.3   185  GLU185      0.0388
    105  CG        12.5720  -24.5670   36.2040 C.3   185  GLU185      0.1160
    106  CD        12.7790  -23.3120   35.3930 C.2   185  GLU185      0.3649
    107  OE1       11.8030  -22.8410   34.7640 O.co2 185  GLU185     -0.2457
    108  OE2       13.9190  -22.7990   35.3860 O.co2 185  GLU185     -0.2457
    109  N         17.5040   -9.7340   33.6990 N.3   231  ASP231     -0.1239
    110  CA        16.9930  -10.1930   32.4120 C.3   231  ASP231      0.1674
    111  C         15.9220   -9.1760   31.9940 C.2   231  ASP231      0.2266
    112  O         14.9010   -9.0200   32.6700 O.2   231  ASP231     -0.2867
    113  CB        16.3750  -11.5860   32.5650 C.3   231  ASP231      0.1410
    114  CG        16.0660  -12.2470   31.2300 C.2   231  ASP231      0.3668
    115  OD1       15.7890  -11.5300   30.2400 O.co2 231  ASP231     -0.2456
    116  OD2       16.0810  -13.4920   31.1750 O.co2 231  ASP231     -0.2456
    117  N         13.6960   -9.3290   29.8490 N.3   233  ASP233     -0.1239
    118  CA        12.3830   -9.8900   29.5380 C.3   233  ASP233      0.1674
    119  C         11.4790   -9.9460   30.7640 C.2   233  ASP233      0.2266
    120  O         10.3480  -10.4210   30.6910 O.2   233  ASP233     -0.2867
    121  CB        12.5050  -11.2730   28.8600 C.3   233  ASP233      0.1410
    122  CG        12.9040  -12.3910   29.8110 C.2   233  ASP233      0.3668
    123  OD1       13.3190  -13.4470   29.2960 O.co2 233  ASP233     -0.2456
    124  OD2       12.7950  -12.2470   31.0450 O.co2 233  ASP233     -0.2456
    125  N         12.3400  -14.6320   24.6540 N.3   245  THR245     -0.1218
    126  CA        11.1950  -15.3400   25.2300 C.3   245  THR245      0.1862
    127  C         10.3140  -14.4330   26.0960 C.2   245  THR245      0.2287
    128  O         10.3300  -14.5130   27.3210 O.2   245  THR245     -0.2866
    129  CB        11.6820  -16.5250   26.0780 C.3   245  THR245      0.1770
    130  OG1       12.7370  -16.0800   26.9350 O.3   245  THR245     -0.2211
    131  CG2       12.2070  -17.6480   25.1910 C.3   245  THR245      0.0375
    132  N         19.6210  -10.5040   27.6820 N.3   276  GLU276     -0.1245
    133  CA        18.5330  -10.8540   26.7630 C.3   276  GLU276      0.1567
    134  C         18.0580   -9.8030   25.7610 C.2   276  GLU276      0.2260
    135  O         16.9560   -9.9110   25.2290 O.2   276  GLU276     -0.2867
    136  CB        17.3280  -11.4060   27.5440 C.3   276  GLU276      0.0388
    137  CG        17.5520  -12.7800   28.2200 C.3   276  GLU276      0.1160
    138  CD        17.9800  -13.8910   27.2520 C.2   276  GLU276      0.3649
    139  OE1       17.6740  -13.7850   26.0440 O.co2 276  GLU276     -0.2457
    140  OE2       18.6070  -14.8840   27.7010 O.co2 276  GLU276     -0.2457
@<TRIPOS>BOND
     1    71    70    2
     2    72    70   am
     3    70    69    1
     4    62    61    2
     5   125   126    1
     6   131   129    1
     7   135   134    2
     8   126   129    1
     9   126   127    1
    10    61    60    1
    11    69    66    1
    12    60    63    1
    13    60    59    1
    14    66    65    1
    15    66    67    1
    16   134   133    1
    17    55    54    2
    18    63    64    1
    19   139   138   ar
    20   129   130    1
    21   127   128    2
    22    81    82   ar
    23    81    79   ar
    24    82    80   ar
    25   133   136    1
    26   133   132    1
    27    79    78   ar
    28    54    59   am
    29    54    53    1
    30    67    68    2
    31    80    78   ar
    32   138   140   ar
    33   138   137    1
    34    57    56    1
    35    78    77    1
    36   136   137    1
    37    77    74    1
    38    53    56    1
    39    53    52    1
    40    73    74    1
    41    56    58    1
    42    48    47    2
    43     1     2    1
    44   121   118    1
    45   121   122    1
    46    74    75    1
    47    50    49    1
    48    52    47   am
    49   123   122   ar
    50    47    46    1
    51   118   117    1
    52   118   119    1
    53    51    49    1
    54   122   124   ar
    55    28    27   ar
    56    28    26   ar
    57    49    46    1
    58    75    83   am
    59    75    76    2
    60    83    84    1
    61    27    25   ar
    62   115   114   ar
    63     2     3    1
    64     2     5    1
    65    46    45    1
    66   120   119    2
    67     3     4    2
    68    26    24   ar
    69     5     6    1
    70   116   114   ar
    71    84    85    1
    72   114   113    1
    73    25    24   ar
    74    24    23    1
    75    98    97   ar
    76   111   110    1
    77   111   112    2
    78    91    88    1
    79    99    97   ar
    80    85    86    2
    81     6     7   ar
    82     6     8   ar
    83    97    96    1
    84   110   113    1
    85   110   109    1
    86    35    34   ar
    87    44    42   am
    88     7     9   ar
    89    23    20    1
    90     8    10   ar
    91    36    34   ar
    92    42    41    1
    93    42    43    2
    94    90    89    2
    95    41    38    1
    96    34    33    1
    97    17    16   ar
    98    88    89    1
    99    88    87    1
   100    96    93    1
   101    18    16   ar
   102     9    10   ar
   103    19    20    1
   104    16    15    1
   105    20    21    1
   106    93    92    1
   107    93    94    1
   108    33    30    1
   109    40    39    2
   110    30    29    1
   111    30    31    1
   112   107   106   ar
   113    38    39    1
   114    38    37    1
   115    21    22    2
   116   108   106   ar
   117   106   105    1
   118    94    95    2
   119    13    12    1
   120    13    14    2
   121    15    12    1
   122    12    11    1
   123    31    32    2
   124   105   104    1
   125   104   101    1
   126   100   101    1
   127   101   102    1
   128   102   103    2
