@<TRIPOS>MOLECULE
tmp/4iu4A00.pdb
 124 114 0 0 0
SMALL
GASTEIGER

@<TRIPOS>ATOM
      1  N         21.0250  -15.2010   -8.4430 N.3   102  HIS102     -0.1241
      2  CA        21.2960  -15.3850   -7.0250 C.3   102  HIS102      0.1621
      3  C         22.2290  -16.5010   -6.6010 C.2   102  HIS102      0.2264
      4  O         22.5170  -16.6390   -5.4160 O.2   102  HIS102     -0.2867
      5  CB        19.9830  -15.4970   -6.2620 C.3   102  HIS102      0.0745
      6  CG        19.9630  -14.7020   -4.9930 C.ar  102  HIS102      0.0817
      7  ND1       18.7940  -14.3290   -4.3640 N.ar  102  HIS102     -0.2268
      8  CD2       20.9700  -14.1950   -4.2440 C.ar  102  HIS102      0.1154
      9  CE1       19.0820  -13.6240   -3.2850 C.ar  102  HIS102      0.1986
     10  NE2       20.3950  -13.5280   -3.1890 N.ar  102  HIS102     -0.2212
     11  N         11.4170  -15.6780   -3.1380 N.3   127  HIS127     -0.1241
     12  CA        11.6810  -17.1090   -3.0320 C.3   127  HIS127      0.1621
     13  C         12.6360  -17.4280   -1.8910 C.2   127  HIS127      0.2264
     14  O         13.4110  -16.5710   -1.4590 O.2   127  HIS127     -0.2867
     15  CB        12.2810  -17.6420   -4.3340 C.3   127  HIS127      0.0745
     16  CG        11.5330  -17.2310   -5.5640 C.ar  127  HIS127      0.0817
     17  ND1       11.8060  -16.0660   -6.2480 N.ar  127  HIS127     -0.2268
     18  CD2       10.5000  -17.8160   -6.2160 C.ar  127  HIS127      0.1154
     19  CE1       10.9730  -15.9500   -7.2670 C.ar  127  HIS127      0.1986
     20  NE2       10.1700  -16.9990   -7.2690 N.ar  127  HIS127     -0.2212
     21  N         15.0460  -19.8410   -2.0500 N.3   129  ASP129     -0.1239
     22  CA        16.3600  -20.2230   -2.5860 C.3   129  ASP129      0.1674
     23  C         17.0700  -21.2420   -1.7120 C.2   129  ASP129      0.2266
     24  O         18.2930  -21.2020   -1.5580 O.2   129  ASP129     -0.2867
     25  CB        17.2460  -18.9860   -2.7230 C.3   129  ASP129      0.1410
     26  CG        16.7120  -18.0110   -3.7460 C.2   129  ASP129      0.3668
     27  OD1       15.6950  -18.3350   -4.3960 O.co2 129  ASP129     -0.2456
     28  OD2       17.3040  -16.9300   -3.9030 O.co2 129  ASP129     -0.2456
     29  N         16.3020  -24.7860   -1.9510 N.3   131  ASN131     -0.1240
     30  CA        16.0650  -26.1360   -2.4300 C.3   131  ASN131      0.1653
     31  C         17.3680  -26.9130   -2.3140 C.2   131  ASN131      0.2266
     32  O         18.4580  -26.3400   -2.4290 O.2   131  ASN131     -0.2867
     33  CB        15.6010  -26.1300   -3.8850 C.3   131  ASN131      0.1155
     34  CG        14.0970  -26.0930   -4.0080 C.2   131  ASN131      0.2627
     35  OD1       13.3980  -26.9090   -3.4040 O.2   131  ASN131     -0.2716
     36  ND2       13.5860  -25.1500   -4.7920 N.am  131  ASN131     -0.0877
     37  N         15.5780  -30.1400   -5.6220 N.3   136  THR136     -0.1203
     38  CA        15.1930  -29.1660   -6.6330 C.3   136  THR136      0.1994
     39  C         14.5370  -29.8770   -7.8040 C.2   136  THR136      0.2618
     40  O         14.9870  -30.9430   -8.2210 O.2   136  THR136     -0.2717
     41  CB        16.3980  -28.3760   -7.1710 C.3   136  THR136      0.1784
     42  OG1       15.9650  -27.5180   -8.2350 O.3   136  THR136     -0.2211
     43  CG2       17.4610  -29.3250   -7.7050 C.3   136  THR136      0.0376
     44  N         13.4730  -29.2810   -8.3300 N.am  137  VAL137     -0.1965
     45  CA        12.7560  -29.8540   -9.4590 C.3   137  VAL137      0.1727
     46  C         13.2840  -29.2440  -10.7620 C.2   137  VAL137      0.2616
     47  O         13.4990  -29.9480  -11.7540 O.2   137  VAL137     -0.2715
     48  CB        11.2370  -29.5800   -9.3320 C.3   137  VAL137      0.0290
     49  CG1       10.4910  -30.1660  -10.5150 C.3   137  VAL137      0.0023
     50  CG2       10.7160  -30.1750   -8.0430 C.3   137  VAL137      0.0023
     51  N         13.5050  -27.9330  -10.7490 N.am  138  SER138     -0.1950
     52  CA        14.0010  -27.2280  -11.9230 C.3   138  SER138      0.1924
     53  C         15.4990  -27.4670  -12.1410 C.2   138  SER138      0.2314
     54  O         15.9760  -27.4880  -13.2800 O.2   138  SER138     -0.2863
     55  CB        13.7390  -25.7300  -11.7710 C.3   138  SER138      0.2116
     56  OG        14.4270  -25.2220  -10.6450 O.3   138  SER138     -0.2180
     57  N         17.6900  -25.4360  -11.2640 N.3   140  ASN140     -0.1240
     58  CA        18.3270  -24.1320  -11.3910 C.3   140  ASN140      0.1653
     59  C         18.9680  -23.7790  -10.0630 C.2   140  ASN140      0.2266
     60  O         18.2770  -23.5880   -9.0610 O.2   140  ASN140     -0.2867
     61  CB        17.3050  -23.0790  -11.7980 C.3   140  ASN140      0.1155
     62  CG        16.7060  -23.3710  -13.1520 C.2   140  ASN140      0.2627
     63  OD1       17.3790  -23.9260  -14.0220 O.2   140  ASN140     -0.2716
     64  ND2       15.4480  -22.9950  -13.3460 N.am  140  ASN140     -0.0877
     65  N         20.2650  -21.0940   -8.8650 N.3   142  HIS142     -0.1226
     66  CA        20.0180  -19.8240   -8.1910 C.3   142  HIS142      0.1752
     67  C         18.9300  -20.0070   -7.1280 C.2   142  HIS142      0.2596
     68  O         18.7170  -19.1360   -6.2890 O.2   142  HIS142     -0.2718
     69  CB        19.6400  -18.7000   -9.1770 C.3   142  HIS142      0.0759
     70  CG        18.3240  -18.8850   -9.8710 C.ar  142  HIS142      0.0818
     71  ND1       17.6770  -17.8450  -10.5100 N.ar  142  HIS142     -0.2268
     72  CD2       17.5630  -19.9840  -10.0810 C.ar  142  HIS142      0.1154
     73  CE1       16.5770  -18.2970  -11.0860 C.ar  142  HIS142      0.1986
     74  NE2       16.4840  -19.5920  -10.8420 N.ar  142  HIS142     -0.2212
     75  N         18.2590  -21.1570   -7.1610 N.am  143  GLY143     -0.1957
     76  CA        17.2320  -21.4520   -6.1800 C.3   143  GLY143      0.1869
     77  C         17.7040  -22.4410   -5.1200 C.2   143  GLY143      0.2309
     78  O         16.8850  -22.9880   -4.3750 O.2   143  GLY143     -0.2863
     79  N          6.6520  -17.2780   -2.9240 N.3   180  ALA180     -0.1245
     80  CA         6.7050  -18.3720   -3.8970 C.3   180  ALA180      0.1562
     81  C          7.6530  -19.4610   -3.3790 C.2   180  ALA180      0.2260
     82  O          8.6590  -19.7840   -4.0020 O.2   180  ALA180     -0.2867
     83  CB         7.1730  -17.8470   -5.2490 C.3   180  ALA180      0.0290
     84  N          8.5770  -23.2950   -2.4250 N.3   182  ASP182     -0.1239
     85  CA         8.2490  -24.6670   -2.8130 C.3   182  ASP182      0.1674
     86  C          7.9370  -25.4670   -1.5560 C.2   182  ASP182      0.2266
     87  O          8.4790  -25.1920   -0.4830 O.2   182  ASP182     -0.2867
     88  CB         9.4150  -25.3410   -3.5400 C.3   182  ASP182      0.1410
     89  CG         9.7840  -24.6400   -4.8300 C.2   182  ASP182      0.3668
     90  OD1        8.9370  -23.9080   -5.3810 O.co2 182  ASP182     -0.2456
     91  OD2       10.9250  -24.8360   -5.2980 O.co2 182  ASP182     -0.2456
     92  N         10.7900  -26.5650    0.3700 N.3   185  GLU185     -0.1245
     93  CA        11.3970  -25.4360    1.0550 C.3   185  GLU185      0.1567
     94  C         10.6100  -25.0850    2.3070 C.2   185  GLU185      0.2260
     95  O         11.1970  -24.7330    3.3310 O.2   185  GLU185     -0.2867
     96  CB        11.4540  -24.2270    0.1290 C.3   185  GLU185      0.0388
     97  CG        12.3880  -24.4030   -1.0350 C.3   185  GLU185      0.1160
     98  CD        12.4100  -23.1900   -1.9200 C.2   185  GLU185      0.3649
     99  OE1       11.3380  -22.8320   -2.4630 O.co2 185  GLU185     -0.2457
    100  OE2       13.4950  -22.5930   -2.0730 O.co2 185  GLU185     -0.2457
    101  N         17.3590   -9.8360   -3.7430 N.3   231  ASP231     -0.1239
    102  CA        16.8730  -10.3430   -5.0270 C.3   231  ASP231      0.1674
    103  C         15.8170   -9.3170   -5.4550 C.2   231  ASP231      0.2266
    104  O         14.8600   -9.0750   -4.7270 O.2   231  ASP231     -0.2867
    105  CB        16.2210  -11.7170   -4.8270 C.3   231  ASP231      0.1410
    106  CG        15.8400  -12.3940   -6.1410 C.2   231  ASP231      0.3668
    107  OD1       15.5360  -11.6900   -7.1300 O.co2 231  ASP231     -0.2456
    108  OD2       15.8260  -13.6420   -6.1750 O.co2 231  ASP231     -0.2456
    109  N         12.2720  -14.5110  -12.6060 N.3   245  THR245     -0.1218
    110  CA        11.1830  -15.1760  -11.8900 C.3   245  THR245      0.1862
    111  C         10.2370  -14.2090  -11.1640 C.2   245  THR245      0.2287
    112  O         10.1280  -14.2380   -9.9370 O.2   245  THR245     -0.2866
    113  CB        11.7420  -16.1830  -10.8520 C.3   245  THR245      0.1770
    114  OG1       12.6740  -15.5100   -9.9970 O.3   245  THR245     -0.2211
    115  CG2       12.4400  -17.3530  -11.5450 C.3   245  THR245      0.0375
    116  N         19.7370  -10.5590   -9.7270 N.3   276  GLU276     -0.1245
    117  CA        18.6590  -10.8830  -10.6470 C.3   276  GLU276      0.1567
    118  C         18.1450   -9.8170  -11.6140 C.2   276  GLU276      0.2260
    119  O         17.0440   -9.9500  -12.1290 O.2   276  GLU276     -0.2867
    120  CB        17.4760  -11.4940   -9.8730 C.3   276  GLU276      0.0388
    121  CG        17.7700  -12.8380   -9.1600 C.3   276  GLU276      0.1160
    122  CD        18.0810  -14.0070  -10.1070 C.2   276  GLU276      0.3649
    123  OE1       17.8770  -13.8710  -11.3370 O.co2 276  GLU276     -0.2457
    124  OE2       18.5210  -15.0770   -9.6150 O.co2 276  GLU276     -0.2457
@<TRIPOS>BOND
     1    63    62    2
     2    64    62   am
     3    54    53    2
     4    62    61    1
     5   109   110    1
     6    53    52    1
     7   119   118    2
     8    52    55    1
     9    52    51    1
    10   110   111    1
    11   110   113    1
    12    61    58    1
    13    55    56    1
    14    47    46    2
    15   118   117    1
    16   115   113    1
    17    58    57    1
    18    58    59    1
    19   123   122   ar
    20   111   112    2
    21    73    74   ar
    22    73    71   ar
    23   113   114    1
    24    74    72   ar
    25    46    51   am
    26    46    45    1
    27   117   120    1
    28   117   116    1
    29    49    48    1
    30    71    70   ar
    31   122   124   ar
    32   122   121    1
    33    72    70   ar
    34    59    60    2
    35   120   121    1
    36    70    69    1
    37    45    48    1
    38    45    44    1
    39    48    50    1
    40    69    66    1
    41    65    66    1
    42     1     2    1
    43    44    39   am
    44    42    41    1
    45    40    39    2
    46    66    67    1
    47    39    38    1
    48    43    41    1
    49    20    19   ar
    50    20    18   ar
    51    19    17   ar
    52    41    38    1
    53    75    67   am
    54    75    76    1
    55   107   106   ar
    56    67    68    2
    57     2     3    1
    58     2     5    1
    59    38    37    1
    60     3     4    2
    61     5     6    1
    62    17    16   ar
    63    18    16   ar
    64    76    77    1
    65   108   106   ar
    66   106   105    1
    67    16    15    1
    68   103   102    1
    69   103   104    2
    70    90    89   ar
    71    91    89   ar
    72    83    80    1
    73    77    78    2
    74   102   105    1
    75   102   101    1
    76     6     7   ar
    77     6     8   ar
    78    89    88    1
    79    36    34   am
    80    27    26   ar
    81     7     9   ar
    82    15    12    1
    83     8    10   ar
    84    34    33    1
    85    34    35    2
    86    82    81    2
    87    28    26   ar
    88    80    81    1
    89    80    79    1
    90    33    30    1
    91    26    25    1
    92    88    85    1
    93     9    10   ar
    94    11    12    1
    95    12    13    1
    96    85    84    1
    97    85    86    1
    98    25    22    1
    99    22    21    1
   100    22    23    1
   101    99    98   ar
   102    30    31    1
   103    30    29    1
   104    32    31    2
   105   100    98   ar
   106    98    97    1
   107    13    14    2
   108    23    24    2
   109    86    87    2
   110    97    96    1
   111    96    93    1
   112    92    93    1
   113    93    94    1
   114    94    95    2
