@<TRIPOS>MOLECULE
tmp/4iu5A00.pdb
 132 121 0 0 0
SMALL
GASTEIGER

@<TRIPOS>ATOM
      1  N         21.0070  -15.0840   -8.4970 N.3   102  HIS102     -0.1241
      2  CA        21.2650  -15.2730   -7.0800 C.3   102  HIS102      0.1621
      3  C         22.1980  -16.4140   -6.6990 C.2   102  HIS102      0.2264
      4  O         22.4470  -16.6300   -5.5120 O.2   102  HIS102     -0.2867
      5  CB        19.9500  -15.3990   -6.3110 C.3   102  HIS102      0.0745
      6  CG        19.9290  -14.6050   -5.0410 C.ar  102  HIS102      0.0817
      7  ND1       18.7620  -14.2370   -4.4060 N.ar  102  HIS102     -0.2268
      8  CD2       20.9370  -14.0670   -4.3120 C.ar  102  HIS102      0.1154
      9  CE1       19.0520  -13.5010   -3.3470 C.ar  102  HIS102      0.1986
     10  NE2       20.3650  -13.3820   -3.2680 N.ar  102  HIS102     -0.2212
     11  N         11.6820  -15.6610   -3.4350 N.3   127  HIS127     -0.1241
     12  CA        11.9710  -17.0870   -3.2830 C.3   127  HIS127      0.1621
     13  C         12.9280  -17.3650   -2.1360 C.2   127  HIS127      0.2264
     14  O         13.7230  -16.5080   -1.7560 O.2   127  HIS127     -0.2867
     15  CB        12.5970  -17.6520   -4.5560 C.3   127  HIS127      0.0745
     16  CG        11.9020  -17.2300   -5.8070 C.ar  127  HIS127      0.0817
     17  ND1       12.1270  -16.0080   -6.4030 N.ar  127  HIS127     -0.2268
     18  CD2       10.9630  -17.8510   -6.5590 C.ar  127  HIS127      0.1154
     19  CE1       11.3550  -15.8940   -7.4690 C.ar  127  HIS127      0.1986
     20  NE2       10.6390  -16.9990   -7.5860 N.ar  127  HIS127     -0.2212
     21  N         15.2910  -19.7240   -2.2370 N.3   129  ASP129     -0.1239
     22  CA        16.5840  -20.1510   -2.7790 C.3   129  ASP129      0.1674
     23  C         17.2340  -21.1740   -1.8610 C.2   129  ASP129      0.2266
     24  O         18.4060  -21.0370   -1.5130 O.2   129  ASP129     -0.2867
     25  CB        17.5350  -18.9620   -2.9180 C.3   129  ASP129      0.1410
     26  CG        17.0700  -17.9590   -3.9540 C.2   129  ASP129      0.3668
     27  OD1       16.1800  -18.3030   -4.7650 O.co2 129  ASP129     -0.2456
     28  OD2       17.6030  -16.8290   -3.9600 O.co2 129  ASP129     -0.2456
     29  N         16.4250  -24.8500   -2.2470 N.3   131  ASN131     -0.1240
     30  CA        16.2210  -26.2130   -2.7360 C.3   131  ASN131      0.1653
     31  C         17.5360  -26.9800   -2.6370 C.2   131  ASN131      0.2266
     32  O         18.6110  -26.4200   -2.8650 O.2   131  ASN131     -0.2867
     33  CB        15.7570  -26.2210   -4.1960 C.3   131  ASN131      0.1155
     34  CG        14.2540  -26.1440   -4.3300 C.2   131  ASN131      0.2627
     35  OD1       13.5220  -26.8930   -3.6760 O.2   131  ASN131     -0.2716
     36  ND2       13.7800  -25.2450   -5.1910 N.am  131  ASN131     -0.0877
     37  N         15.7660  -30.0710   -5.7700 N.3   136  THR136     -0.1203
     38  CA        15.5010  -29.1790   -6.9030 C.3   136  THR136      0.1994
     39  C         14.7920  -29.8220   -8.0860 C.2   136  THR136      0.2618
     40  O         15.2850  -30.7780   -8.6810 O.2   136  THR136     -0.2717
     41  CB        16.7820  -28.5400   -7.4600 C.3   136  THR136      0.1784
     42  OG1       16.4330  -27.6810   -8.5530 O.3   136  THR136     -0.2211
     43  CG2       17.7450  -29.6070   -7.9660 C.3   136  THR136      0.0376
     44  N         13.6410  -29.2700   -8.4390 N.am  137  VAL137     -0.1965
     45  CA        12.8750  -29.7870   -9.5540 C.3   137  VAL137      0.1727
     46  C         13.4080  -29.2340  -10.8820 C.2   137  VAL137      0.2616
     47  O         13.5430  -29.9690  -11.8660 O.2   137  VAL137     -0.2715
     48  CB        11.3790  -29.4220   -9.3980 C.3   137  VAL137      0.0290
     49  CG1       10.5900  -29.8880  -10.6130 C.3   137  VAL137      0.0023
     50  CG2       10.8230  -30.0560   -8.1370 C.3   137  VAL137      0.0023
     51  N         13.7300  -27.9430  -10.8990 N.am  138  SER138     -0.1950
     52  CA        14.2220  -27.2850  -12.1090 C.3   138  SER138      0.1924
     53  C         15.7260  -27.4130  -12.3280 C.2   138  SER138      0.2314
     54  O         16.2140  -27.1960  -13.4390 O.2   138  SER138     -0.2863
     55  CB        13.8660  -25.8060  -12.0710 C.3   138  SER138      0.2116
     56  OG        14.6020  -25.1670  -11.0440 O.3   138  SER138     -0.2180
     57  N         17.9300  -25.4390  -11.5860 N.3   140  ASN140     -0.1240
     58  CA        18.5880  -24.1390  -11.6990 C.3   140  ASN140      0.1653
     59  C         19.2160  -23.8220  -10.3450 C.2   140  ASN140      0.2266
     60  O         18.5240  -23.6850   -9.3350 O.2   140  ASN140     -0.2867
     61  CB        17.5890  -23.0480  -12.0980 C.3   140  ASN140      0.1155
     62  CG        17.1020  -23.2010  -13.5290 C.2   140  ASN140      0.2627
     63  OD1       17.9020  -23.3680  -14.4510 O.2   140  ASN140     -0.2716
     64  ND2       15.7880  -23.1370  -13.7230 N.am  140  ASN140     -0.0877
     65  N         20.4030  -21.1820   -9.0580 N.3   142  HIS142     -0.1226
     66  CA        20.1240  -19.9170   -8.3950 C.3   142  HIS142      0.1752
     67  C         19.0170  -20.1100   -7.3580 C.2   142  HIS142      0.2596
     68  O         18.7070  -19.2010   -6.5860 O.2   142  HIS142     -0.2718
     69  CB        19.7330  -18.8460   -9.4120 C.3   142  HIS142      0.0759
     70  CG        18.5250  -19.1890  -10.2230 C.ar  142  HIS142      0.0818
     71  ND1       18.0740  -18.3930  -11.2530 N.ar  142  HIS142     -0.2268
     72  CD2       17.6750  -20.2420  -10.1620 C.ar  142  HIS142      0.1154
     73  CE1       17.0000  -18.9420  -11.7940 C.ar  142  HIS142      0.1986
     74  NE2       16.7370  -20.0640  -11.1500 N.ar  142  HIS142     -0.2212
     75  N         18.4360  -21.3090   -7.3410 N.am  143  GLY143     -0.1957
     76  CA        17.3890  -21.6260   -6.3830 C.3   143  GLY143      0.1869
     77  C         17.8610  -22.6390   -5.3500 C.2   143  GLY143      0.2309
     78  O         17.0520  -23.2300   -4.6300 O.2   143  GLY143     -0.2863
     79  N          6.9250  -17.2230   -3.2190 N.3   180  ALA180     -0.1245
     80  CA         7.0220  -18.2790   -4.2350 C.3   180  ALA180      0.1562
     81  C          7.9280  -19.3960   -3.7150 C.2   180  ALA180      0.2260
     82  O          8.9700  -19.6950   -4.2920 O.2   180  ALA180     -0.2867
     83  CB         7.5710  -17.7100   -5.5430 C.3   180  ALA180      0.0290
     84  N          8.7010  -23.3150   -2.8120 N.3   182  ASP182     -0.1239
     85  CA         8.3440  -24.6650   -3.2490 C.3   182  ASP182      0.1674
     86  C          8.0130  -25.5180   -2.0300 C.2   182  ASP182      0.2266
     87  O          8.5600  -25.3040   -0.9510 O.2   182  ASP182     -0.2867
     88  CB         9.4900  -25.3130   -4.0310 C.3   182  ASP182      0.1410
     89  CG         9.8750  -24.5200   -5.2640 C.2   182  ASP182      0.3668
     90  OD1        8.9580  -24.0540   -5.9700 O.co2 182  ASP182     -0.2456
     91  OD2       11.0870  -24.3680   -5.5340 O.co2 182  ASP182     -0.2456
     92  N         10.7870  -26.5700    0.0220 N.3   185  GLU185     -0.1245
     93  CA        11.3620  -25.4490    0.7600 C.3   185  GLU185      0.1567
     94  C         10.5490  -25.0480    1.9810 C.2   185  GLU185      0.2260
     95  O         11.1080  -24.6390    3.0000 O.2   185  GLU185     -0.2867
     96  CB        11.5290  -24.2410   -0.1620 C.3   185  GLU185      0.0388
     97  CG        12.5220  -24.4490   -1.2880 C.3   185  GLU185      0.1160
     98  CD        12.6300  -23.2350   -2.1830 C.2   185  GLU185      0.3649
     99  OE1       11.6440  -22.9320   -2.8940 O.co2 185  GLU185     -0.2457
    100  OE2       13.6960  -22.5760   -2.1670 O.co2 185  GLU185     -0.2457
    101  N         17.4140   -9.5810   -3.8200 N.3   231  ASP231     -0.1239
    102  CA        16.9860  -10.0720   -5.1210 C.3   231  ASP231      0.1674
    103  C         15.9460   -9.0510   -5.5660 C.2   231  ASP231      0.2266
    104  O         14.9540   -8.8270   -4.8710 O.2   231  ASP231     -0.2867
    105  CB        16.3400  -11.4490   -4.9900 C.3   231  ASP231      0.1410
    106  CG        16.1500  -12.1310   -6.3340 C.2   231  ASP231      0.3668
    107  OD1       15.7880  -11.4410   -7.3120 O.co2 231  ASP231     -0.2456
    108  OD2       16.3520  -13.3610   -6.4090 O.co2 231  ASP231     -0.2456
    109  N         13.7350   -9.2560   -7.7360 N.3   233  ASP233     -0.1239
    110  CA        12.4410   -9.8360   -8.0960 C.3   233  ASP233      0.1674
    111  C         11.4950   -9.8270   -6.8910 C.2   233  ASP233      0.2266
    112  O         10.3360  -10.2200   -6.9930 O.2   233  ASP233     -0.2867
    113  CB        12.6170  -11.2650   -8.6260 C.3   233  ASP233      0.1410
    114  CG        13.0370  -12.2510   -7.5490 C.2   233  ASP233      0.3668
    115  OD1       13.3930  -13.3910   -7.9150 O.co2 233  ASP233     -0.2456
    116  OD2       13.0060  -11.9020   -6.3470 O.co2 233  ASP233     -0.2456
    117  N         11.4680  -13.6580  -12.5470 N.3   245  THR245     -0.1218
    118  CA        10.8660  -14.6120  -11.6090 C.3   245  THR245      0.1862
    119  C          9.9220  -13.9840  -10.5710 C.2   245  THR245      0.2287
    120  O         10.1050  -14.1710   -9.3690 O.2   245  THR245     -0.2866
    121  CB        11.9570  -15.4090  -10.8340 C.3   245  THR245      0.1770
    122  OG1       13.0730  -14.5520  -10.5510 O.3   245  THR245     -0.2211
    123  CG2       12.4160  -16.6230  -11.6310 C.3   245  THR245      0.0375
    124  N         19.7110  -10.6370   -9.7860 N.3   276  GLU276     -0.1245
    125  CA        18.5740  -10.8860  -10.6580 C.3   276  GLU276      0.1567
    126  C         18.1800   -9.6580  -11.4560 C.2   276  GLU276      0.2260
    127  O         17.0080   -9.3240  -11.5650 O.2   276  GLU276     -0.2867
    128  CB        17.3920  -11.3860   -9.8280 C.3   276  GLU276      0.0388
    129  CG        16.8540  -12.7400  -10.2800 C.3   276  GLU276      0.1160
    130  CD        17.9280  -13.8170  -10.3320 C.2   276  GLU276      0.3649
    131  OE1       18.4880  -14.1640   -9.2690 O.co2 276  GLU276     -0.2457
    132  OE2       18.2150  -14.3190  -11.4400 O.co2 276  GLU276     -0.2457
@<TRIPOS>BOND
     1    63    62    2
     2    64    62   am
     3    62    61    1
     4    54    53    2
     5   117   118    1
     6    53    52    1
     7    52    55    1
     8    52    51    1
     9    61    58    1
    10    55    56    1
    11    47    46    2
    12    73    71   ar
    13    73    74   ar
    14    58    57    1
    15    58    59    1
    16   123   121    1
    17   118   121    1
    18   118   119    1
    19   127   126    2
    20   126   125    1
    21   132   130   ar
    22    71    70   ar
    23    74    72   ar
    24    51    46   am
    25    46    45    1
    26   121   122    1
    27   125   128    1
    28   125   124    1
    29    49    48    1
    30   119   120    2
    31    59    60    2
    32   130   129    1
    33   130   131   ar
    34   129   128    1
    35    70    72   ar
    36    70    69    1
    37    45    48    1
    38    45    44    1
    39    69    66    1
    40    48    50    1
    41    65    66    1
    42    40    39    2
    43   113   110    1
    44   113   114    1
    45    42    41    1
    46     1     2    1
    47    44    39   am
    48    66    67    1
    49   110   109    1
    50   110   111    1
    51    39    38    1
    52    43    41    1
    53   115   114   ar
    54    20    19   ar
    55    20    18   ar
    56   114   116   ar
    57    19    17   ar
    58    41    38    1
    59    67    75   am
    60    67    68    2
    61    75    76    1
    62   107   106   ar
    63     2     3    1
    64     2     5    1
    65   112   111    2
    66    38    37    1
    67     3     4    2
    68    18    16   ar
    69   108   106   ar
    70    17    16   ar
    71    76    77    1
    72   106   105    1
    73     5     6    1
    74    90    89   ar
    75    16    15    1
    76   103   102    1
    77   103   104    2
    78    83    80    1
    79    91    89   ar
    80    77    78    2
    81    89    88    1
    82    36    34   am
    83   102   105    1
    84   102   101    1
    85     6     7   ar
    86     6     8   ar
    87    27    26   ar
    88    15    12    1
    89     7     9   ar
    90    34    33    1
    91    34    35    2
    92     8    10   ar
    93    82    81    2
    94    80    81    1
    95    80    79    1
    96    33    30    1
    97    88    85    1
    98    28    26   ar
    99    26    25    1
   100    11    12    1
   101     9    10   ar
   102    12    13    1
   103    85    84    1
   104    85    86    1
   105    25    22    1
   106    99    98   ar
   107    32    31    2
   108    22    21    1
   109    22    23    1
   110    30    31    1
   111    30    29    1
   112    98   100   ar
   113    98    97    1
   114    13    14    2
   115    86    87    2
   116    23    24    2
   117    97    96    1
   118    96    93    1
   119    92    93    1
   120    93    94    1
   121    94    95    2
