@<TRIPOS>MOLECULE
tmp/4iu6A00.pdb
 193 189 0 0 0
SMALL
GASTEIGER

@<TRIPOS>ATOM
      1  N         28.0050   11.6250   19.4990 N.3    35  MET35      -0.1245
      2  CA        27.5590   12.5680   20.5270 C.3    35  MET35       0.1570
      3  C         28.6320   13.5930   20.8610 C.2    35  MET35       0.2261
      4  O         29.8190   13.2960   20.8570 O.2    35  MET35      -0.2867
      5  CB        27.1120   11.8140   21.7990 C.3    35  MET35       0.0387
      6  CG        26.0490   10.7650   21.5300 C.3    35  MET35       0.0595
      7  SD        25.6440    9.8060   23.0050 S.3    35  MET35      -0.1393
      8  CE        23.9920    9.2690   22.5810 C.3    35  MET35       0.0692
      9  N         28.7750   19.6470   24.0480 N.3    39  GLU39      -0.1231
     10  CA        27.3900   20.1080   23.8850 C.3    39  GLU39       0.1699
     11  C         26.4710   19.5960   24.9890 C.2    39  GLU39       0.2592
     12  O         25.7310   20.3660   25.5870 O.2    39  GLU39      -0.2718
     13  CB        26.8210   19.7570   22.5020 C.3    39  GLU39       0.0402
     14  CG        27.0620   20.8590   21.4620 C.3    39  GLU39       0.1161
     15  CD        26.6230   20.5000   20.0320 C.2    39  GLU39       0.3649
     16  OE1       25.6890   19.6890   19.8570 O.co2  39  GLU39      -0.2457
     17  OE2       27.2100   21.0680   19.0830 O.co2  39  GLU39      -0.2457
     18  N         26.5350   18.2950   25.2580 N.am   40  GLN40      -0.1979
     19  CA        25.6340   17.6550   26.2140 C.3    40  GLN40       0.1601
     20  C         25.8150   18.1310   27.6460 C.2    40  GLN40       0.2287
     21  O         24.8490   18.1400   28.4180 O.2    40  GLN40      -0.2864
     22  CB        25.8020   16.1450   26.1650 C.3    40  GLN40       0.0394
     23  CG        25.1430   15.5280   24.9590 C.3    40  GLN40       0.0908
     24  CD        25.5580   14.1060   24.7710 C.2    40  GLN40       0.2608
     25  OE1       26.5580   13.6620   25.3360 O.2    40  GLN40      -0.2717
     26  NE2       24.8000   13.3700   23.9730 N.am   40  GLN40      -0.0878
     27  N         23.5340   20.9040   27.9440 N.3    43  LYS43      -0.1245
     28  CA        22.1180   20.7030   27.6410 C.3    43  LYS43       0.1561
     29  C         21.2580   21.2130   28.7900 C.2    43  LYS43       0.2260
     30  O         21.4870   20.8620   29.9580 O.2    43  LYS43      -0.2867
     31  CB        21.7990   19.2260   27.3610 C.3    43  LYS43       0.0271
     32  CG        20.4330   19.0170   26.6820 C.3    43  LYS43       0.0035
     33  CD        19.8390   17.6310   26.9430 C.3    43  LYS43       0.0206
     34  CE        18.4400   17.5060   26.3120 C.3    43  LYS43       0.1093
     35  NZ        17.9190   16.0970   26.3130 N.3    43  LYS43      -0.1314
     36  N         28.9020   18.6200    9.8610 N.3   103  PRO103     -0.2116
     37  CA        27.8080   17.6350    9.9280 C.3   103  PRO103      0.1372
     38  C         28.2770   16.1740    9.9570 C.2   103  PRO103      0.2244
     39  O         27.5750   15.3110   10.4620 O.2   103  PRO103     -0.2868
     40  CB        26.9870   17.9450    8.6580 C.3   103  PRO103      0.0268
     41  CG        27.3230   19.3910    8.3170 C.3   103  PRO103      0.0207
     42  CD        28.8200   19.4250    8.6170 C.3   103  PRO103      0.0892
     43  N         28.0320   13.9250   12.9840 N.3   106  TYR106     -0.1227
     44  CA        27.4000   14.6710   14.0600 C.3   106  TYR106      0.1736
     45  C         26.1310   13.8940   14.3670 C.2   106  TYR106      0.2595
     46  O         25.2390   13.7700   13.5190 O.2   106  TYR106     -0.2718
     47  CB        27.1330   16.1290   13.6710 C.3   106  TYR106      0.0548
     48  CG        26.5310   17.0040   14.7590 C.ar  106  TYR106     -0.0200
     49  CD1       27.2180   17.2650   15.9570 C.ar  106  TYR106     -0.0009
     50  CD2       25.2700   17.5710   14.5860 C.ar  106  TYR106     -0.0009
     51  CE1       26.6450   18.0730   16.9540 C.ar  106  TYR106      0.0417
     52  CE2       24.6900   18.3770   15.5610 C.ar  106  TYR106      0.0417
     53  CZ        25.3760   18.6230   16.7400 C.ar  106  TYR106      0.1957
     54  OH        24.7880   19.4430   17.6700 O.3   106  TYR106     -0.2866
     55  N         26.0850   13.3180   15.5640 N.am  107  TYR107     -0.1976
     56  CA        25.0110   12.3760   15.9270 C.3   107  TYR107      0.1639
     57  C         24.7980   11.3350   14.8160 C.2   107  TYR107      0.2290
     58  O         23.6640   11.0150   14.4530 O.2   107  TYR107     -0.2864
     59  CB        23.7280   13.1520   16.3510 C.3   107  TYR107      0.0560
     60  CG        23.9810   13.8140   17.6810 C.ar  107  TYR107     -0.0198
     61  CD1       24.5110   15.0990   17.7530 C.ar  107  TYR107     -0.0009
     62  CD2       23.7680   13.1180   18.8790 C.ar  107  TYR107     -0.0009
     63  CE1       24.8140   15.6940   18.9750 C.ar  107  TYR107      0.0417
     64  CE2       24.0540   13.7170   20.1170 C.ar  107  TYR107      0.0417
     65  CZ        24.5680   14.9990   20.1560 C.ar  107  TYR107      0.1957
     66  OH        24.8760   15.5860   21.3610 O.3   107  TYR107     -0.2866
     67  N         25.1430   11.5620   11.6350 N.3   109  PHE109     -0.1241
     68  CA        24.8050   12.0500   10.2800 C.3   109  PHE109      0.1605
     69  C         25.8660   11.5410    9.2870 C.2   109  PHE109      0.2264
     70  O         27.0610   11.6400    9.5670 O.2   109  PHE109     -0.2867
     71  CB        24.6720   13.5900   10.2840 C.3   109  PHE109      0.0534
     72  CG        24.1530   14.1420    8.9800 C.ar  109  PHE109     -0.0203
     73  CD1       22.7800   14.1440    8.7130 C.ar  109  PHE109     -0.0042
     74  CD2       25.0460   14.6210    8.0060 C.ar  109  PHE109     -0.0042
     75  CE1       22.2780   14.6470    7.4860 C.ar  109  PHE109     -0.0003
     76  CE2       24.5740   15.1130    6.7820 C.ar  109  PHE109     -0.0003
     77  CZ        23.1650   15.1210    6.5180 C.ar  109  PHE109     -0.0000
     78  N         24.0950   19.1400    4.1930 N.3   114  CYS114     -0.1235
     79  CA        22.6800   18.7550    4.0470 C.3   114  CYS114      0.1677
     80  C         22.1370   19.3200    2.7410 C.2   114  CYS114      0.2270
     81  O         22.3400   20.5020    2.4470 O.2   114  CYS114     -0.2867
     82  CB        21.8510   19.3160    5.1920 C.3   114  CYS114      0.0956
     83  SG        22.3610   18.7410    6.7850 S.3   114  CYS114     -0.0801
     84  N         17.9070   18.9350    6.6410 N.3   123  HIS123     -0.1241
     85  CA        18.6110   17.6890    6.9860 C.3   123  HIS123      0.1621
     86  C         18.4620   16.5630    5.9690 C.2   123  HIS123      0.2264
     87  O         18.5480   15.3650    6.3070 O.2   123  HIS123     -0.2867
     88  CB        18.2660   17.2640    8.4400 C.3   123  HIS123      0.0745
     89  CG        18.6980   18.2720    9.4800 C.ar  123  HIS123      0.0817
     90  ND1       18.1040   18.3770   10.7220 N.ar  123  HIS123     -0.2268
     91  CD2       19.6730   19.2220    9.4530 C.ar  123  HIS123      0.1154
     92  CE1       18.6960   19.3560   11.4070 C.ar  123  HIS123      0.1986
     93  NE2       19.6670   19.8770   10.6690 N.ar  123  HIS123     -0.2212
     94  N         23.1240   23.1680    3.0450 N.3   140  ASP140     -0.1239
     95  CA        23.4720   23.7530    4.3170 C.3   140  ASP140      0.1674
     96  C         24.8980   23.2740    4.6880 C.2   140  ASP140      0.2266
     97  O         25.1680   22.0900    4.7550 O.2   140  ASP140     -0.2867
     98  CB        22.3910   23.4070    5.3640 C.3   140  ASP140      0.1410
     99  CG        22.5540   24.1550    6.7430 C.2   140  ASP140      0.3668
    100  OD1       23.5150   24.8700    7.1450 O.co2 140  ASP140     -0.2456
    101  OD2       21.5940   24.0160    7.5150 O.co2 140  ASP140     -0.2456
    102  N         12.0820   23.3340   14.2250 N.3   211  TYR211     -0.1227
    103  CA        13.5030   23.5820   14.0340 C.3   211  TYR211      0.1736
    104  C         13.7660   25.0730   14.1910 C.2   211  TYR211      0.2596
    105  O         12.9740   25.8940   13.7090 O.2   211  TYR211     -0.2718
    106  CB        13.9500   23.1060   12.6490 C.3   211  TYR211      0.0548
    107  CG        13.8270   21.5970   12.4760 C.ar  211  TYR211     -0.0200
    108  CD1       14.8140   20.7260   12.9660 C.ar  211  TYR211     -0.0009
    109  CD2       12.7090   21.0460   11.8560 C.ar  211  TYR211     -0.0009
    110  CE1       14.6790   19.3200   12.8190 C.ar  211  TYR211      0.0417
    111  CE2       12.5530   19.6600   11.7230 C.ar  211  TYR211      0.0417
    112  CZ        13.5490   18.8030   12.1910 C.ar  211  TYR211      0.1957
    113  OH        13.3920   17.4300   12.0530 O.3   211  TYR211     -0.2866
    114  N         14.9000   25.3990   14.8240 N.am  212  CYS212     -0.1956
    115  CA        15.1930   26.7500   15.2860 C.3   212  CYS212      0.1843
    116  C         16.5960   27.2030   14.8960 C.2   212  CYS212      0.2626
    117  O         17.4440   26.3820   14.5910 O.2   212  CYS212     -0.2714
    118  CB        15.0520   26.8110   16.8280 C.3   212  CYS212      0.0997
    119  SG        13.3420   26.5060   17.3790 S.3   212  CYS212     -0.0797
    120  N         16.8270   28.5130   14.8980 N.am  213  GLY213     -0.1940
    121  CA        18.1950   29.0250   14.8510 C.3   213  GLY213      0.2014
    122  C         18.8850   28.7310   16.1780 C.2   213  GLY213      0.2638
    123  O         18.2180   28.3270   17.1600 O.2   213  GLY213     -0.2714
    124  N         20.1940   28.9390   16.2330 N.am  214  HIS214     -0.1973
    125  CA        20.9990   28.3870   17.3310 C.3   214  HIS214      0.1656
    126  C         22.2710   29.1810   17.5940 C.2   214  HIS214      0.2291
    127  O         22.9210   29.6700   16.6500 O.2   214  HIS214     -0.2864
    128  CB        21.3630   26.9020   17.0230 C.3   214  HIS214      0.0771
    129  CG        22.0730   26.7060   15.7060 C.ar  214  HIS214      0.0820
    130  ND1       23.4490   26.6540   15.5930 N.ar  214  HIS214     -0.2267
    131  CD2       21.5850   26.5630   14.4450 C.ar  214  HIS214      0.1154
    132  CE1       23.7720   26.5130   14.3060 C.ar  214  HIS214      0.1986
    133  NE2       22.6600   26.4450   13.5860 N.ar  214  HIS214     -0.2212
    134  N         28.5770   23.3970   17.9780 N.3   220  PHE220     -0.1227
    135  CA        27.8680   23.4400   16.6820 C.3   220  PHE220      0.1736
    136  C         26.4860   24.0450   16.9520 C.2   220  PHE220      0.2595
    137  O         26.0810   25.0050   16.2950 O.2   220  PHE220     -0.2718
    138  CB        27.7820   22.0160   16.1180 C.3   220  PHE220      0.0547
    139  CG        27.2690   21.9020   14.6670 C.ar  220  PHE220     -0.0202
    140  CD1       26.6700   22.9770   13.9840 C.ar  220  PHE220     -0.0042
    141  CD2       27.3540   20.6570   14.0110 C.ar  220  PHE220     -0.0042
    142  CE1       26.1810   22.8090   12.6350 C.ar  220  PHE220     -0.0003
    143  CE2       26.8780   20.4840   12.6930 C.ar  220  PHE220     -0.0003
    144  CZ        26.2910   21.5430   12.0150 C.ar  220  PHE220     -0.0000
    145  N         25.7820   23.5170   17.9550 N.am  221  HIS221     -0.1975
    146  CA        24.4570   24.0180   18.3240 C.3   221  HIS221      0.1656
    147  C         24.4450   24.1990   19.8420 C.2   221  HIS221      0.2291
    148  O         24.7080   23.2590   20.5880 O.2   221  HIS221     -0.2864
    149  CB        23.3630   23.0270   17.8980 C.3   221  HIS221      0.0771
    150  CG        23.3860   22.6950   16.4300 C.ar  221  HIS221      0.0820
    151  ND1       24.0000   21.5650   15.9280 N.ar  221  HIS221     -0.2267
    152  CD2       22.8620   23.3410   15.3660 C.ar  221  HIS221      0.1154
    153  CE1       23.8490   21.5310   14.6170 C.ar  221  HIS221      0.1986
    154  NE2       23.1700   22.6020   14.2480 N.ar  221  HIS221     -0.2212
    155  N         18.4080   29.2390   21.7730 N.3   225  ASN225     -0.1240
    156  CA        17.4480   28.6830   20.8390 C.3   225  ASN225      0.1653
    157  C         16.6830   29.8400   20.2340 C.2   225  ASN225      0.2266
    158  O         16.2210   30.7400   20.9550 O.2   225  ASN225     -0.2867
    159  CB        16.4880   27.7160   21.5390 C.3   225  ASN225      0.1155
    160  CG        15.5540   27.0270   20.5580 C.2   225  ASN225      0.2627
    161  OD1       15.9800   26.1760   19.7680 O.2   225  ASN225     -0.2716
    162  ND2       14.2760   27.3890   20.6000 N.am  225  ASN225     -0.0877
    163  N         17.7680   31.0620   10.7360 N.3   247  GLU247     -0.1245
    164  CA        17.7140   30.1030    9.6170 C.3   247  GLU247      0.1567
    165  C         16.2700   29.6670    9.2780 C.2   247  GLU247      0.2260
    166  O         15.9490   28.4780    9.3640 O.2   247  GLU247     -0.2867
    167  CB        18.6380   28.8930    9.8600 C.3   247  GLU247      0.0388
    168  CG        18.4940   28.1060   11.1740 C.3   247  GLU247      0.1160
    169  CD        19.5830   26.9810   11.2970 C.2   247  GLU247      0.3649
    170  OE1       20.7220   27.1240   11.9140 O.co2 247  GLU247     -0.2457
    171  OE2       19.3060   25.9380   10.6590 O.co2 247  GLU247     -0.2457
    172  N         12.8270   28.3610    8.0140 N.3   249  MET249     -0.1245
    173  CA        12.2600   27.4200    7.0720 C.3   249  MET249      0.1570
    174  C         10.7720   27.7860    6.8850 C.2   249  MET249      0.2261
    175  O         10.0020   27.8590    7.8620 O.2   249  MET249     -0.2867
    176  CB        12.3950   26.0030    7.6240 C.3   249  MET249      0.0387
    177  CG        13.8440   25.4940    7.6960 C.3   249  MET249      0.0595
    178  SD        14.1260   24.4940    9.1550 S.3   249  MET249     -0.1393
    179  CE        15.8800   24.1330    9.1980 C.3   249  MET249      0.0692
    180  N         16.6320   11.4880    9.8890 N.3   264  TRP264     -0.1241
    181  CA        17.1850   12.8260    9.6150 C.3   264  TRP264      0.1605
    182  C         16.2920   13.7020    8.7420 C.2   264  TRP264      0.2264
    183  O         16.0300   14.8600    9.0900 O.2   264  TRP264     -0.2867
    184  CB        18.5760   12.7170    8.9910 C.3   264  TRP264      0.0550
    185  CG        19.6700   12.3930   10.0350 C.ar  264  TRP264      0.0003
    186  CD1       20.3770   11.2250   10.1820 C.ar  264  TRP264      0.0946
    187  CD2       20.0720   13.2420   11.1050 C.ar  264  TRP264      0.0152
    188  NE1       21.2380   11.3340   11.2540 N.ar  264  TRP264     -0.2442
    189  CE2       21.0730   12.5700   11.8220 C.ar  264  TRP264      0.0810
    190  CE3       19.7310   14.5550   11.4790 C.ar  264  TRP264      0.0012
    191  CZ2       21.7050   13.1440   12.9280 C.ar  264  TRP264      0.0191
    192  CZ3       20.3560   15.1200   12.5800 C.ar  264  TRP264      0.0001
    193  CH2       21.3340   14.4170   13.2800 C.ar  264  TRP264      0.0015
@<TRIPOS>BOND
     1    81    80    2
     2    80    79    1
     3    94    95    1
     4    79    78    1
     5    79    82    1
     6    95    96    1
     7    95    98    1
     8    96    97    2
     9    82    83    1
    10    98    99    1
    11    86    87    2
    12    86    85    1
    13    77    76   ar
    14    77    75   ar
    15    84    85    1
    16    99   100   ar
    17    99   101   ar
    18    76    74   ar
    19   174   173    1
    20   174   175    2
    21    85    88    1
    22   173   176    1
    23   173   172    1
    24    75    73   ar
    25   176   177    1
    26   177   178    1
    27    74    72   ar
    28    41    42    1
    29    41    40    1
    30    88    89    1
    31    42    36    1
    32    40    37    1
    33    73    72   ar
    34   182   183    2
    35   182   181    1
    36    72    71    1
    37   184   181    1
    38   184   185    1
    39   178   179    1
    40   165   166    2
    41   165   164    1
    42    69    70    2
    43    69    68    1
    44    91    89   ar
    45    91    93   ar
    46    89    90   ar
    47   181   180    1
    48   164   167    1
    49   164   163    1
    50   167   168    1
    51    36    37    1
    52    37    38    1
    53    38    39    2
    54   185   186   ar
    55   185   187   ar
    56   186   188   ar
    57    68    71    1
    58    68    67    1
    59   171   169   ar
    60    93    92   ar
    61    90    92   ar
    62   187   190   ar
    63   187   189   ar
    64   168   169    1
    65   188   189   ar
    66   169   170   ar
    67   190   192   ar
    68   111   109   ar
    69   111   112   ar
    70   189   191   ar
    71   109   107   ar
    72   144   142   ar
    73   144   143   ar
    74   113   112    1
    75   112   110   ar
    76   107   106    1
    77   107   108   ar
    78   192   193   ar
    79   142   140   ar
    80   106   103    1
    81   143   141   ar
    82   110   108   ar
    83   191   193   ar
    84    43    44    1
    85    46    45    2
    86   133   132   ar
    87   133   131   ar
    88    47    44    1
    89    47    48    1
    90   105   104    2
    91   140   139   ar
    92   141   139   ar
    93   103   104    1
    94   103   102    1
    95    44    45    1
    96   104   114   am
    97   154   153   ar
    98   154   152   ar
    99   132   130   ar
   100    45    55   am
   101   131   129   ar
   102    58    57    2
   103    50    48   ar
   104    50    52   ar
   105   117   116    2
   106   153   151   ar
   107   139   138    1
   108    48    49   ar
   109    57    56    1
   110   114   115    1
   111   121   120    1
   112   121   122    1
   113   116   120   am
   114   116   115    1
   115   115   118    1
   116   152   150   ar
   117    52    53   ar
   118    55    56    1
   119   130   129   ar
   120   129   128    1
   121    56    59    1
   122   151   150   ar
   123    49    51   ar
   124   138   135    1
   125   122   124   am
   126   122   123    2
   127   124   125    1
   128   137   136    2
   129    59    60    1
   130   150   149    1
   131   127   126    2
   132   135   136    1
   133   135   134    1
   134    53    51   ar
   135    53    54    1
   136   118   119    1
   137   136   145   am
   138   128   125    1
   139   125   126    1
   140    60    61   ar
   141    60    62   ar
   142    61    63   ar
   143   149   146    1
   144   145   146    1
   145   146   147    1
   146    62    64   ar
   147    63    65   ar
   148    17    15   ar
   149     1     2    1
   150   161   160    2
   151   147   148    2
   152    16    15   ar
   153    15    14    1
   154    64    65   ar
   155    65    66    1
   156   157   156    1
   157   157   158    2
   158     2     3    1
   159     2     5    1
   160   160   162   am
   161   160   159    1
   162   156   159    1
   163   156   155    1
   164     4     3    2
   165    14    13    1
   166     6     5    1
   167     6     7    1
   168    13    10    1
   169     8     7    1
   170    10     9    1
   171    10    11    1
   172    26    24   am
   173    24    23    1
   174    24    25    2
   175    23    22    1
   176    11    18   am
   177    11    12    2
   178    18    19    1
   179    22    19    1
   180    19    20    1
   181    34    35    1
   182    34    33    1
   183    32    33    1
   184    32    31    1
   185    31    28    1
   186    28    27    1
   187    28    29    1
   188    20    21    2
   189    29    30    2
