@<TRIPOS>MOLECULE
tmp/4iu7A01.pdb
 178 168 0 0 0
SMALL
GASTEIGER

@<TRIPOS>ATOM
      1  N         25.7080    7.1010    3.6040 N.3    40  MET40      -0.1245
      2  CA        25.8280    8.4840    4.0510 C.3    40  MET40       0.1570
      3  C         26.5770    9.3440    3.0410 C.2    40  MET40       0.2261
      4  O         26.3310   10.5450    2.9350 O.2    40  MET40      -0.2867
      5  CB        26.5150    8.5520    5.4170 C.3    40  MET40       0.0387
      6  CG        25.7680    7.8180    6.5190 C.3    40  MET40       0.0595
      7  SD        24.0090    8.2230    6.5420 S.3    40  MET40      -0.1393
      8  CE        24.0730   10.0100    6.6520 C.3    40  MET40       0.0692
      9  N         24.0130   10.2140    0.5130 N.3    43  LEU43      -0.1231
     10  CA        23.0470   11.1140    1.1340 C.3    43  LEU43       0.1693
     11  C         23.5890   12.5330    1.2810 C.2    43  LEU43       0.2592
     12  O         22.9130   13.5020    0.9350 O.2    43  LEU43      -0.2718
     13  CB        22.6090   10.5770    2.5000 C.3    43  LEU43       0.0284
     14  CG        21.2290    9.9180    2.5660 C.3    43  LEU43       0.0019
     15  CD1       21.1010    8.8100    1.5300 C.3    43  LEU43       0.0001
     16  CD2       20.9460    9.3880    3.9670 C.3    43  LEU43       0.0001
     17  N         24.8070   12.6500    1.7980 N.am   44  THR44      -0.1953
     18  CA        25.4150   13.9560    2.0260 C.3    44  THR44       0.1897
     19  C         25.7730   14.6440    0.7110 C.2    44  THR44       0.2313
     20  O         25.6130   15.8570    0.5720 O.2    44  THR44      -0.2863
     21  CB        26.6700   13.8490    2.9100 C.3    44  THR44       0.1794
     22  OG1       27.5670   12.8850    2.3480 O.3    44  THR44      -0.2208
     23  CG2       26.2950   13.4200    4.3260 C.3    44  THR44       0.0378
     24  N         24.2110   14.2470   -2.1700 N.3    46  LEU46      -0.1231
     25  CA        22.9290   14.7110   -2.6800 C.3    46  LEU46       0.1693
     26  C         22.4540   15.9340   -1.9060 C.2    46  LEU46       0.2591
     27  O         21.9830   16.9090   -2.4930 O.2    46  LEU46      -0.2718
     28  CB        21.8910   13.5920   -2.5910 C.3    46  LEU46       0.0284
     29  CG        20.4640   13.9300   -3.0280 C.3    46  LEU46       0.0019
     30  CD1       20.4380   14.4850   -4.4450 C.3    46  LEU46       0.0001
     31  CD2       19.5650   12.7050   -2.9040 C.3    46  LEU46       0.0001
     32  N         22.5910   15.8750   -0.5840 N.am   47  ALA47      -0.1980
     33  CA        22.1910   16.9740    0.2860 C.3    47  ALA47       0.1597
     34  C         22.9580   18.2490   -0.0450 C.2    47  ALA47       0.2287
     35  O         22.3950   19.3430   -0.0360 O.2    47  ALA47      -0.2864
     36  CB        22.3930   16.5940    1.7480 C.3    47  ALA47       0.0319
     37  N         21.5600   19.7400   -3.2440 N.3    50  GLU50      -0.1245
     38  CA        20.1940   20.1890   -2.9880 C.3    50  GLU50       0.1567
     39  C         20.1700   21.5030   -2.2120 C.2    50  GLU50       0.2260
     40  O         19.3120   22.3560   -2.4430 O.2    50  GLU50      -0.2867
     41  CB        19.4040   19.1230   -2.2250 C.3    50  GLU50       0.0388
     42  CG        18.9480   17.9440   -3.0720 C.3    50  GLU50       0.1160
     43  CD        18.0740   16.9740   -2.2970 C.2    50  GLU50       0.3649
     44  OE1       18.6240   16.1620   -1.5220 O.co2  50  GLU50      -0.2457
     45  OE2       16.8360   17.0280   -2.4580 O.co2  50  GLU50      -0.2457
     46  N         16.6810   23.8630    7.1270 N.3    80  TRP80      -0.1227
     47  CA        17.2860   23.1620    5.9930 C.3    80  TRP80       0.1737
     48  C         17.0090   21.6510    5.9660 C.2    80  TRP80       0.2595
     49  O         16.6220   21.1090    4.9300 O.2    80  TRP80      -0.2718
     50  CB        18.7910   23.4540    5.8920 C.3    80  TRP80       0.0564
     51  CG        19.6540   22.7110    6.8740 C.ar   80  TRP80       0.0003
     52  CD1       20.0470   23.1360    8.1110 C.ar   80  TRP80       0.0946
     53  CD2       20.2420   21.4170    6.6890 C.ar   80  TRP80       0.0152
     54  NE1       20.8400   22.1850    8.7080 N.ar   80  TRP80      -0.2442
     55  CE2       20.9750   21.1200    7.8570 C.ar   80  TRP80       0.0810
     56  CE3       20.2180   20.4790    5.6520 C.ar   80  TRP80       0.0012
     57  CZ2       21.6760   19.9250    8.0150 C.ar   80  TRP80       0.0191
     58  CZ3       20.9140   19.2950    5.8110 C.ar   80  TRP80       0.0001
     59  CH2       21.6330   19.0280    6.9840 C.ar   80  TRP80       0.0015
     60  N         17.1910   20.9770    7.0990 N.am   81  LEU81      -0.1980
     61  CA        16.9740   19.5310    7.1580 C.3    81  LEU81       0.1596
     62  C         15.4880   19.1700    7.1040 C.2    81  LEU81       0.2287
     63  O         15.1060   18.1800    6.4780 O.2    81  LEU81      -0.2864
     64  CB        17.6340   18.9170    8.3990 C.3    81  LEU81       0.0297
     65  CG        17.6180   17.3850    8.4460 C.3    81  LEU81       0.0022
     66  CD1       18.1190   16.8120    7.1310 C.3    81  LEU81       0.0001
     67  CD2       18.4430   16.8570    9.6100 C.3    81  LEU81       0.0001
     68  N         14.6620   19.4860    3.4450 N.3    84  LEU84      -0.1231
     69  CA        15.1700   18.3390    2.7010 C.3    84  LEU84       0.1693
     70  C         14.2870   17.1230    2.9440 C.2    84  LEU84       0.2591
     71  O         13.9280   16.4080    2.0110 O.2    84  LEU84      -0.2718
     72  CB        16.6140   18.0130    3.1030 C.3    84  LEU84       0.0284
     73  CG        17.7280   18.9490    2.6280 C.3    84  LEU84       0.0019
     74  CD1       19.0840   18.4520    3.1110 C.3    84  LEU84       0.0001
     75  CD2       17.7090   19.0800    1.1100 C.3    84  LEU84       0.0001
     76  N         13.9390   16.8990    4.2080 N.am   85  MET85      -0.1979
     77  CA        13.1650   15.7260    4.6030 C.3    85  MET85       0.1605
     78  C         11.7460   15.7040    4.0400 C.2    85  MET85       0.2287
     79  O         11.2990   14.6780    3.5240 O.2    85  MET85      -0.2864
     80  CB        13.1430   15.5810    6.1280 C.3    85  MET85       0.0413
     81  CG        14.4240   14.9950    6.6990 C.3    85  MET85       0.0598
     82  SD        14.3640   14.7510    8.4850 S.3    85  MET85      -0.1393
     83  CE        15.8160   13.7370    8.7370 C.3    85  MET85       0.0692
     84  N         11.9100   14.7430    0.5860 N.3    88  LEU88      -0.1245
     85  CA        12.1230   13.3060    0.4780 C.3    88  LEU88       0.1561
     86  C         10.8090   12.5520    0.6240 C.2    88  LEU88       0.2260
     87  O         10.5010   11.6630   -0.1690 O.2    88  LEU88      -0.2867
     88  CB        13.1100   12.8340    1.5470 C.3    88  LEU88       0.0270
     89  CG        13.2910   11.3220    1.7070 C.3    88  LEU88       0.0019
     90  CD1       13.7800   10.6990    0.4110 C.3    88  LEU88       0.0001
     91  CD2       14.2490   11.0160    2.8440 C.3    88  LEU88       0.0001
     92  N          8.5140   13.0300   -2.4460 N.3    91  ARG91      -0.1245
     93  CA         8.9560   12.2500   -3.5950 C.3    91  ARG91       0.1563
     94  C          8.6450   10.7690   -3.4060 C.2    91  ARG91       0.2260
     95  O          8.5040   10.0250   -4.3770 O.2    91  ARG91      -0.2867
     96  CB        10.4580   12.4390   -3.8260 C.3    91  ARG91       0.0307
     97  CG        10.8740   13.8710   -4.1240 C.3    91  ARG91       0.0489
     98  CD        12.3150   13.9360   -4.6140 C.3    91  ARG91       0.2205
     99  NE        13.2700   13.4380   -3.6270 N.pl3  91  ARG91      -0.0865
    100  CZ        13.9010   14.2060   -2.7450 C.cat  91  ARG91       0.5346
    101  NH1       13.6780   15.5130   -2.7260 N.pl3  91  ARG91       0.1354
    102  NH2       14.7580   13.6720   -1.8850 N.pl3  91  ARG91       0.1354
    103  N         15.2630    9.0070   -2.3500 N.3   101  PHE101     -0.1241
    104  CA        16.2180   10.1000   -2.2260 C.3   101  PHE101      0.1605
    105  C         16.5140   10.6750   -3.6040 C.2   101  PHE101      0.2264
    106  O         16.7700   11.8710   -3.7520 O.2   101  PHE101     -0.2867
    107  CB        17.5130    9.6190   -1.5670 C.3   101  PHE101      0.0534
    108  CG        17.3900    9.3760   -0.0890 C.ar  101  PHE101     -0.0203
    109  CD1       17.7070   10.3740    0.8180 C.ar  101  PHE101     -0.0042
    110  CD2       16.9620    8.1520    0.3950 C.ar  101  PHE101     -0.0042
    111  CE1       17.5990   10.1560    2.1820 C.ar  101  PHE101     -0.0003
    112  CE2       16.8480    7.9280    1.7580 C.ar  101  PHE101     -0.0003
    113  CZ        17.1690    8.9300    2.6520 C.ar  101  PHE101     -0.0000
    114  N         19.6820    4.7690   12.3740 N.3   118  MET118     -0.1245
    115  CA        19.1590    5.2610   11.1060 C.3   118  MET118      0.1570
    116  C         17.7810    4.6820   10.8050 C.2   118  MET118      0.2261
    117  O         16.8940    5.3880   10.3250 O.2   118  MET118     -0.2867
    118  CB        20.1240    4.9310    9.9660 C.3   118  MET118      0.0387
    119  CG        19.6930    5.4750    8.6150 C.3   118  MET118      0.0595
    120  SD        19.5540    7.2710    8.6130 S.3   118  MET118     -0.1393
    121  CE        21.2200    7.7410    9.0760 C.3   118  MET118      0.0692
    122  N         14.7770    6.5290   12.0090 N.3   121  ILE121     -0.1231
    123  CA        14.4670    7.7390   11.2570 C.3   121  ILE121      0.1692
    124  C         13.7940    7.4000    9.9310 C.2   121  ILE121      0.2592
    125  O         12.8610    8.0840    9.5060 O.2   121  ILE121     -0.2718
    126  CB        15.7200    8.5950   11.0010 C.3   121  ILE121      0.0266
    127  CG1       16.4080    8.9390   12.3230 C.3   121  ILE121      0.0019
    128  CG2       15.3480    9.8640   10.2490 C.3   121  ILE121      0.0020
    129  CD1       17.6340    9.8100   12.1680 C.3   121  ILE121      0.0001
    130  N         14.2680    6.3420    9.2820 N.am  122  PHE122     -0.1976
    131  CA        13.6440    5.8640    8.0550 C.3   122  PHE122      0.1639
    132  C         12.1790    5.5170    8.2980 C.2   122  PHE122      0.2290
    133  O         11.2990    5.9360    7.5460 O.2   122  PHE122     -0.2864
    134  CB        14.3840    4.6400    7.5070 C.3   122  PHE122      0.0560
    135  CG        15.5950    4.9800    6.6870 C.ar  122  PHE122     -0.0200
    136  CD1       16.2320    6.2000    6.8360 C.ar  122  PHE122     -0.0042
    137  CD2       16.0810    4.0880    5.7460 C.ar  122  PHE122     -0.0042
    138  CE1       17.3400    6.5170    6.0730 C.ar  122  PHE122     -0.0003
    139  CE2       17.1870    4.3990    4.9790 C.ar  122  PHE122     -0.0003
    140  CZ        17.8190    5.6140    5.1440 C.ar  122  PHE122     -0.0000
    141  N         10.2150    8.5380    8.4680 N.3   125  LEU125     -0.1245
    142  CA        10.0810    9.1070    7.1330 C.3   125  LEU125      0.1561
    143  C          9.0640    8.3290    6.3080 C.2   125  LEU125      0.2260
    144  O          8.2210    8.9180    5.6310 O.2   125  LEU125     -0.2867
    145  CB        11.4330    9.1210    6.4190 C.3   125  LEU125      0.0270
    146  CG        12.4610   10.1200    6.9540 C.3   125  LEU125      0.0019
    147  CD1       13.8630    9.7750    6.4650 C.3   125  LEU125      0.0001
    148  CD2       12.0840   11.5480    6.5790 C.3   125  LEU125      0.0001
    149  N         17.5980   13.6020   13.1150 N.3   208  GLY208     -0.1225
    150  CA        18.5730   13.5110   12.0450 C.3   208  GLY208      0.1811
    151  C         19.7790   14.3880   12.3180 C.2   208  GLY208      0.2280
    152  O         20.9070   14.0300   11.9820 O.2   208  GLY208     -0.2866
    153  N         22.1120   12.6690   14.7240 N.3   211  HIS211     -0.1226
    154  CA        22.8120   11.5760   14.0590 C.3   211  HIS211      0.1752
    155  C         23.9010   12.1020   13.1310 C.2   211  HIS211      0.2595
    156  O         24.9710   11.5040   13.0120 O.2   211  HIS211     -0.2718
    157  CB        21.8300   10.7020   13.2760 C.3   211  HIS211      0.0759
    158  CG        22.4380    9.4410   12.7460 C.ar  211  HIS211      0.0818
    159  ND1       22.9410    9.3350   11.4660 N.ar  211  HIS211     -0.2268
    160  CD2       22.6310    8.2320   13.3250 C.ar  211  HIS211      0.1154
    161  CE1       23.4130    8.1160   11.2800 C.ar  211  HIS211      0.1986
    162  NE2       23.2370    7.4260   12.3930 N.ar  211  HIS211     -0.2212
    163  N         23.6210   13.2220   12.4740 N.am  212  LEU212     -0.1980
    164  CA        24.5930   13.8520   11.5880 C.3   212  LEU212      0.1596
    165  C         25.7610   14.4260   12.3800 C.2   212  LEU212      0.2287
    166  O         26.8810   14.5140   11.8750 O.2   212  LEU212     -0.2864
    167  CB        23.9320   14.9480   10.7470 C.3   212  LEU212      0.0297
    168  CG        23.0340   14.4810    9.5990 C.3   212  LEU212      0.0022
    169  CD1       22.4520   15.6700    8.8510 C.3   212  LEU212      0.0001
    170  CD2       23.8130   13.5810    8.6490 C.3   212  LEU212      0.0001
    171  N         27.6440   21.8220    4.5680 N.3   227  LEU227     -0.1245
    172  CA        26.9330   20.9520    5.4970 C.3   227  LEU227      0.1561
    173  C         27.4150   21.1690    6.9240 C.2   227  LEU227      0.2260
    174  O         26.6120   21.2540    7.8520 O.2   227  LEU227     -0.2867
    175  CB        27.0960   19.4800    5.1090 C.3   227  LEU227      0.0270
    176  CG        26.0100   18.8860    4.2120 C.3   227  LEU227      0.0019
    177  CD1       26.2170   17.3890    4.0430 C.3   227  LEU227      0.0001
    178  CD2       24.6360   19.1680    4.7930 C.3   227  LEU227      0.0001
@<TRIPOS>BOND
     1    98    97    1
     2    98    99    1
     3    30    29    1
     4    95    94    2
     5    97    96    1
     6    96    93    1
     7   106   105    2
     8    99   100    2
     9   105   104    1
    10    93    94    1
    11    93    92    1
    12    37    38    1
    13    42    43    1
    14    42    41    1
    15    29    31    1
    16    29    28    1
    17    38    41    1
    18    38    39    1
    19   100   101    1
    20   100   102    1
    21    25    28    1
    22    25    24    1
    23    25    26    1
    24    27    26    2
    25    45    43   ar
    26    40    39    2
    27   103   104    1
    28    43    44   ar
    29   104   107    1
    30    26    32   am
    31   107   108    1
    32    32    33    1
    33    87    86    2
    34   108   110   ar
    35   108   109   ar
    36    34    35    2
    37    34    33    1
    38    33    36    1
    39   110   112   ar
    40    90    89    1
    41    85    84    1
    42    85    86    1
    43    85    88    1
    44     9    10    1
    45    20    19    2
    46    19    18    1
    47   109   111   ar
    48    12    11    2
    49    75    73    1
    50    10    11    1
    51    10    13    1
    52    11    17   am
    53    15    14    1
    54    88    89    1
    55    89    91    1
    56   112   113   ar
    57    17    18    1
    58    71    70    2
    59    18    21    1
    60   111   113   ar
    61    22    21    1
    62    13    14    1
    63    14    16    1
    64    73    72    1
    65    73    74    1
    66    69    70    1
    67    69    72    1
    68    69    68    1
    69    21    23    1
    70     4     3    2
    71    70    76   am
    72     3     2    1
    73    79    78    2
    74     1     2    1
    75    78    77    1
    76   177   176    1
    77     2     5    1
    78    76    77    1
    79   176   178    1
    80   176   175    1
    81   171   172    1
    82    77    80    1
    83    49    48    2
    84   139   140   ar
    85   139   137   ar
    86   175   172    1
    87   140   138   ar
    88     5     6    1
    89   172   173    1
    90   144   143    2
    91    56    58   ar
    92    56    53   ar
    93   137   135   ar
    94    58    59   ar
    95    50    47    1
    96    50    51    1
    97    48    47    1
    98    48    60   am
    99    47    46    1
   100   138   136   ar
   101    80    81    1
   102   143   142    1
   103   145   146    1
   104   145   142    1
   105   147   146    1
   106    63    62    2
   107     6     7    1
   108     7     8    1
   109   148   146    1
   110   135   136   ar
   111   135   134    1
   112    53    51   ar
   113    53    55   ar
   114    81    82    1
   115    51    52   ar
   116   173   174    2
   117    59    57   ar
   118    60    61    1
   119    62    61    1
   120    66    65    1
   121   142   141    1
   122    61    64    1
   123   134   131    1
   124   133   132    2
   125    55    57   ar
   126    55    54   ar
   127   131   132    1
   128   131   130    1
   129    52    54   ar
   130    64    65    1
   131    65    67    1
   132    82    83    1
   133   120   119    1
   134   120   121    1
   135   119   118    1
   136   170   168    1
   137   169   168    1
   138   130   124   am
   139   125   124    2
   140   168   167    1
   141   124   123    1
   142   118   115    1
   143   128   126    1
   144   117   116    2
   145   167   164    1
   146   116   115    1
   147   126   123    1
   148   126   127    1
   149   115   114    1
   150   123   122    1
   151   161   159   ar
   152   161   162   ar
   153   159   158   ar
   154   164   165    1
   155   164   163    1
   156   166   165    2
   157   152   151    2
   158   150   151    1
   159   150   149    1
   160   129   127    1
   161   162   160   ar
   162   163   155   am
   163   158   157    1
   164   158   160   ar
   165   156   155    2
   166   155   154    1
   167   157   154    1
   168   154   153    1
