@<TRIPOS>MOLECULE
tmp/4iueA00.pdb
 163 165 0 0 0
SMALL
GASTEIGER

@<TRIPOS>ATOM
      1  N         -1.6860  -10.2290  -20.4940 N.3    79  PHE79      -0.1227
      2  CA        -2.1620  -11.0640  -19.3780 C.3    79  PHE79       0.1736
      3  C         -1.6180  -10.7340  -17.9940 C.2    79  PHE79       0.2595
      4  O         -0.4380  -10.3350  -17.8190 O.2    79  PHE79      -0.2718
      5  CB        -1.9010  -12.5610  -19.6950 C.3    79  PHE79       0.0547
      6  CG        -2.6230  -12.9970  -20.9220 C.ar   79  PHE79      -0.0202
      7  CD1       -4.0310  -13.1770  -20.8790 C.ar   79  PHE79      -0.0042
      8  CD2       -1.9510  -13.0610  -22.1450 C.ar   79  PHE79      -0.0042
      9  CE1       -4.7560  -13.4890  -22.0250 C.ar   79  PHE79      -0.0003
     10  CE2       -2.6520  -13.4030  -23.3240 C.ar   79  PHE79      -0.0003
     11  CZ        -4.0580  -13.5930  -23.2790 C.ar   79  PHE79      -0.0000
     12  N         -2.4550  -10.9900  -16.9940 N.am   80  HIS80      -0.1961
     13  CA        -2.0000  -10.9190  -15.6490 C.3    80  HIS80       0.1787
     14  C         -2.7110  -11.9550  -14.7870 C.2    80  HIS80       0.2621
     15  O         -3.9370  -11.9760  -14.7170 O.2    80  HIS80      -0.2715
     16  CB        -2.2260   -9.5170  -15.0740 C.3    80  HIS80       0.0785
     17  CG        -1.6110   -9.3440  -13.7280 C.ar   80  HIS80       0.0821
     18  ND1       -0.3190   -8.9060  -13.5560 N.ar   80  HIS80      -0.2267
     19  CD2       -2.0910   -9.6040  -12.4860 C.ar   80  HIS80       0.1154
     20  CE1       -0.0400   -8.8680  -12.2580 C.ar   80  HIS80       0.1986
     21  NE2       -1.1000   -9.2810  -11.5900 N.ar   80  HIS80      -0.2212
     22  N         -1.9310  -12.7870  -14.1220 N.am   81  GLY81      -0.1940
     23  CA        -2.4420  -13.7730  -13.1940 C.3    81  GLY81       0.2014
     24  C         -1.9320  -13.4200  -11.8070 C.2    81  GLY81       0.2640
     25  O         -0.8310  -12.8890  -11.6370 O.2    81  GLY81      -0.2714
     26  N         -2.7320  -13.7100  -10.8050 N.am   82  SER82      -0.1936
     27  CA        -2.4170  -13.2900   -9.4550 C.3    82  SER82       0.2040
     28  C         -3.4850  -13.8520   -8.5260 C.2    82  SER82       0.2485
     29  O         -4.6730  -13.9560   -8.9300 O.2    82  SER82      -0.2729
     30  CB        -2.4750  -11.7590   -9.3580 C.3    82  SER82       0.2129
     31  OG        -2.6200  -11.3850   -8.0030 O.3    82  SER82      -0.2179
     32  N         -3.0910  -14.1400   -7.2610 N.am   83  PRO83      -0.2715
     33  CA        -4.0940  -14.5720   -6.2800 C.3    83  PRO83       0.1536
     34  C         -5.0690  -13.4500   -5.9540 C.2    83  PRO83       0.2598
     35  O         -6.0660  -13.7300   -5.3200 O.2    83  PRO83      -0.2715
     36  CB        -3.2670  -14.9570   -5.0300 C.3    83  PRO83       0.0310
     37  CG        -1.9040  -15.1890   -5.5400 C.3    83  PRO83       0.0237
     38  CD        -1.7250  -14.2290   -6.7120 C.3    83  PRO83       0.0939
     39  N         -4.7980  -12.2220   -6.4080 N.am   84  PHE84      -0.1974
     40  CA        -5.5800  -11.0410   -5.9890 C.3    84  PHE84       0.1639
     41  C         -6.5460  -10.5450   -7.0460 C.2    84  PHE84       0.2290
     42  O         -6.9970   -9.3950   -6.9920 O.2    84  PHE84      -0.2864
     43  CB        -4.6510   -9.9070   -5.5510 C.3    84  PHE84       0.0560
     44  CG        -3.6370  -10.3420   -4.5260 C.ar   84  PHE84      -0.0200
     45  CD1       -4.0570  -10.7880   -3.2550 C.ar   84  PHE84      -0.0042
     46  CD2       -2.2810  -10.3650   -4.8350 C.ar   84  PHE84      -0.0042
     47  CE1       -3.1300  -11.2300   -2.3000 C.ar   84  PHE84      -0.0003
     48  CE2       -1.3350  -10.8020   -3.8860 C.ar   84  PHE84      -0.0003
     49  CZ        -1.7560  -11.2310   -2.6200 C.ar   84  PHE84      -0.0000
     50  N          0.4900   -3.4770   -3.7770 N.3    96  ARG96      -0.1231
     51  CA         0.2990   -4.7830   -3.1830 C.3    96  ARG96       0.1694
     52  C          0.1960   -5.8850   -4.2330 C.2    96  ARG96       0.2592
     53  O          0.1950   -7.0540   -3.8890 O.2    96  ARG96      -0.2718
     54  CB        -0.9320   -4.7570   -2.2630 C.3    96  ARG96       0.0321
     55  CG        -0.8450   -3.6670   -1.1570 C.3    96  ARG96       0.0489
     56  CD        -1.1000   -4.2510    0.2710 C.3    96  ARG96       0.2205
     57  NE        -0.2530   -5.4210    0.6080 N.pl3  96  ARG96      -0.0865
     58  CZ        -0.5400   -6.3230    1.5610 C.cat  96  ARG96       0.5346
     59  NH1        0.2800   -7.3520    1.7780 N.pl3  96  ARG96       0.1354
     60  NH2       -1.6540   -6.2070    2.2950 N.pl3  96  ARG96       0.1354
     61  N          0.0980   -5.5000   -5.5130 N.am   97  HIS97      -0.1962
     62  CA         0.1490   -6.4510   -6.6580 C.3    97  HIS97       0.1787
     63  C          1.5420   -6.4270   -7.3340 C.2    97  HIS97       0.2620
     64  O          1.7850   -7.1060   -8.3310 O.2    97  HIS97      -0.2715
     65  CB        -1.0040   -6.1750   -7.6420 C.3    97  HIS97       0.0785
     66  CG        -2.3110   -5.9300   -6.9540 C.ar   97  HIS97       0.0821
     67  ND1       -2.9950   -4.7360   -7.0500 N.ar   97  HIS97      -0.2267
     68  CD2       -3.0170   -6.6950   -6.0850 C.ar   97  HIS97       0.1154
     69  CE1       -4.0790   -4.7850   -6.2890 C.ar   97  HIS97       0.1986
     70  NE2       -4.1170   -5.9650   -5.6980 N.ar   97  HIS97      -0.2212
     71  N          2.4420   -5.6250   -6.7710 N.am   98  ALA98      -0.1963
     72  CA         3.8060   -5.5240   -7.2510 C.3    98  ALA98       0.1728
     73  C          4.6260   -6.7480   -6.8250 C.2    98  ALA98       0.2616
     74  O          4.3890   -7.3390   -5.7740 O.2    98  ALA98      -0.2715
     75  CB         4.4680   -4.2210   -6.7660 C.3    98  ALA98       0.0334
     76  N          5.5800   -7.1110   -7.6810 N.am   99  TYR99      -0.1974
     77  CA         6.4820   -8.2170   -7.4340 C.3    99  TYR99       0.1639
     78  C          7.8070   -7.6320   -6.9600 C.2    99  TYR99       0.2290
     79  O          8.6390   -7.2140   -7.7730 O.2    99  TYR99      -0.2864
     80  CB         6.6540   -9.0060   -8.7230 C.3    99  TYR99       0.0560
     81  CG         7.4430  -10.2810   -8.6490 C.ar   99  TYR99      -0.0198
     82  CD1        7.8420  -10.9210   -9.8230 C.ar   99  TYR99      -0.0009
     83  CD2        7.7730  -10.8730   -7.4240 C.ar   99  TYR99      -0.0009
     84  CE1        8.5340  -12.1240   -9.7920 C.ar   99  TYR99       0.0417
     85  CE2        8.4820  -12.0640   -7.3760 C.ar   99  TYR99       0.0417
     86  CZ         8.8710  -12.6810   -8.5570 C.ar   99  TYR99       0.1957
     87  OH         9.5870  -13.8570   -8.5040 O.3    99  TYR99      -0.2866
     88  N          3.8160   -6.8780  -12.9610 N.3   109  TYR109     -0.1227
     89  CA         4.2730   -7.6310  -14.1110 C.3   109  TYR109      0.1736
     90  C          3.1460   -8.1250  -14.9600 C.2   109  TYR109      0.2595
     91  O          2.1240   -8.5680  -14.4370 O.2   109  TYR109     -0.2718
     92  CB         5.1120   -8.8240  -13.6770 C.3   109  TYR109      0.0548
     93  CG         6.5120   -8.4400  -13.2050 C.ar  109  TYR109     -0.0200
     94  CD1        7.6330   -8.9430  -13.8350 C.ar  109  TYR109     -0.0009
     95  CD2        6.6930   -7.5640  -12.1170 C.ar  109  TYR109     -0.0009
     96  CE1        8.8910   -8.6010  -13.4210 C.ar  109  TYR109      0.0417
     97  CE2        7.9490   -7.2040  -11.6920 C.ar  109  TYR109      0.0417
     98  CZ         9.0520   -7.7210  -12.3550 C.ar  109  TYR109      0.1957
     99  OH        10.3280   -7.3850  -11.9340 O.3   109  TYR109     -0.2866
    100  N          3.3520   -8.0670  -16.2810 N.am  110  PHE110     -0.1962
    101  CA         2.3540   -8.4930  -17.2540 C.3   110  PHE110      0.1771
    102  C          3.0160   -9.3380  -18.2940 C.2   110  PHE110      0.2619
    103  O          4.2370   -9.2240  -18.5290 O.2   110  PHE110     -0.2715
    104  CB         1.7270   -7.2860  -17.9160 C.3   110  PHE110      0.0574
    105  CG         0.8670   -6.5120  -17.0150 C.ar  110  PHE110     -0.0200
    106  CD1       -0.4880   -6.8410  -16.8790 C.ar  110  PHE110     -0.0042
    107  CD2        1.3890   -5.4250  -16.2950 C.ar  110  PHE110     -0.0042
    108  CE1       -1.3290   -6.1000  -15.9990 C.ar  110  PHE110     -0.0003
    109  CE2        0.5890   -4.7080  -15.4100 C.ar  110  PHE110     -0.0003
    110  CZ        -0.7750   -5.0470  -15.2480 C.ar  110  PHE110     -0.0000
    111  N          2.2560  -10.2020  -18.9360 N.am  111  ALA111     -0.1977
    112  CA         2.9090  -11.1570  -19.8240 C.3   111  ALA111      0.1597
    113  C          2.2090  -11.2340  -21.1790 C.2   111  ALA111      0.2287
    114  O          0.9620  -11.2050  -21.2530 O.2   111  ALA111     -0.2864
    115  CB         2.9620  -12.5350  -19.1530 C.3   111  ALA111      0.0319
    116  N          2.4050  -17.8940  -19.0560 N.3   116  LYS116     -0.1231
    117  CA         3.3090  -17.2490  -18.1010 C.3   116  LYS116      0.1693
    118  C          2.4320  -16.6980  -16.9880 C.2   116  LYS116      0.2592
    119  O          2.7580  -16.8410  -15.8290 O.2   116  LYS116     -0.2718
    120  CB         4.1490  -16.1300  -18.7590 C.3   116  LYS116      0.0285
    121  CG         4.9150  -15.2140  -17.8410 C.3   116  LYS116      0.0035
    122  CD         5.7250  -15.9460  -16.7450 C.3   116  LYS116      0.0206
    123  CE         6.9560  -16.6600  -17.3520 C.3   116  LYS116      0.1093
    124  NZ         8.0830  -16.8040  -16.3380 N.3   116  LYS116     -0.1314
    125  N          1.3100  -16.0610  -17.3510 N.am  117  SER117     -0.1952
    126  CA         0.4400  -15.4850  -16.3320 C.3   117  SER117      0.1924
    127  C         -0.2020  -16.5960  -15.5400 C.2   117  SER117      0.2314
    128  O         -0.3400  -16.5050  -14.3330 O.2   117  SER117     -0.2863
    129  CB        -0.5590  -14.5110  -16.9330 C.3   117  SER117      0.2116
    130  OG         0.1570  -13.3670  -17.3950 O.3   117  SER117     -0.2180
    131  N          1.1750  -17.6950  -12.1410 N.3   120  TYR120     -0.1241
    132  CA         1.0420  -16.8490  -10.9350 C.3   120  TYR120      0.1605
    133  C         -0.3630  -16.8540  -10.2960 C.2   120  TYR120      0.2264
    134  O         -0.6140  -16.1930   -9.2740 O.2   120  TYR120     -0.2867
    135  CB         1.4600  -15.4000  -11.2600 C.3   120  TYR120      0.0534
    136  CG         2.9570  -15.3210  -11.4830 C.ar  120  TYR120     -0.0201
    137  CD1        3.8160  -15.1030  -10.4190 C.ar  120  TYR120     -0.0009
    138  CD2        3.5170  -15.5710  -12.7540 C.ar  120  TYR120     -0.0009
    139  CE1        5.2020  -15.0910  -10.6060 C.ar  120  TYR120      0.0417
    140  CE2        4.8810  -15.5510  -12.9500 C.ar  120  TYR120      0.0417
    141  CZ         5.7210  -15.2920  -11.8760 C.ar  120  TYR120      0.1957
    142  OH         7.0930  -15.2570  -12.0480 O.3   120  TYR120     -0.2866
    143  N         -0.1430  -17.7930   -6.9700 N.3   123  GLY123     -0.1210
    144  CA         0.9810  -17.1130   -6.2780 C.3   123  GLY123      0.1956
    145  C          2.3340  -17.3150   -6.9340 C.2   123  GLY123      0.2611
    146  O          2.4680  -18.1080   -7.8760 O.2   123  GLY123     -0.2717
    147  N          3.3460  -16.5950   -6.4440 N.am  124  ILE124     -0.1979
    148  CA         4.7300  -16.6890   -6.9470 C.3   124  ILE124      0.1595
    149  C          5.0670  -18.1710   -6.9870 C.2   124  ILE124      0.2287
    150  O          4.8840  -18.8960   -5.9800 O.2   124  ILE124     -0.2864
    151  CB         5.7690  -16.0200   -5.9720 C.3   124  ILE124      0.0276
    152  CG1        5.5330  -14.5200   -5.7300 C.3   124  ILE124      0.0022
    153  CG2        7.1900  -16.2030   -6.4670 C.3   124  ILE124      0.0022
    154  CD1        4.7780  -13.8290   -6.7650 C.3   124  ILE124      0.0001
    155  N          7.7130   -9.7980  -21.2240 N.3   186  GLU186     -0.1245
    156  CA         7.0090   -9.4260  -20.0350 C.3   186  GLU186      0.1567
    157  C          7.2040   -7.9410  -19.8780 C.2   186  GLU186      0.2260
    158  O          8.1250   -7.3790  -20.4520 O.2   186  GLU186     -0.2867
    159  CB         7.5000  -10.2220  -18.8320 C.3   186  GLU186      0.0388
    160  CG         7.2980  -11.7290  -19.0270 C.3   186  GLU186      0.1160
    161  CD         7.9820  -12.6240  -17.9960 C.2   186  GLU186      0.3649
    162  OE1        8.5130  -13.7350  -18.4230 O.co2 186  GLU186     -0.2457
    163  OE2        7.9910  -12.2160  -16.7970 O.co2 186  GLU186     -0.2457
@<TRIPOS>BOND
     1    10    11   ar
     2    10     8   ar
     3    11     9   ar
     4     8     6   ar
     5     9     7   ar
     6   114   113    2
     7   155   156    1
     8   113   112    1
     9     6     7   ar
    10     6     5    1
    11     1     2    1
    12   158   157    2
    13   156   157    1
    14   156   159    1
    15   112   115    1
    16   112   111    1
    17     5     2    1
    18     2     3    1
    19   116   117    1
    20   160   159    1
    21   160   161    1
    22   111   102   am
    23   120   117    1
    24   120   121    1
    25   103   102    2
    26   162   161   ar
    27   102   101    1
    28   117   118    1
    29   161   163   ar
    30     3     4    2
    31     3    12   am
    32   104   101    1
    33   104   105    1
    34   121   122    1
    35   130   129    1
    36   123   122    1
    37   123   124    1
    38   125   118   am
    39   125   126    1
    40   101   100    1
    41   105   106   ar
    42   105   107   ar
    43    12    13    1
    44   118   119    2
    45   129   126    1
    46   106   108   ar
    47   126   127    1
    48   107   109   ar
    49   100    90   am
    50   108   110   ar
    51    13    16    1
    52    13    14    1
    53   127   128    2
    54   109   110   ar
    55    16    17    1
    56    90    91    2
    57    90    89    1
    58    14    15    2
    59    14    22   am
    60    22    23    1
    61    89    92    1
    62    89    88    1
    63    94    96   ar
    64    94    93   ar
    65    17    18   ar
    66    17    19   ar
    67    92    93    1
    68    18    20   ar
    69    96    98   ar
    70    93    95   ar
    71    23    24    1
    72   140   138   ar
    73   140   141   ar
    74   138   136   ar
    75    19    21   ar
    76    98    99    1
    77    98    97   ar
    78    20    21   ar
    79   131   132    1
    80    95    97   ar
    81   142   141    1
    82   141   139   ar
    83    24    25    2
    84    24    26   am
    85   136   135    1
    86   136   137   ar
    87   135   132    1
    88   132   133    1
    89    26    27    1
    90   139   137   ar
    91   133   134    2
    92    82    84   ar
    93    82    81   ar
    94    84    86   ar
    95    27    30    1
    96    27    28    1
    97    30    31    1
    98    29    28    2
    99    80    81    1
   100    80    77    1
   101    81    83   ar
   102    86    87    1
   103    86    85   ar
   104    28    32   am
   105    64    63    2
   106   146   145    2
   107    79    78    2
   108    76    77    1
   109    76    73   am
   110    65    66    1
   111    65    62    1
   112    77    78    1
   113    83    85   ar
   114    63    71   am
   115    63    62    1
   116    32    38    1
   117    32    33    1
   118    72    73    1
   119    72    71    1
   120    72    75    1
   121    67    66   ar
   122    67    69   ar
   123    41    42    2
   124    41    40    1
   125   149   148    1
   126   149   150    2
   127   143   144    1
   128    66    68   ar
   129   148   147    1
   130   148   151    1
   131   145   147   am
   132   145   144    1
   133    73    74    2
   134   154   152    1
   135    38    37    1
   136    62    61    1
   137   153   151    1
   138    39    40    1
   139    39    34   am
   140    69    70   ar
   141    33    34    1
   142    33    36    1
   143    68    70   ar
   144    40    43    1
   145   151   152    1
   146    34    35    2
   147    43    44    1
   148    37    36    1
   149    61    52   am
   150    46    44   ar
   151    46    48   ar
   152    44    45   ar
   153    52    53    2
   154    52    51    1
   155    48    49   ar
   156    50    51    1
   157    45    47   ar
   158    51    54    1
   159    49    47   ar
   160    54    55    1
   161    55    56    1
   162    56    57    1
   163    57    58    2
   164    58    59    1
   165    58    60    1
