@<TRIPOS>MOLECULE
tmp/4iugA07.pdb
 116 109 0 0 0
SMALL
GASTEIGER

@<TRIPOS>ATOM
      1  N         40.9290  -52.9760   46.1380 N.3    37  SER37      -0.1217
      2  CA        39.9430  -51.9680   45.7760 C.3    37  SER37       0.1889
      3  C         40.1620  -50.6430   46.4910 C.2    37  SER37       0.2288
      4  O         39.4280  -49.6970   46.2650 O.2    37  SER37      -0.2866
      5  CB        38.5060  -52.4720   45.9660 C.3    37  SER37       0.2089
      6  OG        38.2210  -52.7570   47.3180 O.3    37  SER37      -0.2183
      7  N         43.1530  -47.4110   44.3390 N.3    40  LEU40      -0.1245
      8  CA        42.7530  -46.2080   43.6170 C.3    40  LEU40       0.1561
      9  C         42.5990  -45.0070   44.5660 C.2    40  LEU40       0.2260
     10  O         42.9500  -43.8770   44.2090 O.2    40  LEU40      -0.2867
     11  CB        41.4590  -46.4410   42.8310 C.3    40  LEU40       0.0270
     12  CG        41.0540  -45.3040   41.8870 C.3    40  LEU40       0.0019
     13  CD1       42.1850  -44.9940   40.8990 C.3    40  LEU40       0.0001
     14  CD2       39.7660  -45.6450   41.1590 C.3    40  LEU40       0.0001
     15  N         44.2520  -41.3160   43.9750 N.3    44  HIS44      -0.1241
     16  CA        43.4730  -40.0680   43.9630 C.3    44  HIS44       0.1621
     17  C         44.1090  -39.0060   44.8790 C.2    44  HIS44       0.2264
     18  O         44.2450  -37.8260   44.5000 O.2    44  HIS44      -0.2867
     19  CB        42.0400  -40.2860   44.4540 C.3    44  HIS44       0.0745
     20  CG        41.1250  -40.8990   43.4440 C.ar   44  HIS44       0.0817
     21  ND1       39.9170  -41.4680   43.7940 N.ar   44  HIS44      -0.2268
     22  CD2       41.2250  -41.0220   42.1020 C.ar   44  HIS44       0.1154
     23  CE1       39.3190  -41.9240   42.7080 C.ar   44  HIS44       0.1986
     24  NE2       40.0940  -41.6710   41.6700 N.ar   44  HIS44      -0.2212
     25  N         46.6450  -50.8240   36.8610 N.3    83  ASP83      -0.1225
     26  CA        45.3830  -50.3000   36.3480 C.3    83  ASP83       0.1805
     27  C         44.9300  -49.0450   37.0760 C.2    83  ASP83       0.2597
     28  O         44.5070  -48.0800   36.4490 O.2    83  ASP83      -0.2718
     29  CB        44.2840  -51.3520   36.4300 C.3    83  ASP83       0.1424
     30  CG        44.4470  -52.4380   35.3930 C.2    83  ASP83       0.3668
     31  OD1       45.2660  -52.2260   34.4590 O.co2  83  ASP83      -0.2456
     32  OD2       43.7570  -53.4890   35.5120 O.co2  83  ASP83      -0.2456
     33  N         45.0000  -49.0780   38.4040 N.am   84  ALA84      -0.1979
     34  CA        44.6500  -47.9230   39.2280 C.3    84  ALA84       0.1597
     35  C         45.5140  -46.7070   38.8820 C.2    84  ALA84       0.2287
     36  O         45.0070  -45.5850   38.7650 O.2    84  ALA84      -0.2864
     37  CB        44.7640  -48.2700   40.7310 C.3    84  ALA84       0.0319
     38  N         44.2590  -45.3990   35.7020 N.3    87  GLU87      -0.1245
     39  CA        42.9790  -44.7410   35.9040 C.3    87  GLU87       0.1567
     40  C         43.1250  -43.3480   36.5400 C.2    87  GLU87       0.2260
     41  O         42.3740  -42.4360   36.2180 O.2    87  GLU87      -0.2867
     42  CB        42.0700  -45.6450   36.7470 C.3    87  GLU87       0.0388
     43  CG        40.7630  -45.0210   37.2280 C.3    87  GLU87       0.1160
     44  CD        39.7640  -44.8360   36.1040 C.2    87  GLU87       0.3649
     45  OE1       40.0050  -45.4110   35.0180 O.co2  87  GLU87      -0.2457
     46  OE2       38.7490  -44.1200   36.2980 O.co2  87  GLU87      -0.2457
     47  N         35.8870  -39.8860   32.9580 N.3   534  THR534     -0.1218
     48  CA        36.1680  -39.2650   34.2470 C.3   534  THR534      0.1862
     49  C         37.6310  -39.4140   34.6680 C.2   534  THR534      0.2287
     50  O         38.0230  -38.9520   35.7370 O.2   534  THR534     -0.2866
     51  CB        35.2650  -39.8190   35.3770 C.3   534  THR534      0.1770
     52  OG1       35.4790  -41.2310   35.5230 O.3   534  THR534     -0.2211
     53  CG2       33.8020  -39.5530   35.0780 C.3   534  THR534      0.0375
     54  N         35.1710  -33.4780   36.0770 N.3   560  HIS560     -0.1241
     55  CA        35.0190  -33.7190   34.6480 C.3   560  HIS560      0.1621
     56  C         33.8270  -32.9450   34.1080 C.2   560  HIS560      0.2264
     57  O         32.9210  -32.5810   34.8570 O.2   560  HIS560     -0.2867
     58  CB        34.8900  -35.2080   34.3520 C.3   560  HIS560      0.0745
     59  CG        33.7400  -35.8610   35.0480 C.ar  560  HIS560      0.0817
     60  ND1       32.5550  -36.1600   34.4080 N.ar  560  HIS560     -0.2268
     61  CD2       33.5900  -36.2680   36.3280 C.ar  560  HIS560      0.1154
     62  CE1       31.7260  -36.7280   35.2640 C.ar  560  HIS560      0.1986
     63  NE2       32.3290  -36.8020   36.4370 N.ar  560  HIS560     -0.2212
     64  N         31.0650  -31.6560   36.9740 N.3   567  HIS567     -0.1241
     65  CA        31.0920  -32.6420   38.0410 C.3   567  HIS567      0.1621
     66  C         32.3070  -32.5090   38.9500 C.2   567  HIS567      0.2264
     67  O         33.4430  -32.4860   38.4790 O.2   567  HIS567     -0.2867
     68  CB        31.0710  -34.0440   37.4490 C.3   567  HIS567      0.0745
     69  CG        29.7350  -34.4570   36.9180 C.ar  567  HIS567      0.0817
     70  ND1       28.8770  -35.2730   37.6240 N.ar  567  HIS567     -0.2268
     71  CD2       29.1110  -34.1710   35.7500 C.ar  567  HIS567      0.1154
     72  CE1       27.7830  -35.4750   36.9120 C.ar  567  HIS567      0.1986
     73  NE2       27.8990  -34.8200   35.7710 N.ar  567  HIS567     -0.2212
     74  N         34.1550  -34.5130   42.2010 N.3   569  THR569     -0.1218
     75  CA        34.1950  -35.6930   43.0640 C.3   569  THR569      0.1862
     76  C         35.0420  -35.3660   44.2990 C.2   569  THR569      0.2287
     77  O         36.2220  -35.0660   44.1790 O.2   569  THR569     -0.2866
     78  CB        34.7920  -36.9240   42.3380 C.3   569  THR569      0.1770
     79  OG1       34.1590  -37.0990   41.0660 O.3   569  THR569     -0.2211
     80  CG2       34.6060  -38.1830   43.1680 C.3   569  THR569      0.0375
     81  N         29.5370  -35.3630   43.6740 N.3   593  ASN593     -0.1240
     82  CA        29.4170  -36.7980   43.9230 C.3   593  ASN593      0.1653
     83  C         28.1530  -37.3930   43.2910 C.2   593  ASN593      0.2266
     84  O         27.4270  -38.1700   43.9180 O.2   593  ASN593     -0.2867
     85  CB        29.4820  -37.0990   45.4270 C.3   593  ASN593      0.1155
     86  CG        30.8040  -36.6840   46.0460 C.2   593  ASN593      0.2627
     87  OD1       31.7950  -36.4910   45.3470 O.2   593  ASN593     -0.2716
     88  ND2       30.8270  -36.5530   47.3580 N.am  593  ASN593     -0.0877
     89  N         33.2420  -39.4830   48.1950 N.3   937  GLY937     -0.1210
     90  CA        32.7800  -39.6500   46.8290 C.3   937  GLY937      0.1956
     91  C         33.4370  -40.8420   46.1530 C.2   937  GLY937      0.2612
     92  O         33.2620  -41.0620   44.9580 O.2   937  GLY937     -0.2717
     93  N         34.2080  -41.6070   46.9150 N.am  938  TYR938     -0.1962
     94  CA        34.8040  -42.8380   46.4090 C.3   938  TYR938      0.1771
     95  C         33.6980  -43.8660   46.2920 C.2   938  TYR938      0.2620
     96  O         32.6570  -43.7490   46.9410 O.2   938  TYR938     -0.2715
     97  CB        35.8460  -43.3440   47.3940 C.3   938  TYR938      0.0574
     98  CG        36.8220  -44.3820   46.8740 C.ar  938  TYR938     -0.0198
     99  CD1       37.8210  -44.0350   45.9680 C.ar  938  TYR938     -0.0009
    100  CD2       36.7860  -45.6920   47.3380 C.ar  938  TYR938     -0.0009
    101  CE1       38.7290  -44.9670   45.5180 C.ar  938  TYR938      0.0417
    102  CE2       37.6980  -46.6300   46.8930 C.ar  938  TYR938      0.0417
    103  CZ        38.6630  -46.2630   45.9860 C.ar  938  TYR938      0.1957
    104  OH        39.5740  -47.1890   45.5340 O.3   938  TYR938     -0.2866
    105  N         33.9200  -44.8820   45.4730 N.am  939  GLY939     -0.1940
    106  CA        32.8950  -45.8870   45.2740 C.3   939  GLY939      0.2014
    107  C         32.7950  -46.8980   46.4000 C.2   939  GLY939      0.2638
    108  O         33.1400  -46.6300   47.5560 O.2   939  GLY939     -0.2714
    109  N         32.3040  -48.0770   46.0490 N.am  940  ASN940     -0.1972
    110  CA        32.1710  -49.1810   46.9830 C.3   940  ASN940      0.1688
    111  C         33.5440  -49.8210   47.2090 C.2   940  ASN940      0.2292
    112  O         34.3380  -49.9530   46.2830 O.2   940  ASN940     -0.2864
    113  CB        31.1190  -50.1690   46.4430 C.3   940  ASN940      0.1181
    114  CG        31.3510  -51.6040   46.8950 C.2   940  ASN940      0.2629
    115  OD1       31.0300  -51.9840   48.0380 O.2   940  ASN940     -0.2716
    116  ND2       31.8840  -52.4280   45.9820 N.am  940  ASN940     -0.0877
@<TRIPOS>BOND
     1    47    48    1
     2    56    55    1
     3    56    57    2
     4    48    49    1
     5    48    51    1
     6    58    55    1
     7    58    59    1
     8    60    59   ar
     9    60    62   ar
    10    31    30   ar
    11    55    54    1
    12    49    50    2
    13    45    44   ar
    14    59    61   ar
    15    53    51    1
    16    62    63   ar
    17    51    52    1
    18    30    32   ar
    19    30    29    1
    20    38    39    1
    21    71    73   ar
    22    71    69   ar
    23    73    72   ar
    24    39    40    1
    25    39    42    1
    26    44    46   ar
    27    44    43    1
    28    41    40    2
    29    61    63   ar
    30    26    29    1
    31    26    25    1
    32    26    27    1
    33    28    27    2
    34    42    43    1
    35    72    70   ar
    36    69    68    1
    37    69    70   ar
    38    64    65    1
    39    27    33   am
    40    68    65    1
    41    65    66    1
    42    33    34    1
    43    67    66    2
    44    36    35    2
    45    35    34    1
    46    34    37    1
    47    13    12    1
    48    79    78    1
    49    14    12    1
    50    24    22   ar
    51    24    23   ar
    52    12    11    1
    53    22    20   ar
    54    74    75    1
    55    78    75    1
    56    78    80    1
    57    23    21   ar
    58    11     8    1
    59    75    76    1
    60    83    84    2
    61    83    82    1
    62    20    21   ar
    63    20    19    1
    64     8     7    1
    65     8     9    1
    66    81    82    1
    67    82    85    1
    68    16    15    1
    69    16    19    1
    70    16    17    1
    71    77    76    2
    72    10     9    2
    73    18    17    2
    74    92    91    2
    75   106   105    1
    76   106   107    1
    77    87    86    2
    78    85    86    1
    79   105    95   am
    80   101    99   ar
    81   101   103   ar
    82   104   103    1
    83     2     5    1
    84     2     1    1
    85     2     3    1
    86     5     6    1
    87    99    98   ar
    88   116   114   am
    89   103   102   ar
    90    86    88   am
    91   109   107   am
    92   109   110    1
    93    91    90    1
    94    91    93   am
    95     4     3    2
    96   112   111    2
    97    95    94    1
    98    95    96    2
    99   107   108    2
   100    94    93    1
   101    94    97    1
   102   113   114    1
   103   113   110    1
   104    90    89    1
   105    98   100   ar
   106    98    97    1
   107   102   100   ar
   108   114   115    2
   109   110   111    1
