@<TRIPOS>MOLECULE
tmp/4iugA01.pdb
 188 177 0 0 0
SMALL
GASTEIGER

@<TRIPOS>ATOM
      1  N         54.7670  -43.0250   65.9610 N.3   264  PHE264     -0.1227
      2  CA        54.7540  -42.2820   64.6960 C.3   264  PHE264      0.1736
      3  C         54.2280  -40.8690   64.8190 C.2   264  PHE264      0.2595
      4  O         54.4130  -40.0620   63.9140 O.2   264  PHE264     -0.2718
      5  CB        54.0360  -43.0500   63.5800 C.3   264  PHE264      0.0547
      6  CG        54.8230  -44.2200   63.0620 C.ar  264  PHE264     -0.0202
      7  CD1       56.0530  -44.0200   62.4490 C.ar  264  PHE264     -0.0042
      8  CD2       54.3480  -45.5220   63.2120 C.ar  264  PHE264     -0.0042
      9  CE1       56.8060  -45.1010   61.9790 C.ar  264  PHE264     -0.0003
     10  CE2       55.0750  -46.6080   62.7470 C.ar  264  PHE264     -0.0003
     11  CZ        56.3160  -46.3980   62.1240 C.ar  264  PHE264     -0.0000
     12  N         53.5950  -40.5690   65.9500 N.am  265  GLU265     -0.1979
     13  CA        53.1230  -39.2200   66.2410 C.3   265  GLU265      0.1602
     14  C         54.2790  -38.2760   66.3960 C.2   265  GLU265      0.2287
     15  O         54.2630  -37.1530   65.8800 O.2   265  GLU265     -0.2864
     16  CB        52.3580  -39.1920   67.5470 C.3   265  GLU265      0.0415
     17  CG        51.0680  -38.5010   67.4020 C.3   265  GLU265      0.1163
     18  CD        50.1570  -39.2930   66.5180 C.2   265  GLU265      0.3649
     19  OE1       50.0610  -39.0140   65.2890 O.co2 265  GLU265     -0.2457
     20  OE2       49.5570  -40.2360   67.0730 O.co2 265  GLU265     -0.2457
     21  N         52.7000  -51.2770   62.8630 N.3   313  SER313     -0.1217
     22  CA        52.4130  -50.0480   62.1320 C.3   313  SER313      0.1889
     23  C         53.5540  -49.5690   61.2060 C.2   313  SER313      0.2288
     24  O         54.7310  -49.5930   61.5760 O.2   313  SER313     -0.2866
     25  CB        52.0490  -48.9460   63.1220 C.3   313  SER313      0.2089
     26  OG        51.8140  -47.7360   62.4440 O.3   313  SER313     -0.2183
     27  N         52.8840  -46.3690   59.7280 N.3   315  ASP315     -0.1239
     28  CA        52.3280  -45.0430   59.4800 C.3   315  ASP315      0.1674
     29  C         53.4000  -44.0750   58.9850 C.2   315  ASP315      0.2266
     30  O         53.1210  -43.2160   58.1470 O.2   315  ASP315     -0.2867
     31  CB        51.6540  -44.4620   60.7250 C.3   315  ASP315      0.1410
     32  CG        51.1470  -43.0430   60.4910 C.2   315  ASP315      0.3668
     33  OD1       49.9840  -42.9200   60.0510 O.co2 315  ASP315     -0.2456
     34  OD2       51.9130  -42.0630   60.6990 O.co2 315  ASP315     -0.2456
     35  N         48.1030  -40.8960   56.1600 N.3   321  THR321     -0.1203
     36  CA        48.3190  -41.7050   57.3600 C.3   321  THR321      0.1994
     37  C         48.0290  -43.1630   57.0810 C.2   321  THR321      0.2618
     38  O         47.5720  -43.5170   55.9990 O.2   321  THR321     -0.2717
     39  CB        47.4180  -41.2560   58.5400 C.3   321  THR321      0.1784
     40  OG1       46.0540  -41.6500   58.2950 O.3   321  THR321     -0.2211
     41  CG2       47.5000  -39.7420   58.7490 C.3   321  THR321      0.0376
     42  N         48.2930  -44.0030   58.0770 N.am  322  GLU322     -0.1965
     43  CA        48.0190  -45.4220   57.9790 C.3   322  GLU322      0.1733
     44  C         46.5490  -45.6940   57.6790 C.2   322  GLU322      0.2617
     45  O         46.2160  -46.6290   56.9520 O.2   322  GLU322     -0.2715
     46  CB        48.4250  -46.1080   59.2790 C.3   322  GLU322      0.0429
     47  CG        48.3430  -47.6050   59.2450 C.3   322  GLU322      0.1163
     48  CD        49.0230  -48.2250   60.4410 C.2   322  GLU322      0.3649
     49  OE1       49.3120  -47.4930   61.4190 O.co2 322  GLU322     -0.2457
     50  OE2       49.2760  -49.4520   60.4060 O.co2 322  GLU322     -0.2457
     51  N         45.6620  -44.8790   58.2350 N.am  323  THR323     -0.1951
     52  CA        44.2360  -45.0580   58.0050 C.3   323  THR323      0.1897
     53  C         43.8080  -44.2790   56.7740 C.2   323  THR323      0.2313
     54  O         42.6090  -44.0850   56.5480 O.2   323  THR323     -0.2863
     55  CB        43.4100  -44.5690   59.1890 C.3   323  THR323      0.1794
     56  OG1       43.8520  -43.2610   59.5510 O.3   323  THR323     -0.2208
     57  CG2       43.5650  -45.4890   60.3830 C.3   323  THR323      0.0378
     58  N         43.9730  -41.1860   55.9060 N.3   325  ASN325     -0.1240
     59  CA        43.4380  -39.8340   56.0130 C.3   325  ASN325      0.1653
     60  C         44.4450  -38.7330   55.6270 C.2   325  ASN325      0.2266
     61  O         45.6630  -38.9200   55.7190 O.2   325  ASN325     -0.2867
     62  CB        42.7570  -39.5730   57.3850 C.3   325  ASN325      0.1155
     63  CG        43.7440  -39.4170   58.5440 C.2   325  ASN325      0.2627
     64  OD1       44.5530  -38.4890   58.5760 O.2   325  ASN325     -0.2716
     65  ND2       43.6220  -40.3060   59.5370 N.am  325  ASN325     -0.0877
     66  N         44.5170  -35.5320   56.9730 N.3   327  THR327     -0.1203
     67  CA        44.3440  -34.4410   57.9200 C.3   327  THR327      0.1994
     68  C         45.6530  -33.7120   58.1930 C.2   327  THR327      0.2617
     69  O         45.6470  -32.5140   58.4420 O.2   327  THR327     -0.2717
     70  CB        43.7820  -34.9280   59.2540 C.3   327  THR327      0.1784
     71  OG1       44.6730  -35.9040   59.8040 O.3   327  THR327     -0.2211
     72  CG2       42.3830  -35.5450   59.0810 C.3   327  THR327      0.0376
     73  N         46.7780  -34.4140   58.1470 N.am  328  ARG328     -0.1979
     74  CA        48.0280  -33.7930   58.5770 C.3   328  ARG328      0.1597
     75  C         48.3420  -32.5440   57.7730 C.2   328  ARG328      0.2287
     76  O         48.1570  -32.5210   56.5650 O.2   328  ARG328     -0.2864
     77  CB        49.1940  -34.7870   58.5330 C.3   328  ARG328      0.0334
     78  CG        49.1180  -35.8220   59.6350 C.3   328  ARG328      0.0492
     79  CD        50.0470  -37.0010   59.3990 C.3   328  ARG328      0.2205
     80  NE        50.0350  -37.8780   60.5650 N.pl3 328  ARG328     -0.0865
     81  CZ        50.5600  -39.0980   60.6010 C.cat 328  ARG328      0.5346
     82  NH1       51.1360  -39.6070   59.5210 N.pl3 328  ARG328      0.1354
     83  NH2       50.5020  -39.8090   61.7230 N.pl3 328  ARG328      0.1354
     84  N         34.8200  -33.5930   55.5820 N.3   573  ASN573     -0.1240
     85  CA        34.8060  -33.9000   57.0120 C.3   573  ASN573      0.1653
     86  C         34.2110  -32.7710   57.8550 C.2   573  ASN573      0.2266
     87  O         34.2510  -32.7980   59.0850 O.2   573  ASN573     -0.2867
     88  CB        36.1950  -34.3110   57.5180 C.3   573  ASN573      0.1155
     89  CG        37.1620  -33.1370   57.6510 C.2   573  ASN573      0.2627
     90  OD1       36.9190  -32.0450   57.1230 O.2   573  ASN573     -0.2716
     91  ND2       38.2840  -33.3780   58.3630 N.am  573  ASN573     -0.0877
     92  N         37.6230  -44.6170   59.7930 N.3   858  PRO858     -0.2116
     93  CA        38.7480  -45.3860   60.3190 C.3   858  PRO858      0.1372
     94  C         38.3620  -46.1020   61.6050 C.2   858  PRO858      0.2244
     95  O         37.8020  -45.4740   62.5080 O.2   858  PRO858     -0.2868
     96  CB        39.8070  -44.3120   60.6060 C.3   858  PRO858      0.0268
     97  CG        39.4390  -43.1710   59.7530 C.3   858  PRO858      0.0207
     98  CD        37.9270  -43.1800   59.7130 C.3   858  PRO858      0.0892
     99  N         39.7550  -48.8330   64.7680 N.3   860  TYR860     -0.1241
    100  CA        40.9640  -49.2310   65.4690 C.3   860  TYR860      0.1605
    101  C         40.6670  -50.2520   66.5380 C.2   860  TYR860      0.2264
    102  O         39.6720  -50.1320   67.2510 O.2   860  TYR860     -0.2867
    103  CB        41.5600  -48.0370   66.1920 C.3   860  TYR860      0.0534
    104  CG        41.7830  -46.8280   65.3450 C.ar  860  TYR860     -0.0201
    105  CD1       40.7560  -45.9260   65.1160 C.ar  860  TYR860     -0.0009
    106  CD2       43.0370  -46.5650   64.7920 C.ar  860  TYR860     -0.0009
    107  CE1       40.9640  -44.8010   64.3550 C.ar  860  TYR860      0.0417
    108  CE2       43.2540  -45.4420   64.0280 C.ar  860  TYR860      0.0417
    109  CZ        42.2140  -44.5630   63.8110 C.ar  860  TYR860      0.1957
    110  OH        42.4120  -43.4350   63.0460 O.3   860  TYR860     -0.2866
    111  N         42.0220  -51.1440   70.0850 N.3   862  ASN862     -0.1225
    112  CA        42.8040  -50.5170   71.1440 C.3   862  ASN862      0.1785
    113  C         43.0770  -51.4540   72.3100 C.2   862  ASN862      0.2597
    114  O         42.1680  -52.0930   72.8330 O.2   862  ASN862     -0.2718
    115  CB        42.0760  -49.2890   71.6750 C.3   862  ASN862      0.1169
    116  CG        41.8720  -48.2340   70.6210 C.2   862  ASN862      0.2627
    117  OD1       42.8320  -47.6780   70.1050 O.2   862  ASN862     -0.2716
    118  ND2       40.6190  -47.9340   70.3110 N.am  862  ASN862     -0.0877
    119  N         44.3310  -51.5160   72.7230 N.am  863  PHE863     -0.1962
    120  CA        44.7500  -52.4070   73.7900 C.3   863  PHE863      0.1771
    121  C         45.1270  -51.5450   74.9770 C.2   863  PHE863      0.2620
    122  O         45.8720  -50.5760   74.8220 O.2   863  PHE863     -0.2715
    123  CB        46.0020  -53.1900   73.3790 C.3   863  PHE863      0.0574
    124  CG        45.7660  -54.2850   72.3690 C.ar  863  PHE863     -0.0200
    125  CD1       45.4560  -53.9870   71.0480 C.ar  863  PHE863     -0.0042
    126  CD2       45.9260  -55.6130   72.7240 C.ar  863  PHE863     -0.0042
    127  CE1       45.2690  -54.9960   70.1030 C.ar  863  PHE863     -0.0003
    128  CE2       45.7380  -56.6260   71.7880 C.ar  863  PHE863     -0.0003
    129  CZ        45.4090  -56.3120   70.4750 C.ar  863  PHE863     -0.0000
    130  N         44.6270  -51.8830   76.1610 N.am  864  GLY864     -0.1954
    131  CA        45.0760  -51.2100   77.3640 C.3   864  GLY864      0.1869
    132  C         46.4970  -51.6480   77.6560 C.2   864  GLY864      0.2309
    133  O         46.9180  -52.7060   77.1880 O.2   864  GLY864     -0.2863
    134  N         49.6620  -49.3910   70.8440 N.3   892  THR892     -0.1203
    135  CA        48.4410  -49.8080   71.5450 C.3   892  THR892      0.1994
    136  C         47.1780  -49.6510   70.6930 C.2   892  THR892      0.2618
    137  O         46.1770  -50.2930   70.9580 O.2   892  THR892     -0.2717
    138  CB        48.2300  -49.0820   72.9040 C.3   892  THR892      0.1784
    139  OG1       48.0110  -47.6780   72.6930 O.3   892  THR892     -0.2211
    140  CG2       49.4280  -49.2810   73.8130 C.3   892  THR892      0.0376
    141  N         47.2240  -48.8110   69.6680 N.am  893  SER893     -0.1951
    142  CA        46.0810  -48.6480   68.7660 C.3   893  SER893      0.1924
    143  C         46.3700  -49.2420   67.3780 C.2   893  SER893      0.2314
    144  O         47.3050  -48.8230   66.6960 O.2   893  SER893     -0.2863
    145  CB        45.7120  -47.1730   68.6480 C.3   893  SER893      0.2116
    146  OG        44.6460  -46.9910   67.7440 O.3   893  SER893     -0.2180
    147  N         44.9330  -49.9620   63.6810 N.3   895  PRO895     -0.2116
    148  CA        43.9090  -49.7320   62.6610 C.3   895  PRO895      0.1372
    149  C         43.8250  -50.9090   61.6990 C.2   895  PRO895      0.2244
    150  O         44.8300  -51.5690   61.4220 O.2   895  PRO895     -0.2868
    151  CB        44.4270  -48.5040   61.9330 C.3   895  PRO895      0.0268
    152  CG        45.9070  -48.6280   62.0270 C.3   895  PRO895      0.0207
    153  CD        46.1970  -49.2750   63.3570 C.3   895  PRO895      0.0892
    154  N         42.4780  -53.5720   78.8630 N.3   925  SER925     -0.1217
    155  CA        41.2220  -53.2260   78.2180 C.3   925  SER925      0.1889
    156  C         41.3330  -53.6200   76.7410 C.2   925  SER925      0.2288
    157  O         42.4310  -53.8740   76.2420 O.2   925  SER925     -0.2866
    158  CB        40.9270  -51.7370   78.3680 C.3   925  SER925      0.2089
    159  OG        41.8410  -50.9570   77.6250 O.3   925  SER925     -0.2183
    160  N         39.1170  -52.2440   73.4390 N.3   927  GLU927     -0.1245
    161  CA        38.0010  -51.4870   72.8830 C.3   927  GLU927      0.1567
    162  C         38.1840  -51.3710   71.3670 C.2   927  GLU927      0.2260
    163  O         39.3010  -51.3730   70.8540 O.2   927  GLU927     -0.2867
    164  CB        37.8930  -50.0640   73.5100 C.3   927  GLU927      0.0388
    165  CG        37.7170  -49.9550   75.0580 C.3   927  GLU927      0.1160
    166  CD        37.4160  -48.5010   75.5410 C.2   927  GLU927      0.3649
    167  OE1       36.9170  -47.6850   74.7180 O.co2 927  GLU927     -0.2457
    168  OE2       37.6650  -48.1660   76.7400 O.co2 927  GLU927     -0.2457
    169  N         37.4820  -48.6050   68.5130 N.3   929  SER929     -0.1217
    170  CA        37.1330  -47.1810   68.3980 C.3   929  SER929      0.1889
    171  C         37.1660  -46.6360   66.9670 C.2   929  SER929      0.2288
    172  O         37.6020  -47.3220   66.0280 O.2   929  SER929     -0.2866
    173  CB        38.0450  -46.3340   69.2790 C.3   929  SER929      0.2089
    174  OG        39.2500  -45.9910   68.6020 O.3   929  SER929     -0.2183
    175  N         37.5660  -42.7420   64.4000 N.3   931  THR931     -0.1203
    176  CA        37.8440  -41.3120   64.2830 C.3   931  THR931      0.1994
    177  C         36.9740  -40.7130   63.1730 C.2   931  THR931      0.2618
    178  O         36.2050  -41.4480   62.5570 O.2   931  THR931     -0.2717
    179  CB        39.3540  -41.0270   64.0560 C.3   931  THR931      0.1784
    180  OG1       39.8090  -41.7140   62.8850 O.3   931  THR931     -0.2211
    181  CG2       40.1550  -41.4910   65.2510 C.3   931  THR931      0.0376
    182  N         37.0880  -39.4010   62.9280 N.am  932  THR932     -0.1952
    183  CA        36.1110  -38.6510   62.1050 C.3   932  THR932      0.1897
    184  C         35.5600  -39.3630   60.8620 C.2   932  THR932      0.2313
    185  O         36.3090  -39.6430   59.9180 O.2   932  THR932     -0.2863
    186  CB        36.6750  -37.3120   61.5820 C.3   932  THR932      0.1794
    187  OG1       37.1840  -36.5190   62.6620 O.3   932  THR932     -0.2208
    188  CG2       35.5820  -36.5420   60.8480 C.3   932  THR932      0.0378
@<TRIPOS>BOND
     1    84    85    1
     2    60    61    2
     3    60    59    1
     4    58    59    1
     5    38    37    2
     6    59    62    1
     7    35    36    1
     8    54    53    2
     9    76    75    2
    10    53    52    1
    11    45    44    2
    12    66    67    1
    13    85    88    1
    14    85    86    1
    15    37    36    1
    16    37    42   am
    17    90    89    2
    18    36    39    1
    19    62    63    1
    20    88    89    1
    21    89    91   am
    22    44    43    1
    23    44    51   am
    24    75    74    1
    25    86    87    2
    26    67    68    1
    27    67    70    1
    28    43    42    1
    29    43    46    1
    30    52    51    1
    31    52    55    1
    32    30    29    2
    33    73    68   am
    34    73    74    1
    35    68    69    2
    36    40    39    1
    37    77    74    1
    38    77    78    1
    39    39    41    1
    40    63    64    2
    41    63    65   am
    42    29    28    1
    43    72    70    1
    44    55    56    1
    45    55    57    1
    46    47    46    1
    47    47    48    1
    48    70    71    1
    49    79    78    1
    50    79    80    1
    51    28    27    1
    52    28    31    1
    53    82    81    1
    54    98    97    1
    55    98    92    1
    56    97    96    1
    57    92    93    1
    58   185   184    2
    59    33    32   ar
    60    93    96    1
    61    93    94    1
    62    50    48   ar
    63    48    49   ar
    64    32    34   ar
    65    32    31    1
    66    80    81    2
    67    81    83    1
    68   188   186    1
    69   184   183    1
    70    23    24    2
    71    23    22    1
    72   150   149    2
    73   186   183    1
    74   186   187    1
    75    94    95    2
    76   149   148    1
    77   151   152    1
    78   151   148    1
    79     9    11   ar
    80     9     7   ar
    81   152   153    1
    82   183   182    1
    83    11    10   ar
    84    22    21    1
    85    22    25    1
    86    26    25    1
    87     7     6   ar
    88   178   177    2
    89   148   147    1
    90    10     8   ar
    91   180   179    1
    92   182   177   am
    93   110   109    1
    94     6     8   ar
    95     6     5    1
    96   177   176    1
    97   153   147    1
    98     5     2    1
    99   109   108   ar
   100   109   107   ar
   101     4     3    2
   102   108   106   ar
   103   179   176    1
   104   179   181    1
   105   176   175    1
   106   107   105   ar
   107     2     3    1
   108     2     1    1
   109    99   100    1
   110   106   104   ar
   111     3    12   am
   112   105   104   ar
   113    19    18   ar
   114   104   103    1
   115   100   103    1
   116   100   101    1
   117    15    14    2
   118    12    13    1
   119   172   171    2
   120    13    14    1
   121    13    16    1
   122    18    20   ar
   123    18    17    1
   124   101   102    2
   125   144   143    2
   126   171   170    1
   127   143   142    1
   128    17    16    1
   129   146   145    1
   130   170   169    1
   131   170   173    1
   132   174   173    1
   133   145   142    1
   134   142   141    1
   135   141   136   am
   136   111   112    1
   137   127   129   ar
   138   127   125   ar
   139   117   116    2
   140   118   116   am
   141   129   128   ar
   142   116   115    1
   143   136   137    2
   144   136   135    1
   145   134   135    1
   146   163   162    2
   147   125   124   ar
   148   112   115    1
   149   112   113    1
   150   162   161    1
   151   135   138    1
   152   128   126   ar
   153   113   119   am
   154   113   114    2
   155   124   126   ar
   156   124   123    1
   157   139   138    1
   158   119   120    1
   159   161   160    1
   160   161   164    1
   161   138   140    1
   162   123   120    1
   163   164   165    1
   164   120   121    1
   165   167   166   ar
   166   122   121    2
   167   121   130   am
   168   165   166    1
   169   166   168   ar
   170   130   131    1
   171   157   156    2
   172   156   155    1
   173   133   132    2
   174   131   132    1
   175   159   158    1
   176   155   158    1
   177   155   154    1
