@<TRIPOS>MOLECULE
tmp/4iugA05.pdb
 89 88 0 0 0
SMALL
GASTEIGER

@<TRIPOS>ATOM
      1  N         76.6170  -74.6020   66.9130 N.3   662  ASP662     -0.1239
      2  CA        77.1980  -74.8660   68.2300 C.3   662  ASP662      0.1674
      3  C         76.4830  -76.0370   68.8520 C.2   662  ASP662      0.2266
      4  O         76.6870  -76.3420   70.0230 O.2   662  ASP662     -0.2867
      5  CB        76.9870  -73.6910   69.1740 C.3   662  ASP662      0.1410
      6  CG        77.6410  -72.4490   68.6870 C.2   662  ASP662      0.3668
      7  OD1       78.5030  -72.5920   67.8010 O.co2 662  ASP662     -0.2456
      8  OD2       77.3070  -71.3420   69.1720 O.co2 662  ASP662     -0.2456
      9  N         70.8790  -74.4960   80.3040 N.3   695  PHE695     -0.1241
     10  CA        71.1790  -73.2290   79.6540 C.3   695  PHE695      0.1605
     11  C         70.6950  -73.2240   78.2100 C.2   695  PHE695      0.2264
     12  O         70.8380  -74.2240   77.5100 O.2   695  PHE695     -0.2867
     13  CB        72.6760  -72.9010   79.7000 C.3   695  PHE695      0.0534
     14  CG        73.0680  -71.8280   78.7340 C.ar  695  PHE695     -0.0203
     15  CD1       72.7850  -70.4960   79.0110 C.ar  695  PHE695     -0.0042
     16  CD2       73.6700  -72.1470   77.5240 C.ar  695  PHE695     -0.0042
     17  CE1       73.1170  -69.5060   78.1190 C.ar  695  PHE695     -0.0003
     18  CE2       74.0010  -71.1570   76.6260 C.ar  695  PHE695     -0.0003
     19  CZ        73.7260  -69.8370   76.9280 C.ar  695  PHE695     -0.0000
     20  N         70.3640  -70.4490   74.6430 N.3   697  ARG697     -0.1245
     21  CA        70.4560  -69.1900   73.9200 C.3   697  ARG697      0.1563
     22  C         69.4630  -69.2160   72.7760 C.2   697  ARG697      0.2260
     23  O         69.6090  -70.0190   71.8550 O.2   697  ARG697     -0.2867
     24  CB        71.8590  -69.0090   73.3540 C.3   697  ARG697      0.0307
     25  CG        72.1140  -67.6520   72.7540 C.3   697  ARG697      0.0489
     26  CD        73.5250  -67.5530   72.1940 C.3   697  ARG697      0.2205
     27  NE        73.8200  -66.2030   71.7210 N.pl3 697  ARG697     -0.0865
     28  CZ        74.9220  -65.8480   71.0640 C.cat 697  ARG697      0.5346
     29  NH1       75.8610  -66.7480   70.7980 N.pl3 697  ARG697      0.1354
     30  NH2       75.0840  -64.5860   70.6770 N.pl3 697  ARG697      0.1354
     31  N         62.5890  -65.5380   78.4990 N.3   718  TRP718     -0.1241
     32  CA        63.3380  -64.3610   78.1020 C.3   718  TRP718      0.1605
     33  C         62.2530  -63.3680   77.7020 C.2   718  TRP718      0.2264
     34  O         61.5390  -63.5520   76.7290 O.2   718  TRP718     -0.2867
     35  CB        64.3300  -64.6480   76.9780 C.3   718  TRP718      0.0550
     36  CG        64.9680  -63.4090   76.4350 C.ar  718  TRP718      0.0003
     37  CD1       64.5760  -62.7100   75.3390 C.ar  718  TRP718      0.0946
     38  CD2       66.1030  -62.7150   76.9720 C.ar  718  TRP718      0.0152
     39  NE1       65.3960  -61.6230   75.1500 N.ar  718  TRP718     -0.2442
     40  CE2       66.3410  -61.6000   76.1380 C.ar  718  TRP718      0.0810
     41  CE3       66.9450  -62.9290   78.0790 C.ar  718  TRP718      0.0012
     42  CZ2       67.3950  -60.6940   76.3680 C.ar  718  TRP718      0.0191
     43  CZ3       68.0000  -62.0310   78.3100 C.ar  718  TRP718      0.0001
     44  CH2       68.2140  -60.9270   77.4540 C.ar  718  TRP718      0.0015
     45  N         66.7230  -53.9910   72.2350 N.3   723  TYR723     -0.1227
     46  CA        68.1130  -54.1330   71.7700 C.3   723  TYR723      0.1736
     47  C         68.5330  -55.5850   71.5390 C.2   723  TYR723      0.2595
     48  O         69.5340  -55.8430   70.8730 O.2   723  TYR723     -0.2718
     49  CB        69.0980  -53.5450   72.7830 C.3   723  TYR723      0.0548
     50  CG        69.2740  -54.4460   73.9900 C.ar  723  TYR723     -0.0200
     51  CD1       70.3470  -55.3240   74.0990 C.ar  723  TYR723     -0.0009
     52  CD2       68.3410  -54.4340   75.0100 C.ar  723  TYR723     -0.0009
     53  CE1       70.4810  -56.1470   75.1990 C.ar  723  TYR723      0.0417
     54  CE2       68.4660  -55.2450   76.0970 C.ar  723  TYR723      0.0417
     55  CZ        69.5250  -56.1010   76.1940 C.ar  723  TYR723      0.1957
     56  OH        69.5990  -56.8960   77.3110 O.3   723  TYR723     -0.2866
     57  N         67.8040  -56.5290   72.1230 N.am  724  ALA724     -0.1966
     58  CA        68.2570  -57.9150   72.1500 C.3   724  ALA724      0.1728
     59  C         67.6390  -58.7820   71.0610 C.2   724  ALA724      0.2616
     60  O         66.4670  -59.1300   71.1140 O.2   724  ALA724     -0.2715
     61  CB        68.0280  -58.5340   73.5300 C.3   724  ALA724      0.0334
     62  N         68.4510  -59.1370   70.0760 N.am  725  MET725     -0.1963
     63  CA        68.0180  -60.0100   69.0040 C.3   725  MET725      0.1736
     64  C         68.0960  -61.4620   69.4660 C.2   725  MET725      0.2616
     65  O         67.4510  -62.3400   68.8960 O.2   725  MET725     -0.2715
     66  CB        68.8650  -59.7820   67.7530 C.3   725  MET725      0.0427
     67  CG        70.2820  -60.3430   67.8280 C.3   725  MET725      0.0599
     68  SD        71.5800  -59.0790   68.0100 S.3   725  MET725     -0.1393
     69  CE        71.4680  -58.6410   69.7680 C.3   725  MET725      0.0692
     70  N         68.8840  -61.6970   70.5120 N.am  726  ASP726     -0.1957
     71  CA        69.0730  -63.0300   71.0740 C.3   726  ASP726      0.1840
     72  C         68.9660  -62.9700   72.5900 C.2   726  ASP726      0.2623
     73  O         68.9870  -61.8880   73.1650 O.2   726  ASP726     -0.2715
     74  CB        70.4260  -63.6200   70.6630 C.3   726  ASP726      0.1450
     75  CG        71.6070  -62.8870   71.2880 C.2   726  ASP726      0.3671
     76  OD1       71.6750  -61.6300   71.2120 O.co2 726  ASP726     -0.2456
     77  OD2       72.4870  -63.5760   71.8360 O.co2 726  ASP726     -0.2456
     78  N         68.8380  -64.1290   73.2340 N.am  727  GLY727     -0.1940
     79  CA        68.6870  -64.1770   74.6860 C.3   727  GLY727      0.2014
     80  C         69.4200  -65.3340   75.3510 C.2   727  GLY727      0.2638
     81  O         69.3070  -66.4800   74.9270 O.2   727  GLY727     -0.2714
     82  N         70.1730  -65.0220   76.4010 N.am  728  ASN728     -0.1972
     83  CA        70.8880  -66.0250   77.1820 C.3   728  ASN728      0.1688
     84  C         70.1260  -66.3390   78.4630 C.2   728  ASN728      0.2292
     85  O         69.8850  -65.4440   79.2790 O.2   728  ASN728     -0.2864
     86  CB        72.2940  -65.5290   77.5240 C.3   728  ASN728      0.1181
     87  CG        73.1410  -65.2840   76.2910 C.2   728  ASN728      0.2629
     88  OD1       73.4630  -66.2210   75.5650 O.2   728  ASN728     -0.2716
     89  ND2       73.5150  -64.0200   76.0520 N.am  728  ASN728     -0.0877
@<TRIPOS>BOND
     1     1     2    1
     2    66    67    1
     3    66    63    1
     4     7     6   ar
     5    67    68    1
     6    68    69    1
     7     2     3    1
     8     2     5    1
     9     6     8   ar
    10     6     5    1
    11     3     4    2
    12    65    64    2
    13    63    64    1
    14    63    62    1
    15    64    70   am
    16    62    59   am
    17    70    71    1
    18    74    71    1
    19    74    75    1
    20    30    28    1
    21    29    28    1
    22    48    47    2
    23    59    60    2
    24    59    58    1
    25    28    27    2
    26    71    72    1
    27    76    75   ar
    28    75    77   ar
    29    47    46    1
    30    47    57   am
    31    27    26    1
    32    46    45    1
    33    46    49    1
    34    23    22    2
    35    57    58    1
    36    58    61    1
    37    26    25    1
    38    72    73    2
    39    72    78   am
    40    25    24    1
    41    22    21    1
    42    49    50    1
    43    78    79    1
    44    24    21    1
    45    21    20    1
    46    50    51   ar
    47    50    52   ar
    48    51    53   ar
    49    79    80    1
    50    81    80    2
    51    52    54   ar
    52    39    37   ar
    53    39    40   ar
    54    53    55   ar
    55    37    36   ar
    56    80    82   am
    57    88    87    2
    58    89    87   am
    59    54    55   ar
    60    40    42   ar
    61    40    38   ar
    62    55    56    1
    63    87    86    1
    64    42    44   ar
    65    82    83    1
    66    36    38   ar
    67    36    35    1
    68    18    19   ar
    69    18    16   ar
    70    34    33    2
    71    19    17   ar
    72    38    41   ar
    73    35    32    1
    74    83    86    1
    75    83    84    1
    76    44    43   ar
    77    12    11    2
    78    16    14   ar
    79    33    32    1
    80    41    43   ar
    81    32    31    1
    82    17    15   ar
    83    11    10    1
    84    84    85    2
    85    14    15   ar
    86    14    13    1
    87    10    13    1
    88    10     9    1
