@<TRIPOS>MOLECULE
tmp/4iugA03.pdb
 200 191 0 0 0
SMALL
GASTEIGER

@<TRIPOS>ATOM
      1  N         60.7940  -31.3210   68.4160 N.3   222  SER222     -0.1217
      2  CA        60.9270  -29.8840   68.2640 C.3   222  SER222      0.1889
      3  C         62.3580  -29.4600   67.9170 C.2   222  SER222      0.2288
      4  O         62.5890  -28.3210   67.5090 O.2   222  SER222     -0.2866
      5  CB        60.4320  -29.1520   69.5130 C.3   222  SER222      0.2089
      6  OG        61.2840  -29.3870   70.6240 O.3   222  SER222     -0.2183
      7  N         53.5950  -40.5690   65.9500 N.3   265  GLU265     -0.1245
      8  CA        53.1230  -39.2200   66.2410 C.3   265  GLU265      0.1567
      9  C         54.2790  -38.2760   66.3960 C.2   265  GLU265      0.2260
     10  O         54.2630  -37.1530   65.8800 O.2   265  GLU265     -0.2867
     11  CB        52.3580  -39.1920   67.5470 C.3   265  GLU265      0.0388
     12  CG        51.0680  -38.5010   67.4020 C.3   265  GLU265      0.1160
     13  CD        50.1570  -39.2930   66.5180 C.2   265  GLU265      0.3649
     14  OE1       50.0610  -39.0140   65.2890 O.co2 265  GLU265     -0.2457
     15  OE2       49.5570  -40.2360   67.0730 O.co2 265  GLU265     -0.2457
     16  N         55.7980  -37.8280   63.0580 N.3   268  TYR268     -0.1227
     17  CA        55.1500  -36.7580   62.3250 C.3   268  TYR268      0.1736
     18  C         55.5600  -35.3910   62.8640 C.2   268  TYR268      0.2595
     19  O         55.8190  -34.4850   62.0960 O.2   268  TYR268     -0.2718
     20  CB        53.6160  -36.8630   62.3070 C.3   268  TYR268      0.0548
     21  CG        53.0290  -35.6220   61.6740 C.ar  268  TYR268     -0.0200
     22  CD1       53.1230  -35.4210   60.3060 C.ar  268  TYR268     -0.0009
     23  CD2       52.4630  -34.6130   62.4460 C.ar  268  TYR268     -0.0009
     24  CE1       52.6390  -34.2710   59.7140 C.ar  268  TYR268      0.0417
     25  CE2       51.9740  -33.4580   61.8650 C.ar  268  TYR268      0.0417
     26  CZ        52.0650  -33.2950   60.4950 C.ar  268  TYR268      0.1957
     27  OH        51.5870  -32.1590   59.8870 O.3   268  TYR268     -0.2866
     28  N         55.6170  -35.2360   64.1830 N.am  269  ALA269     -0.1980
     29  CA        55.9110  -33.9200   64.7800 C.3   269  ALA269      0.1597
     30  C         57.3240  -33.4210   64.4430 C.2   269  ALA269      0.2287
     31  O         57.5950  -32.2270   64.4480 O.2   269  ALA269     -0.2864
     32  CB        55.6720  -33.9370   66.3010 C.3   269  ALA269      0.0319
     33  N         57.2770  -32.5250   60.0950 N.3   272  ASN272     -0.1225
     34  CA        55.9640  -31.9030   59.9620 C.3   272  ASN272      0.1785
     35  C         55.8630  -30.9990   58.7410 C.2   272  ASN272      0.2597
     36  O         56.6590  -31.1150   57.8170 O.2   272  ASN272     -0.2718
     37  CB        55.6190  -31.1000   61.2280 C.3   272  ASN272      0.1169
     38  CG        56.6100  -29.9600   61.5010 C.2   272  ASN272      0.2627
     39  OD1       57.5970  -29.7770   60.7810 O.2   272  ASN272     -0.2716
     40  ND2       56.3430  -29.1940   62.5480 N.am  272  ASN272     -0.0877
     41  N         54.9040  -30.0780   58.7630 N.am  273  HIS273     -0.1961
     42  CA        54.6760  -29.1690   57.6470 C.3   273  HIS273      0.1787
     43  C         55.8070  -28.1460   57.5060 C.2   273  HIS273      0.2620
     44  O         56.0030  -27.5610   56.4470 O.2   273  HIS273     -0.2715
     45  CB        53.3260  -28.4570   57.8040 C.3   273  HIS273      0.0785
     46  CG        53.2870  -27.5160   58.9650 C.ar  273  HIS273      0.0821
     47  ND1       53.2660  -27.9520   60.2740 N.ar  273  HIS273     -0.2267
     48  CD2       53.3190  -26.1650   59.0180 C.ar  273  HIS273      0.1154
     49  CE1       53.2740  -26.9100   61.0840 C.ar  273  HIS273      0.1986
     50  NE2       53.3030  -25.8130   60.3480 N.ar  273  HIS273     -0.2212
     51  N         56.5650  -27.9280   58.5680 N.am  274  GLU274     -0.1977
     52  CA        57.7000  -27.0110   58.4740 C.3   274  GLU274      0.1602
     53  C         58.8740  -27.6750   57.8090 C.2   274  GLU274      0.2287
     54  O         59.5820  -27.0530   57.0120 O.2   274  GLU274     -0.2864
     55  CB        58.0920  -26.5030   59.8410 C.3   274  GLU274      0.0415
     56  CG        57.0010  -25.6950   60.4370 C.3   274  GLU274      0.1163
     57  CD        57.3420  -25.2300   61.8090 C.2   274  GLU274      0.3649
     58  OE1       57.9910  -26.0230   62.5280 O.co2 274  GLU274     -0.2457
     59  OE2       56.9610  -24.0790   62.1560 O.co2 274  GLU274     -0.2457
     60  N         58.0220  -27.7710   53.9710 N.3   277  ARG277     -0.1245
     61  CA        58.1710  -26.4780   53.3090 C.3   277  ARG277      0.1563
     62  C         59.6230  -26.0040   53.2390 C.2   277  ARG277      0.2260
     63  O         60.0500  -25.4900   52.2130 O.2   277  ARG277     -0.2867
     64  CB        57.2470  -25.4170   53.9140 C.3   277  ARG277      0.0307
     65  CG        57.6030  -24.9650   55.2880 C.3   277  ARG277      0.0489
     66  CD        56.5060  -24.0850   55.8190 C.3   277  ARG277      0.2205
     67  NE        56.8400  -23.5620   57.1340 N.pl3 277  ARG277     -0.0865
     68  CZ        55.9810  -22.9450   57.9380 C.cat 277  ARG277      0.5346
     69  NH1       54.7190  -22.7810   57.5660 N.pl3 277  ARG277      0.1354
     70  NH2       56.3870  -22.5060   59.1150 N.pl3 277  ARG277      0.1354
     71  N         43.9230  -37.5950   55.1760 N.3   326  VAL326     -0.1231
     72  CA        44.7710  -36.4900   54.7550 C.3   326  VAL326      0.1692
     73  C         44.5730  -35.2870   55.6690 C.2   326  VAL326      0.2593
     74  O         44.4790  -34.1590   55.2120 O.2   326  VAL326     -0.2718
     75  CB        44.5260  -36.1010   53.2680 C.3   326  VAL326      0.0266
     76  CG1       44.9870  -37.2330   52.3300 C.3   326  VAL326      0.0020
     77  CG2       43.0440  -35.7520   53.0240 C.3   326  VAL326      0.0020
     78  N         44.5170  -35.5320   56.9730 N.am  327  THR327     -0.1939
     79  CA        44.3440  -34.4410   57.9200 C.3   327  THR327      0.2028
     80  C         45.6530  -33.7120   58.1930 C.2   327  THR327      0.2642
     81  O         45.6470  -32.5140   58.4420 O.2   327  THR327     -0.2714
     82  CB        43.7820  -34.9280   59.2540 C.3   327  THR327      0.1808
     83  OG1       44.6730  -35.9040   59.8040 O.3   327  THR327     -0.2208
     84  CG2       42.3830  -35.5450   59.0810 C.3   327  THR327      0.0379
     85  N         46.7780  -34.4140   58.1470 N.am  328  ARG328     -0.1963
     86  CA        48.0280  -33.7930   58.5770 C.3   328  ARG328      0.1729
     87  C         48.3420  -32.5440   57.7730 C.2   328  ARG328      0.2616
     88  O         48.1570  -32.5210   56.5650 O.2   328  ARG328     -0.2715
     89  CB        49.1940  -34.7870   58.5330 C.3   328  ARG328      0.0348
     90  CG        49.1180  -35.8220   59.6350 C.3   328  ARG328      0.0492
     91  CD        50.0470  -37.0010   59.3990 C.3   328  ARG328      0.2205
     92  NE        50.0350  -37.8780   60.5650 N.pl3 328  ARG328     -0.0865
     93  CZ        50.5600  -39.0980   60.6010 C.cat 328  ARG328      0.5346
     94  NH1       51.1360  -39.6070   59.5210 N.pl3 328  ARG328      0.1354
     95  NH2       50.5020  -39.8090   61.7230 N.pl3 328  ARG328      0.1354
     96  N         48.7970  -31.4980   58.4530 N.am  329  GLU329     -0.1977
     97  CA        49.1230  -30.2350   57.7910 C.3   329  GLU329      0.1602
     98  C         50.2360  -30.3740   56.7210 C.2   329  GLU329      0.2287
     99  O         50.2240  -29.6600   55.7250 O.2   329  GLU329     -0.2864
    100  CB        49.4540  -29.1570   58.8400 C.3   329  GLU329      0.0415
    101  CG        49.6880  -27.7830   58.2630 C.3   329  GLU329      0.1163
    102  CD        49.5770  -26.6700   59.2920 C.2   329  GLU329      0.3649
    103  OE1       49.0740  -26.9320   60.4060 O.co2 329  GLU329     -0.2457
    104  OE2       49.9920  -25.5260   58.9780 O.co2 329  GLU329     -0.2457
    105  N         48.6820  -30.7680   53.2610 N.3   332  SER332     -0.1217
    106  CA        48.2330  -29.5150   52.6650 C.3   332  SER332      0.1889
    107  C         49.4090  -28.6510   52.2530 C.2   332  SER332      0.2288
    108  O         49.3230  -27.9210   51.2700 O.2   332  SER332     -0.2866
    109  CB        47.3350  -28.7460   53.6370 C.3   332  SER332      0.2089
    110  OG        46.1000  -29.4200   53.8310 O.3   332  SER332     -0.2183
    111  N         59.1820  -15.9820   58.8270 N.3   418  ASN418     -0.1240
    112  CA        58.8590  -16.2520   60.2230 C.3   418  ASN418      0.1653
    113  C         59.1440  -17.6720   60.6700 C.2   418  ASN418      0.2266
    114  O         58.3200  -18.5770   60.4850 O.2   418  ASN418     -0.2867
    115  CB        57.3850  -15.9490   60.4810 C.3   418  ASN418      0.1155
    116  CG        57.0490  -14.4880   60.2820 C.2   418  ASN418      0.2627
    117  OD1       57.8410  -13.6040   60.6110 O.2   418  ASN418     -0.2716
    118  ND2       55.8710  -14.2240   59.7340 N.am  418  ASN418     -0.0877
    119  N         50.9180  -15.9570   57.6140 N.3   461  PRO461     -0.2116
    120  CA        50.2350  -14.9150   58.3970 C.3   461  PRO461      0.1372
    121  C         51.1730  -13.7830   58.8330 C.2   461  PRO461      0.2244
    122  O         52.3580  -14.0240   59.0780 O.2   461  PRO461     -0.2868
    123  CB        49.7290  -15.6670   59.6310 C.3   461  PRO461      0.0268
    124  CG        49.9570  -17.1230   59.3590 C.3   461  PRO461      0.0207
    125  CD        51.0690  -17.2080   58.3660 C.3   461  PRO461      0.0892
    126  N         48.1490  -18.4600   53.7480 N.3   519  ARG519     -0.1231
    127  CA        48.5680  -19.8500   53.6170 C.3   519  ARG519      0.1694
    128  C         47.4810  -20.8410   54.0330 C.2   519  ARG519      0.2592
    129  O         47.2280  -21.8190   53.3390 O.2   519  ARG519     -0.2718
    130  CB        49.8390  -20.0760   54.4420 C.3   519  ARG519      0.0321
    131  CG        50.4390  -21.4750   54.3500 C.3   519  ARG519      0.0489
    132  CD        51.3880  -21.7620   55.5190 C.3   519  ARG519      0.2205
    133  NE        52.6510  -21.0170   55.4480 N.pl3 519  ARG519     -0.0865
    134  CZ        53.1660  -20.3350   56.4690 C.cat 519  ARG519      0.5346
    135  NH1       52.5300  -20.3080   57.6360 N.pl3 519  ARG519      0.1354
    136  NH2       54.3240  -19.6850   56.3350 N.pl3 519  ARG519      0.1354
    137  N         46.8270  -20.5870   55.1600 N.am  520  ASN520     -0.1974
    138  CA        45.8550  -21.5480   55.6780 C.3   520  ASN520      0.1688
    139  C         44.5620  -21.6480   54.8680 C.2   520  ASN520      0.2292
    140  O         43.8990  -22.6860   54.8990 O.2   520  ASN520     -0.2864
    141  CB        45.5570  -21.2960   57.1600 C.3   520  ASN520      0.1181
    142  CG        46.7620  -21.5530   58.0420 C.2   520  ASN520      0.2629
    143  OD1       47.7210  -20.7780   58.0420 O.2   520  ASN520     -0.2716
    144  ND2       46.7280  -22.6500   58.7880 N.am  520  ASN520     -0.0877
    145  N         45.4820  -23.7160   51.6370 N.3   522  TYR522     -0.1227
    146  CA        45.4050  -25.1250   51.9930 C.3   522  TYR522      0.1736
    147  C         44.1450  -25.7850   51.4370 C.2   522  TYR522      0.2595
    148  O         44.1480  -26.9720   51.1710 O.2   522  TYR522     -0.2718
    149  CB        45.4090  -25.2870   53.5220 C.3   522  TYR522      0.0548
    150  CG        46.7610  -25.1900   54.2220 C.ar  522  TYR522     -0.0200
    151  CD1       47.9590  -25.2330   53.5120 C.ar  522  TYR522     -0.0009
    152  CD2       46.8270  -25.0780   55.6050 C.ar  522  TYR522     -0.0009
    153  CE1       49.1670  -25.1610   54.1620 C.ar  522  TYR522      0.0417
    154  CE2       48.0320  -25.0060   56.2680 C.ar  522  TYR522      0.0417
    155  CZ        49.2010  -25.0520   55.5530 C.ar  522  TYR522      0.1957
    156  OH        50.4020  -24.9740   56.2380 O.3   522  TYR522     -0.2866
    157  N         43.0690  -25.0200   51.2710 N.am  523  ASN523     -0.1974
    158  CA        41.7780  -25.5930   50.8960 C.3   523  ASN523      0.1688
    159  C         41.4980  -25.5530   49.4010 C.2   523  ASN523      0.2292
    160  O         40.4270  -25.9440   48.9570 O.2   523  ASN523     -0.2864
    161  CB        40.6440  -24.8830   51.6390 C.3   523  ASN523      0.1181
    162  CG        40.5720  -25.2670   53.1030 C.2   523  ASN523      0.2629
    163  OD1       40.6920  -26.4320   53.4510 O.2   523  ASN523     -0.2716
    164  ND2       40.3760  -24.2860   53.9630 N.am  523  ASN523     -0.0877
    165  N         37.1600  -28.4480   50.7060 N.3   553  GLY553     -0.1210
    166  CA        37.6580  -28.7460   52.0310 C.3   553  GLY553      0.1956
    167  C         38.6030  -29.9380   52.0790 C.2   553  GLY553      0.2611
    168  O         39.7010  -29.8990   51.5250 O.2   553  GLY553     -0.2717
    169  N         38.1530  -31.0020   52.7390 N.am  554  TYR554     -0.1976
    170  CA        38.9710  -32.1700   53.0400 C.3   554  TYR554      0.1639
    171  C         39.7060  -32.7720   51.8310 C.2   554  TYR554      0.2290
    172  O         40.9000  -33.0340   51.9060 O.2   554  TYR554     -0.2864
    173  CB        38.1170  -33.2260   53.7630 C.3   554  TYR554      0.0560
    174  CG        38.8710  -34.4760   54.1740 C.ar  554  TYR554     -0.0198
    175  CD1       39.8050  -34.4520   55.2120 C.ar  554  TYR554     -0.0009
    176  CD2       38.6430  -35.6830   53.5280 C.ar  554  TYR554     -0.0009
    177  CE1       40.4880  -35.6060   55.5870 C.ar  554  TYR554      0.0417
    178  CE2       39.3160  -36.8310   53.8960 C.ar  554  TYR554      0.0417
    179  CZ        40.2360  -36.7940   54.9260 C.ar  554  TYR554      0.1957
    180  OH        40.9070  -37.9540   55.2680 O.3   554  TYR554     -0.2866
    181  N         34.8200  -33.5930   55.5820 N.3   573  ASN573     -0.1225
    182  CA        34.8060  -33.9000   57.0120 C.3   573  ASN573      0.1785
    183  C         34.2110  -32.7710   57.8550 C.2   573  ASN573      0.2597
    184  O         34.2510  -32.7980   59.0850 O.2   573  ASN573     -0.2718
    185  CB        36.1950  -34.3110   57.5180 C.3   573  ASN573      0.1169
    186  CG        37.1620  -33.1370   57.6510 C.2   573  ASN573      0.2627
    187  OD1       36.9190  -32.0450   57.1230 O.2   573  ASN573     -0.2716
    188  ND2       38.2840  -33.3780   58.3630 N.am  573  ASN573     -0.0877
    189  N         33.6530  -31.7810   57.1720 N.am  574  ALA574     -0.1979
    190  CA        32.9680  -30.6770   57.8250 C.3   574  ALA574      0.1597
    191  C         32.0870  -30.0380   56.7740 C.2   574  ALA574      0.2287
    192  O         32.2770  -30.2860   55.5870 O.2   574  ALA574     -0.2864
    193  CB        33.9700  -29.6600   58.3630 C.3   574  ALA574      0.0319
    194  N         37.0880  -39.4010   62.9280 N.3   932  THR932     -0.1218
    195  CA        36.1110  -38.6510   62.1050 C.3   932  THR932      0.1862
    196  C         35.5600  -39.3630   60.8620 C.2   932  THR932      0.2287
    197  O         36.3090  -39.6430   59.9180 O.2   932  THR932     -0.2866
    198  CB        36.6750  -37.3120   61.5820 C.3   932  THR932      0.1770
    199  OG1       37.1840  -36.5190   62.6620 O.3   932  THR932     -0.2211
    200  CG2       35.5820  -36.5420   60.8480 C.3   932  THR932      0.0375
@<TRIPOS>BOND
     1   160   159    2
     2   159   158    1
     3   165   166    1
     4   158   157    1
     5   158   161    1
     6   148   147    2
     7   108   107    2
     8   157   147   am
     9   147   146    1
    10   168   167    2
    11   145   146    1
    12   161   162    1
    13   171   172    2
    14   171   170    1
    15   146   149    1
    16   166   167    1
    17   167   169   am
    18    63    62    2
    19   107   106    1
    20    76    75    1
    21   106   105    1
    22   106   109    1
    23   169   170    1
    24    77    75    1
    25   170   173    1
    26   162   163    2
    27   162   164   am
    28    62    61    1
    29    75    72    1
    30    61    64    1
    31    61    60    1
    32   129   128    2
    33   151   153   ar
    34   151   150   ar
    35   149   150    1
    36   176   178   ar
    37   176   174   ar
    38   127   126    1
    39   127   128    1
    40   127   130    1
    41   109   110    1
    42   173   174    1
    43   178   179   ar
    44    64    65    1
    45   128   137   am
    46   153   155   ar
    47   174   175   ar
    48   150   152   ar
    49   131   130    1
    50   131   132    1
    51    72    71    1
    52    72    73    1
    53   139   140    2
    54   139   138    1
    55   179   180    1
    56   179   177   ar
    57   137   138    1
    58    74    73    2
    59   175   177   ar
    60    65    66    1
    61   133   132    1
    62   133   134    2
    63   155   156    1
    64   155   154   ar
    65   181   182    1
    66   192   191    2
    67   152   154   ar
    68    73    78   am
    69   138   141    1
    70    99    98    2
    71    66    67    1
    72   136   134    1
    73    44    43    2
    74   134   135    1
    75    88    87    2
    76    98    97    1
    77   191   190    1
    78    78    79    1
    79   182   185    1
    80   182   183    1
    81    54    53    2
    82   187   186    2
    83    67    68    2
    84   141   142    1
    85   189   190    1
    86   189   183   am
    87    43    42    1
    88    43    51   am
    89   185   186    1
    90    69    68    1
    91   119   125    1
    92   119   120    1
    93    42    45    1
    94    42    41    1
    95   186   188   am
    96    87    96   am
    97    87    86    1
    98    97    96    1
    99    97   100    1
   100    45    46    1
   101    53    52    1
   102    36    35    2
   103   190   193    1
   104   183   184    2
   105    79    80    1
   106    79    82    1
   107    68    70    1
   108   142   143    2
   109   142   144   am
   110    85    80   am
   111    85    86    1
   112    80    81    2
   113   101   100    1
   114   101   102    1
   115   125   124    1
   116   120   121    1
   117   120   123    1
   118    52    51    1
   119    52    55    1
   120    89    86    1
   121    89    90    1
   122    35    41   am
   123    35    34    1
   124   111   112    1
   125   121   122    2
   126    46    48   ar
   127    46    47   ar
   128   104   102   ar
   129    48    50   ar
   130    84    82    1
   131    82    83    1
   132   102   103   ar
   133   124   123    1
   134    91    90    1
   135    91    92    1
   136    94    93    1
   137    24    22   ar
   138    24    26   ar
   139   118   116   am
   140    55    56    1
   141    27    26    1
   142   197   196    2
   143    34    33    1
   144    34    37    1
   145   112   115    1
   146   112   113    1
   147    47    49   ar
   148   116   115    1
   149   116   117    2
   150    22    21   ar
   151    50    49   ar
   152    56    57    1
   153   114   113    2
   154    26    25   ar
   155    92    93    2
   156    93    95    1
   157    39    38    2
   158   200   198    1
   159   196   195    1
   160    37    38    1
   161    38    40   am
   162   198   195    1
   163   198   199    1
   164    21    20    1
   165    21    23   ar
   166    57    59   ar
   167    57    58   ar
   168    25    23   ar
   169    19    18    2
   170   195   194    1
   171    20    17    1
   172    17    18    1
   173    17    16    1
   174    18    28   am
   175    28    29    1
   176    30    31    2
   177    30    29    1
   178    29    32    1
   179    14    13   ar
   180    10     9    2
   181     7     8    1
   182     8     9    1
   183     8    11    1
   184    13    15   ar
   185    13    12    1
   186    12    11    1
   187     4     3    2
   188     3     2    1
   189     2     1    1
   190     2     5    1
   191     5     6    1
