@<TRIPOS>MOLECULE
tmp/4iugA06.pdb
 87 80 0 0 0
SMALL
GASTEIGER

@<TRIPOS>ATOM
      1  N         57.8900  -71.5950   43.1160 N.3    69  ASP69      -0.1239
      2  CA        56.4550  -71.4110   42.9160 C.3    69  ASP69       0.1674
      3  C         56.0450  -69.9320   43.0640 C.2    69  ASP69       0.2266
      4  O         55.4900  -69.5230   44.0720 O.2    69  ASP69      -0.2867
      5  CB        55.6700  -72.3260   43.8740 C.3    69  ASP69       0.1410
      6  CG        54.1570  -72.3670   43.5790 C.2    69  ASP69       0.3668
      7  OD1       53.7160  -71.8970   42.5040 O.co2  69  ASP69      -0.2456
      8  OD2       53.3920  -72.8850   44.4290 O.co2  69  ASP69      -0.2456
      9  N         53.9430  -66.6770   42.8830 N.3    71  ARG71      -0.1245
     10  CA        52.5210  -66.5210   43.1030 C.3    71  ARG71       0.1563
     11  C         52.2220  -65.0640   43.4660 C.2    71  ARG71       0.2260
     12  O         52.5990  -64.5880   44.5350 O.2    71  ARG71      -0.2867
     13  CB        52.1170  -67.4640   44.2330 C.3    71  ARG71       0.0307
     14  CG        50.6570  -67.8000   44.3340 C.3    71  ARG71       0.0489
     15  CD        50.4440  -68.7920   45.4700 C.3    71  ARG71       0.2205
     16  NE        50.7890  -70.1440   45.0660 N.pl3  71  ARG71      -0.0865
     17  CZ        49.9540  -70.9260   44.3880 C.cat  71  ARG71       0.5346
     18  NH1       48.7560  -70.4490   44.0630 N.pl3  71  ARG71       0.1354
     19  NH2       50.3040  -72.1630   44.0320 N.pl3  71  ARG71       0.1354
     20  N         48.8440  -63.0830   43.1300 N.3    73  GLU73      -0.1231
     21  CA        47.4360  -62.9150   42.7980 C.3    73  GLU73       0.1699
     22  C         46.6680  -62.3520   43.9730 C.2    73  GLU73       0.2592
     23  O         47.2470  -62.1070   45.0470 O.2    73  GLU73      -0.2718
     24  CB        46.8380  -64.2450   42.4310 C.3    73  GLU73       0.0402
     25  CG        47.6990  -65.0130   41.5020 C.3    73  GLU73       0.1161
     26  CD        46.9790  -66.1920   40.9210 C.2    73  GLU73       0.3649
     27  OE1       46.2020  -66.8310   41.6710 O.co2  73  GLU73      -0.2457
     28  OE2       47.1730  -66.4600   39.7140 O.co2  73  GLU73      -0.2457
     29  N         45.3640  -62.1630   43.7680 N.am   74  GLY74      -0.1957
     30  CA        44.4960  -61.6110   44.7910 C.3    74  GLY74       0.1869
     31  C         45.0750  -60.3400   45.3790 C.2    74  GLY74       0.2309
     32  O         45.3540  -59.3810   44.6580 O.2    74  GLY74      -0.2863
     33  N         48.2660  -59.3570   43.5670 N.3    77  ALA77      -0.1245
     34  CA        48.2900  -59.1740   42.1170 C.3    77  ALA77       0.1562
     35  C         48.8070  -57.7840   41.7590 C.2    77  ALA77       0.2260
     36  O         48.3200  -56.7800   42.2950 O.2    77  ALA77      -0.2867
     37  CB        46.9170  -59.3690   41.5340 C.3    77  ALA77       0.0290
     38  N         48.6310  -56.4180   38.7270 N.3    79  GLU79      -0.1231
     39  CA        47.8570  -55.7990   37.6580 C.3    79  GLU79       0.1684
     40  C         46.8510  -54.7290   38.1140 C.2    79  GLU79       0.2434
     41  O         46.7730  -53.6610   37.5000 O.2    79  GLU79      -0.2733
     42  CB        47.2040  -56.8600   36.7690 C.3    79  GLU79       0.0402
     43  CG        48.2040  -57.8150   36.0740 C.3    79  GLU79       0.1161
     44  CD        48.8290  -58.8770   37.0170 C.2    79  GLU79       0.3649
     45  OE1       48.2210  -59.2030   38.0680 O.co2  79  GLU79      -0.2457
     46  OE2       49.9360  -59.3880   36.6950 O.co2  79  GLU79      -0.2457
     47  N         46.0930  -54.9830   39.1970 N.am   80  PRO80      -0.2729
     48  CA        45.1330  -53.9410   39.5780 C.3    80  PRO80       0.1401
     49  C         45.8180  -52.6440   40.0010 C.2    80  PRO80       0.2269
     50  O         45.2280  -51.5580   39.8940 O.2    80  PRO80      -0.2865
     51  CB        44.4010  -54.5610   40.7690 C.3    80  PRO80       0.0296
     52  CG        44.5500  -56.0140   40.5940 C.3    80  PRO80       0.0237
     53  CD        45.9220  -56.1990   40.0100 C.3    80  PRO80       0.0939
     54  N         47.3820  -69.8080   50.7590 N.3   799  LYS799     -0.1231
     55  CA        47.7760  -69.1340   49.5210 C.3   799  LYS799      0.1693
     56  C         47.1550  -67.7460   49.4170 C.2   799  LYS799      0.2591
     57  O         47.7670  -66.8350   48.8690 O.2   799  LYS799     -0.2718
     58  CB        47.4120  -69.9650   48.2770 C.3   799  LYS799      0.0285
     59  CG        47.9590  -71.3910   48.2900 C.3   799  LYS799      0.0035
     60  CD        49.4560  -71.3850   48.5260 C.3   799  LYS799      0.0206
     61  CE        50.0320  -72.7870   48.5190 C.3   799  LYS799      0.1093
     62  NZ        51.4230  -72.7870   49.0200 N.3   799  LYS799     -0.1314
     63  N         45.9540  -67.5750   49.9550 N.am  800  VAL800     -0.1980
     64  CA        45.2840  -66.2820   49.8810 C.3   800  VAL800      0.1595
     65  C         45.9910  -65.1960   50.6950 C.2   800  VAL800      0.2287
     66  O         46.1180  -64.0620   50.2440 O.2   800  VAL800     -0.2864
     67  CB        43.8140  -66.3750   50.3190 C.3   800  VAL800      0.0276
     68  CG1       43.1990  -64.9910   50.4420 C.3   800  VAL800      0.0022
     69  CG2       43.0320  -67.2170   49.3330 C.3   800  VAL800      0.0022
     70  N         35.4280  -53.0820   47.9320 N.3   942  GLU942     -0.1245
     71  CA        35.2310  -54.5200   47.8930 C.3   942  GLU942      0.1567
     72  C         36.2010  -55.2830   48.7910 C.2   942  GLU942      0.2260
     73  O         37.3940  -54.9940   48.8220 O.2   942  GLU942     -0.2867
     74  CB        35.3690  -54.9980   46.4670 C.3   942  GLU942      0.0388
     75  CG        35.1650  -56.4760   46.2600 C.3   942  GLU942      0.1160
     76  CD        35.0910  -56.7830   44.7810 C.2   942  GLU942      0.3649
     77  OE1       34.8000  -55.8170   44.0250 O.co2 942  GLU942     -0.2457
     78  OE2       35.3350  -57.9560   44.3830 O.co2 942  GLU942     -0.2457
     79  N         39.3550  -61.8920   49.3520 N.3   945  GLU945     -0.1245
     80  CA        38.9700  -63.2010   49.8620 C.3   945  GLU945      0.1567
     81  C         39.2810  -63.2980   51.3520 C.2   945  GLU945      0.2260
     82  O         40.3130  -62.8110   51.8090 O.2   945  GLU945     -0.2867
     83  CB        39.6330  -64.3310   49.0570 C.3   945  GLU945      0.0388
     84  CG        39.0680  -64.4730   47.6330 C.3   945  GLU945      0.1160
     85  CD        39.5800  -65.6980   46.8530 C.2   945  GLU945      0.3649
     86  OE1       39.7620  -65.5900   45.6140 O.co2 945  GLU945     -0.2457
     87  OE2       39.7730  -66.7800   47.4610 O.co2 945  GLU945     -0.2457
@<TRIPOS>BOND
     1    43    42    1
     2    43    44    1
     3    46    44   ar
     4    42    39    1
     5    44    45   ar
     6    41    40    2
     7    39    40    1
     8    39    38    1
     9    40    47   am
    10    47    48    1
    11    47    53    1
    12    48    49    1
    13    48    51    1
    14    28    26   ar
    15    50    49    2
    16    53    52    1
    17    52    51    1
    18    26    25    1
    19    26    27   ar
    20    25    24    1
    21    37    34    1
    22    35    34    1
    23    35    36    2
    24    34    33    1
    25    24    21    1
    26     7     6   ar
    27    21    20    1
    28    21    22    1
    29     9    10    1
    30     2     3    1
    31     2     1    1
    32     2     5    1
    33     3     4    2
    34    10    11    1
    35    10    13    1
    36    11    12    2
    37     6     5    1
    38     6     8   ar
    39    29    22   am
    40    29    30    1
    41    22    23    2
    42    77    76   ar
    43    19    17    1
    44    18    17    1
    45    13    14    1
    46    14    15    1
    47    78    76   ar
    48    17    16    2
    49    32    31    2
    50    76    75    1
    51    30    31    1
    52    16    15    1
    53    86    85   ar
    54    75    74    1
    55    74    71    1
    56    85    87   ar
    57    85    84    1
    58    84    83    1
    59    71    70    1
    60    71    72    1
    61    58    59    1
    62    58    55    1
    63    59    60    1
    64    61    60    1
    65    61    62    1
    66    72    73    2
    67    57    56    2
    68    83    80    1
    69    69    67    1
    70    79    80    1
    71    56    55    1
    72    56    63   am
    73    55    54    1
    74    80    81    1
    75    64    63    1
    76    64    67    1
    77    64    65    1
    78    66    65    2
    79    67    68    1
    80    81    82    2
