@<TRIPOS>MOLECULE
tmp/4iugA04.pdb
 115 112 0 0 0
SMALL
GASTEIGER

@<TRIPOS>ATOM
      1  N         51.5530  -80.0790   77.8870 N.3   638  LYS638     -0.1231
      2  CA        50.8680  -81.1150   78.6510 C.3   638  LYS638      0.1693
      3  C         51.4640  -82.4610   78.2410 C.2   638  LYS638      0.2593
      4  O         51.7570  -82.6760   77.0620 O.2   638  LYS638     -0.2718
      5  CB        49.3790  -81.1340   78.3330 C.3   638  LYS638      0.0285
      6  CG        48.5370  -80.1160   79.0750 C.3   638  LYS638      0.0035
      7  CD        47.0510  -80.2300   78.6630 C.3   638  LYS638      0.0206
      8  CE        46.2260  -79.1860   79.4000 C.3   638  LYS638      0.1093
      9  NZ        44.8400  -79.0390   78.8820 N.3   638  LYS638     -0.1314
     10  N         51.6160  -83.3770   79.1930 N.am  639  SER639     -0.1938
     11  CA        52.2700  -84.6510   78.9170 C.3   639  SER639      0.2055
     12  C         51.4940  -85.6010   77.9930 C.2   639  SER639      0.2644
     13  O         51.9990  -86.6640   77.6330 O.2   639  SER639     -0.2714
     14  CB        52.6140  -85.3520   80.2240 C.3   639  SER639      0.2130
     15  OG        53.5650  -84.5910   80.9590 O.3   639  SER639     -0.2179
     16  N         50.2860  -85.2120   77.5990 N.am  640  SER640     -0.1935
     17  CA        49.4800  -86.0380   76.7070 C.3   640  SER640      0.2055
     18  C         49.7430  -85.7470   75.2220 C.2   640  SER640      0.2643
     19  O         49.3500  -86.5320   74.3530 O.2   640  SER640     -0.2714
     20  CB        47.9890  -85.8710   77.0250 C.3   640  SER640      0.2130
     21  OG        47.6340  -84.4980   77.1040 O.3   640  SER640     -0.2179
     22  N         50.4180  -84.6330   74.9370 N.am  641  TYR641     -0.1959
     23  CA        50.6960  -84.2440   73.5550 C.3   641  TYR641      0.1771
     24  C         51.6510  -85.1980   72.8330 C.2   641  TYR641      0.2619
     25  O         52.6780  -85.5970   73.3730 O.2   641  TYR641     -0.2715
     26  CB        51.2220  -82.8080   73.4630 C.3   641  TYR641      0.0574
     27  CG        51.2990  -82.3210   72.0340 C.ar  641  TYR641     -0.0198
     28  CD1       50.1840  -81.7680   71.4060 C.ar  641  TYR641     -0.0009
     29  CD2       52.4720  -82.4390   71.2950 C.ar  641  TYR641     -0.0009
     30  CE1       50.2370  -81.3370   70.0900 C.ar  641  TYR641      0.0417
     31  CE2       52.5290  -82.0070   69.9760 C.ar  641  TYR641      0.0417
     32  CZ        51.4060  -81.4560   69.3830 C.ar  641  TYR641      0.1957
     33  OH        51.4570  -81.0270   68.0730 O.3   641  TYR641     -0.2866
     34  N         51.3000  -85.5460   71.6000 N.am  642  ASP642     -0.1971
     35  CA        52.1070  -86.4320   70.7770 C.3   642  ASP642      0.1709
     36  C         52.7320  -85.6590   69.6190 C.2   642  ASP642      0.2293
     37  O         52.0220  -85.1900   68.7230 O.2   642  ASP642     -0.2864
     38  CB        51.2390  -87.5700   70.2340 C.3   642  ASP642      0.1436
     39  CG        51.9910  -88.4630   69.2520 C.2   642  ASP642      0.3671
     40  OD1       53.2490  -88.5300   69.3250 O.co2 642  ASP642     -0.2456
     41  OD2       51.3200  -89.1010   68.4090 O.co2 642  ASP642     -0.2456
     42  N         60.9590  -78.7680   70.6210 N.3   682  ARG682     -0.1245
     43  CA        60.7730  -79.8080   71.6270 C.3   682  ARG682      0.1563
     44  C         61.9950  -80.7170   71.7130 C.2   682  ARG682      0.2260
     45  O         62.3280  -81.4050   70.7490 O.2   682  ARG682     -0.2867
     46  CB        59.4940  -80.6050   71.3400 C.3   682  ARG682      0.0307
     47  CG        58.2370  -79.8330   71.7320 C.3   682  ARG682      0.0489
     48  CD        56.9610  -80.4850   71.2370 C.3   682  ARG682      0.2205
     49  NE        56.6480  -81.7430   71.9100 N.pl3 682  ARG682     -0.0865
     50  CZ        56.1740  -81.8330   73.1500 C.cat 682  ARG682      0.5346
     51  NH1       55.9810  -80.7380   73.8680 N.pl3 682  ARG682      0.1354
     52  NH2       55.9010  -83.0230   73.6680 N.pl3 682  ARG682      0.1354
     53  N         63.7490  -83.9390   73.4210 N.3   684  HIS684     -0.1241
     54  CA        63.4550  -85.1830   74.1220 C.3   684  HIS684      0.1621
     55  C         64.7230  -85.7840   74.7150 C.2   684  HIS684      0.2264
     56  O         65.7150  -85.9600   74.0060 O.2   684  HIS684     -0.2867
     57  CB        62.8320  -86.1870   73.1510 C.3   684  HIS684      0.0745
     58  CG        61.4960  -85.7660   72.6140 C.ar  684  HIS684      0.0817
     59  ND1       60.3040  -86.1840   73.1700 N.ar  684  HIS684     -0.2268
     60  CD2       61.1620  -84.9620   71.5720 C.ar  684  HIS684      0.1154
     61  CE1       59.2960  -85.6570   72.4980 C.ar  684  HIS684      0.1986
     62  NE2       59.7880  -84.9170   71.5190 N.ar  684  HIS684     -0.2212
     63  N         58.8750  -80.7900   80.9160 N.3   711  ASN711     -0.1240
     64  CA        57.5340  -81.4100   80.9350 C.3   711  ASN711      0.1653
     65  C         56.4210  -80.3640   81.1600 C.2   711  ASN711      0.2266
     66  O         56.2000  -79.5190   80.2970 O.2   711  ASN711     -0.2867
     67  CB        57.4470  -82.6140   81.8840 C.3   711  ASN711      0.1155
     68  CG        57.8510  -83.9280   81.2000 C.2   711  ASN711      0.2627
     69  OD1       58.7570  -83.9440   80.3610 O.2   711  ASN711     -0.2716
     70  ND2       57.1640  -85.0350   81.5500 N.am  711  ASN711     -0.0877
     71  N         63.8670  -87.6440   87.8060 N.3   737  GLU737     -0.1245
     72  CA        63.7900  -89.0900   88.0200 C.3   737  GLU737      0.1567
     73  C         64.6650  -89.8070   87.0050 C.2   737  GLU737      0.2260
     74  O         64.3230  -89.8810   85.8300 O.2   737  GLU737     -0.2867
     75  CB        62.3380  -89.5980   87.8970 C.3   737  GLU737      0.0388
     76  CG        61.3860  -89.1740   89.0360 C.3   737  GLU737      0.1160
     77  CD        59.8920  -89.2350   88.6430 C.2   737  GLU737      0.3649
     78  OE1       59.2660  -88.1470   88.5230 O.co2 737  GLU737     -0.2457
     79  OE2       59.3430  -90.3620   88.4680 O.co2 737  GLU737     -0.2457
     80  N         63.6930  -91.7990   83.4460 N.3   740  LYS740     -0.1231
     81  CA        62.4260  -91.3790   82.8410 C.3   740  LYS740      0.1693
     82  C         62.6310  -90.4190   81.6620 C.2   740  LYS740      0.2592
     83  O         63.6170  -89.6870   81.6250 O.2   740  LYS740     -0.2718
     84  CB        61.5110  -90.7380   83.8940 C.3   740  LYS740      0.0285
     85  CG        61.0800  -91.6710   85.0200 C.3   740  LYS740      0.0035
     86  CD        60.2570  -92.8350   84.4890 C.3   740  LYS740      0.0206
     87  CE        59.6900  -93.6810   85.6270 C.3   740  LYS740      0.1093
     88  NZ        58.8580  -92.8620   86.5590 N.3   740  LYS740     -0.1314
     89  N         61.6980  -90.4420   80.7110 N.am  741  ASN741     -0.1960
     90  CA        61.6490  -89.4750   79.6080 C.3   741  ASN741      0.1819
     91  C         61.2740  -88.0710   80.0600 C.2   741  ASN741      0.2621
     92  O         60.3630  -87.8890   80.8720 O.2   741  ASN741     -0.2715
     93  CB        60.6060  -89.8900   78.5720 C.3   741  ASN741      0.1195
     94  CG        60.9400  -91.1910   77.8990 C.2   741  ASN741      0.2630
     95  OD1       62.0940  -91.4460   77.5290 O.2   741  ASN741     -0.2716
     96  ND2       59.9270  -92.0370   77.7330 N.am  741  ASN741     -0.0877
     97  N         61.9550  -87.0730   79.5120 N.am  742  TYR742     -0.1960
     98  CA        61.5590  -85.6940   79.7430 C.3   742  TYR742      0.1771
     99  C         61.5200  -84.9330   78.4320 C.2   742  TYR742      0.2619
    100  O         62.2830  -85.2310   77.5110 O.2   742  TYR742     -0.2715
    101  CB        62.5160  -85.0170   80.7140 C.3   742  TYR742      0.0574
    102  CG        62.2930  -85.3880   82.1580 C.ar  742  TYR742     -0.0198
    103  CD1       61.4530  -84.6350   82.9610 C.ar  742  TYR742     -0.0009
    104  CD2       62.9260  -86.4920   82.7220 C.ar  742  TYR742     -0.0009
    105  CE1       61.2530  -84.9680   84.2910 C.ar  742  TYR742      0.0417
    106  CE2       62.7280  -86.8340   84.0490 C.ar  742  TYR742      0.0417
    107  CZ        61.8910  -86.0680   84.8250 C.ar  742  TYR742      0.1957
    108  OH        61.6840  -86.3920   86.1370 O.3   742  TYR742     -0.2866
    109  N         60.6300  -83.9530   78.3320 N.am  743  VAL743     -0.1977
    110  CA        60.6190  -83.1260   77.1400 C.3   743  VAL743      0.1596
    111  C         60.6950  -81.6330   77.4770 C.2   743  VAL743      0.2287
    112  O         59.9520  -81.1220   78.3190 O.2   743  VAL743     -0.2864
    113  CB        59.4420  -83.4720   76.1910 C.3   743  VAL743      0.0276
    114  CG1       58.1220  -83.2400   76.8640 C.3   743  VAL743      0.0022
    115  CG2       59.5300  -82.6580   74.9140 C.3   743  VAL743      0.0022
@<TRIPOS>BOND
     1    33    32    1
     2    41    39   ar
     3    37    36    2
     4    39    40   ar
     5    39    38    1
     6    32    31   ar
     7    32    30   ar
     8    36    35    1
     9    31    29   ar
    10    30    28   ar
    11    38    35    1
    12    42    43    1
    13    45    44    2
    14    35    34    1
    15    48    47    1
    16    48    49    1
    17    29    27   ar
    18    46    43    1
    19    46    47    1
    20    28    27   ar
    21    62    60   ar
    22    62    61   ar
    23    60    58   ar
    24    34    24   am
    25    43    44    1
    26    49    50    2
    27    27    26    1
    28    61    59   ar
    29    58    57    1
    30    58    59   ar
    31    24    25    2
    32    24    23    1
    33    50    52    1
    34    50    51    1
    35    57    54    1
    36    53    54    1
    37    26    23    1
    38    23    22    1
    39    56    55    2
    40    54    55    1
    41    19    18    2
    42   115   113    1
    43    22    18   am
    44    18    17    1
    45   113   114    1
    46   113   110    1
    47    17    20    1
    48    17    16    1
    49    20    21    1
    50     4     3    2
    51   110   111    1
    52   110   109    1
    53   111   112    2
    54   100    99    2
    55    95    94    2
    56    16    12   am
    57    13    12    2
    58    96    94   am
    59     1     2    1
    60    94    93    1
    61    12    11    1
    62     3     2    1
    63     3    10   am
    64   109    99   am
    65     5     2    1
    66     5     6    1
    67    99    98    1
    68    93    90    1
    69     7     6    1
    70     7     8    1
    71     9     8    1
    72    11    10    1
    73    11    14    1
    74    97    98    1
    75    97    91   am
    76    90    91    1
    77    90    89    1
    78    98   101    1
    79    91    92    2
    80    14    15    1
    81    66    65    2
    82    69    68    2
    83    89    82   am
    84   101   102    1
    85    63    64    1
    86    64    65    1
    87    64    67    1
    88    68    70   am
    89    68    67    1
    90    83    82    2
    91    82    81    1
    92   102   104   ar
    93   102   103   ar
    94   104   106   ar
    95    81    80    1
    96    81    84    1
    97   103   105   ar
    98    84    85    1
    99   106   107   ar
   100   105   107   ar
   101    86    85    1
   102    86    87    1
   103   107   108    1
   104    87    88    1
   105    74    73    2
   106    73    72    1
   107    71    72    1
   108    75    72    1
   109    75    76    1
   110    79    77   ar
   111    78    77   ar
   112    77    76    1
