@<TRIPOS>MOLECULE
tmp/4iugA00.pdb
 148 145 0 0 0
SMALL
GASTEIGER

@<TRIPOS>ATOM
      1  N         57.8130  -50.6970   45.6490 N.3    57  TYR57      -0.1241
      2  CA        58.6140  -51.9110   45.7350 C.3    57  TYR57       0.1605
      3  C         57.7390  -53.1240   45.4460 C.2    57  TYR57       0.2264
      4  O         56.5160  -53.0720   45.5760 O.2    57  TYR57      -0.2867
      5  CB        59.1820  -52.0750   47.1370 C.3    57  TYR57       0.0534
      6  CG        60.3980  -51.2420   47.5070 C.ar   57  TYR57      -0.0201
      7  CD1       61.4580  -51.0590   46.6190 C.ar   57  TYR57      -0.0009
      8  CD2       60.4970  -50.6740   48.7750 C.ar   57  TYR57      -0.0009
      9  CE1       62.5780  -50.3110   46.9790 C.ar   57  TYR57       0.0417
     10  CE2       61.6080  -49.9330   49.1500 C.ar   57  TYR57       0.0417
     11  CZ        62.6520  -49.7560   48.2550 C.ar   57  TYR57       0.1957
     12  OH        63.7480  -49.0170   48.6440 O.3    57  TYR57      -0.2866
     13  N         65.1910  -55.1560   48.5130 N.3   100  ILE100     -0.1231
     14  CA        64.4880  -53.8700   48.5400 C.3   100  ILE100      0.1692
     15  C         64.6380  -53.0750   49.8280 C.2   100  ILE100      0.2592
     16  O         64.1920  -51.9270   49.8810 O.2   100  ILE100     -0.2718
     17  CB        62.9610  -54.0010   48.2110 C.3   100  ILE100      0.0266
     18  CG1       62.2560  -54.9260   49.2180 C.3   100  ILE100      0.0019
     19  CG2       62.7530  -54.4360   46.7680 C.3   100  ILE100      0.0020
     20  CD1       60.7300  -54.8550   49.1870 C.3   100  ILE100      0.0001
     21  N         65.2650  -53.6840   50.8400 N.am  101  ASN101     -0.1960
     22  CA        65.3480  -53.1180   52.1940 C.3   101  ASN101      0.1819
     23  C         63.9400  -52.9170   52.7470 C.2   101  ASN101      0.2621
     24  O         63.3120  -53.8720   53.2210 O.2   101  ASN101     -0.2715
     25  CB        66.1070  -51.7940   52.1850 C.3   101  ASN101      0.1195
     26  CG        66.8600  -51.5380   53.4710 C.2   101  ASN101      0.2630
     27  OD1       67.5220  -52.4220   54.0160 O.2   101  ASN101     -0.2716
     28  ND2       66.7870  -50.3100   53.9490 N.am  101  ASN101     -0.0877
     29  N         63.4430  -51.6830   52.6660 N.am  102  ALA102     -0.1963
     30  CA        62.0160  -51.3940   52.8630 C.3   102  ALA102      0.1728
     31  C         61.4990  -51.6510   54.2720 C.2   102  ALA102      0.2616
     32  O         60.2990  -51.5570   54.5150 O.2   102  ALA102     -0.2715
     33  CB        61.1740  -52.1680   51.8660 C.3   102  ALA102      0.0334
     34  N         62.4020  -51.9770   55.1870 N.am  103  GLU103     -0.1977
     35  CA        62.0180  -52.3780   56.5240 C.3   103  GLU103      0.1602
     36  C         61.0470  -53.5610   56.5220 C.2   103  GLU103      0.2287
     37  O         60.1770  -53.6490   57.3780 O.2   103  GLU103     -0.2864
     38  CB        61.4420  -51.1960   57.2960 C.3   103  GLU103      0.0415
     39  CG        62.4720  -50.1580   57.6780 C.3   103  GLU103      0.1163
     40  CD        62.7930  -49.1640   56.5610 C.2   103  GLU103      0.3649
     41  OE1       61.8640  -48.5780   55.9580 O.co2 103  GLU103     -0.2457
     42  OE2       63.9840  -48.9450   56.2970 O.co2 103  GLU103     -0.2457
     43  N         68.8790  -51.9030   45.2140 N.3   160  ASN160     -0.1225
     44  CA        68.4970  -50.8790   46.1730 C.3   160  ASN160      0.1785
     45  C         69.6740  -50.4600   47.0150 C.2   160  ASN160      0.2597
     46  O         70.2040  -51.2610   47.7720 O.2   160  ASN160     -0.2718
     47  CB        67.3890  -51.3920   47.0970 C.3   160  ASN160      0.1169
     48  CG        66.7230  -50.2750   47.8560 C.2   160  ASN160      0.2627
     49  OD1       65.8890  -49.5600   47.3040 O.2   160  ASN160     -0.2716
     50  ND2       67.1110  -50.0890   49.1110 N.am  160  ASN160     -0.0877
     51  N         70.0810  -49.2080   46.8760 N.am  161  GLU161     -0.1979
     52  CA        71.2200  -48.6790   47.6280 C.3   161  GLU161      0.1602
     53  C         72.4260  -49.6120   47.6060 C.2   161  GLU161      0.2287
     54  O         72.9960  -49.9500   48.6500 O.2   161  GLU161     -0.2864
     55  CB        70.8060  -48.3750   49.0670 C.3   161  GLU161      0.0415
     56  CG        69.6700  -47.3950   49.1470 C.3   161  GLU161      0.1163
     57  CD        69.3100  -47.0640   50.5650 C.2   161  GLU161      0.3649
     58  OE1       69.0580  -48.0210   51.3460 O.co2 161  GLU161     -0.2457
     59  OE2       69.2920  -45.8470   50.9070 O.co2 161  GLU161     -0.2457
     60  N         69.5910  -40.9810   47.6590 N.3   210  ASP210     -0.1239
     61  CA        68.6640  -40.8070   48.7630 C.3   210  ASP210      0.1674
     62  C         69.1470  -39.7450   49.7360 C.2   210  ASP210      0.2266
     63  O         70.2970  -39.3220   49.6890 O.2   210  ASP210     -0.2867
     64  CB        68.4670  -42.1220   49.5070 C.3   210  ASP210      0.1410
     65  CG        67.8670  -43.2060   48.6300 C.2   210  ASP210      0.3668
     66  OD1       67.3790  -42.8810   47.5140 O.co2 210  ASP210     -0.2456
     67  OD2       67.8730  -44.3800   49.0790 O.co2 210  ASP210     -0.2456
     68  N         67.9240  -38.5410   53.9920 N.3   212  TYR212     -0.1241
     69  CA        67.0460  -38.3390   55.1320 C.3   212  TYR212      0.1605
     70  C         67.7910  -37.5100   56.1650 C.2   212  TYR212      0.2264
     71  O         68.2880  -38.0430   57.1640 O.2   212  TYR212     -0.2867
     72  CB        66.6650  -39.6680   55.7550 C.3   212  TYR212      0.0534
     73  CG        65.9220  -40.6120   54.8460 C.ar  212  TYR212     -0.0201
     74  CD1       66.6030  -41.4030   53.9210 C.ar  212  TYR212     -0.0009
     75  CD2       64.5390  -40.7460   54.9410 C.ar  212  TYR212     -0.0009
     76  CE1       65.9210  -42.2930   53.1070 C.ar  212  TYR212      0.0417
     77  CE2       63.8530  -41.6280   54.1320 C.ar  212  TYR212      0.0417
     78  CZ        64.5460  -42.3980   53.2190 C.ar  212  TYR212      0.1957
     79  OH        63.8510  -43.2730   52.4240 O.3   212  TYR212     -0.2866
     80  N         66.2660  -40.9210   61.8460 N.3   216  PHE216     -0.1241
     81  CA        65.0290  -41.5420   62.2960 C.3   216  PHE216      0.1605
     82  C         64.8180  -41.5780   63.8140 C.2   216  PHE216      0.2264
     83  O         63.9020  -42.2460   64.2780 O.2   216  PHE216     -0.2867
     84  CB        64.8910  -42.9500   61.7100 C.3   216  PHE216      0.0534
     85  CG        65.2910  -43.0460   60.2720 C.ar  216  PHE216     -0.0203
     86  CD1       64.3700  -42.8220   59.2680 C.ar  216  PHE216     -0.0042
     87  CD2       66.5940  -43.3620   59.9240 C.ar  216  PHE216     -0.0042
     88  CE1       64.7270  -42.9050   57.9420 C.ar  216  PHE216     -0.0003
     89  CE2       66.9770  -43.4500   58.5920 C.ar  216  PHE216     -0.0003
     90  CZ        66.0340  -43.2240   57.5960 C.ar  216  PHE216     -0.0000
     91  N         64.6520  -41.2280   46.9000 N.3   250  GLU250     -0.1245
     92  CA        63.9560  -41.2140   48.1770 C.3   250  GLU250      0.1567
     93  C         64.3720  -39.9880   48.9490 C.2   250  GLU250      0.2260
     94  O         65.5490  -39.8160   49.2690 O.2   250  GLU250     -0.2867
     95  CB        64.2510  -42.4600   48.9990 C.3   250  GLU250      0.0388
     96  CG        64.0940  -43.7510   48.2410 C.3   250  GLU250      0.1160
     97  CD        64.6320  -44.9080   49.0280 C.2   250  GLU250      0.3649
     98  OE1       64.9910  -44.6770   50.1870 O.co2 250  GLU250     -0.2457
     99  OE2       64.7050  -46.0390   48.5160 O.co2 250  GLU250     -0.2457
    100  N         60.8490  -44.2360   60.0590 N.3   256  PHE256     -0.1241
    101  CA        60.3910  -45.5090   60.6220 C.3   256  PHE256      0.1605
    102  C         60.6080  -45.4810   62.1210 C.2   256  PHE256      0.2264
    103  O         61.2630  -44.5950   62.6410 O.2   256  PHE256     -0.2867
    104  CB        61.0700  -46.7380   60.0010 C.3   256  PHE256      0.0534
    105  CG        62.5610  -46.7010   60.0690 C.ar  256  PHE256     -0.0203
    106  CD1       63.2240  -47.0680   61.2270 C.ar  256  PHE256     -0.0042
    107  CD2       63.3070  -46.2840   58.9690 C.ar  256  PHE256     -0.0042
    108  CE1       64.6200  -47.0200   61.2940 C.ar  256  PHE256     -0.0003
    109  CE2       64.7100  -46.2280   59.0230 C.ar  256  PHE256     -0.0003
    110  CZ        65.3670  -46.6030   60.1860 C.ar  256  PHE256     -0.0000
    111  N         59.6250  -40.6190   50.3460 N.3   294  TYR294     -0.1241
    112  CA        59.4830  -41.9130   50.9840 C.3   294  TYR294      0.1605
    113  C         59.1920  -41.6550   52.4590 C.2   294  TYR294      0.2264
    114  O         59.9360  -40.9120   53.0940 O.2   294  TYR294     -0.2867
    115  CB        60.7940  -42.6980   50.8140 C.3   294  TYR294      0.0534
    116  CG        60.7570  -44.1150   51.3390 C.ar  294  TYR294     -0.0201
    117  CD1       60.6480  -44.3730   52.7060 C.ar  294  TYR294     -0.0009
    118  CD2       60.8370  -45.1970   50.4730 C.ar  294  TYR294     -0.0009
    119  CE1       60.6020  -45.6520   53.1790 C.ar  294  TYR294      0.0417
    120  CE2       60.7930  -46.4930   50.9470 C.ar  294  TYR294      0.0417
    121  CZ        60.6740  -46.7130   52.3000 C.ar  294  TYR294      0.1957
    122  OH        60.6220  -48.0000   52.7910 O.3   294  TYR294     -0.2866
    123  N         54.6130  -44.2060   59.5290 N.3   316  TYR316     -0.1241
    124  CA        55.7840  -43.4890   59.0190 C.3   316  TYR316      0.1605
    125  C         55.7230  -41.9650   59.2820 C.2   316  TYR316      0.2264
    126  O         56.6710  -41.2380   58.9900 O.2   316  TYR316     -0.2867
    127  CB        56.0060  -43.8100   57.5250 C.3   316  TYR316      0.0534
    128  CG        57.4640  -43.8450   57.1030 C.ar  316  TYR316     -0.0201
    129  CD1       58.2240  -45.0000   57.2480 C.ar  316  TYR316     -0.0009
    130  CD2       58.0770  -42.7210   56.5600 C.ar  316  TYR316     -0.0009
    131  CE1       59.5430  -45.0260   56.8790 C.ar  316  TYR316      0.0417
    132  CE2       59.3970  -42.7380   56.1940 C.ar  316  TYR316      0.0417
    133  CZ        60.1290  -43.8890   56.3560 C.ar  316  TYR316      0.1957
    134  OH        61.4580  -43.8960   55.9900 O.3   316  TYR316     -0.2866
    135  N         71.5740  -54.8230   54.7040 N.3   757  TRP757     -0.1241
    136  CA        71.9600  -53.4980   54.2240 C.3   757  TRP757      0.1605
    137  C         73.3930  -53.4150   53.7000 C.2   757  TRP757      0.2264
    138  O         73.6250  -52.8330   52.6390 O.2   757  TRP757     -0.2867
    139  CB        71.7090  -52.4070   55.2750 C.3   757  TRP757      0.0550
    140  CG        71.5360  -51.0390   54.6380 C.ar  757  TRP757      0.0003
    141  CD1       70.3590  -50.4610   54.2280 C.ar  757  TRP757      0.0946
    142  CD2       72.5750  -50.0960   54.3140 C.ar  757  TRP757      0.0152
    143  NE1       70.6030  -49.2180   53.6760 N.ar  757  TRP757     -0.2442
    144  CE2       71.9500  -48.9680   53.7220 C.ar  757  TRP757      0.0810
    145  CE3       73.9670  -50.0890   54.4780 C.ar  757  TRP757      0.0012
    146  CZ2       72.6720  -47.8480   53.2920 C.ar  757  TRP757      0.0191
    147  CZ3       74.6890  -48.9690   54.0460 C.ar  757  TRP757      0.0001
    148  CH2       74.0360  -47.8680   53.4580 C.ar  757  TRP757      0.0015
@<TRIPOS>BOND
     1    43    44    1
     2     3     4    2
     3     3     2    1
     4     1     2    1
     5     2     5    1
     6    44    45    1
     7    44    47    1
     8     7     9   ar
     9     7     6   ar
    10    19    17    1
    11    51    45   am
    12    51    52    1
    13    91    92    1
    14     9    11   ar
    15    45    46    2
    16    47    48    1
    17     5     6    1
    18    49    48    2
    19     6     8   ar
    20    66    65   ar
    21    53    52    1
    22    53    54    2
    23    52    55    1
    24    60    61    1
    25    48    50   am
    26    92    93    1
    27    92    95    1
    28    17    14    1
    29    17    18    1
    30    96    95    1
    31    96    97    1
    32    11    12    1
    33    11    10   ar
    34    13    14    1
    35    99    97   ar
    36    14    15    1
    37    65    67   ar
    38    65    64    1
    39    61    64    1
    40    61    62    1
    41     8    10   ar
    42    93    94    2
    43    97    98   ar
    44    55    56    1
    45    56    57    1
    46    20    18    1
    47    63    62    2
    48    15    16    2
    49    15    21   am
    50   111   112    1
    51   118   120   ar
    52   118   116   ar
    53    57    59   ar
    54    57    58   ar
    55   115   112    1
    56   115   116    1
    57    21    22    1
    58   120   121   ar
    59   112   113    1
    60   116   117   ar
    61    33    30    1
    62    25    22    1
    63    25    26    1
    64    22    23    1
    65   121   122    1
    66   121   119   ar
    67    79    78    1
    68   113   114    2
    69   138   137    2
    70    29    23   am
    71    29    30    1
    72   117   119   ar
    73    23    24    2
    74    30    31    1
    75    76    78   ar
    76    76    74   ar
    77    78    77   ar
    78   146   148   ar
    79   146   144   ar
    80   148   147   ar
    81    26    28   am
    82    26    27    2
    83   143   144   ar
    84   143   141   ar
    85   137   136    1
    86   144   142   ar
    87    74    73   ar
    88    68    69    1
    89   147   145   ar
    90    77    75   ar
    91   136   135    1
    92   136   139    1
    93   141   140   ar
    94    31    32    2
    95    31    34   am
    96   142   145   ar
    97   142   140   ar
    98   140   139    1
    99    73    75   ar
   100    73    72    1
   101    69    72    1
   102    69    70    1
   103    34    35    1
   104    41    40   ar
   105   134   133    1
   106    70    71    2
   107   132   133   ar
   108   132   130   ar
   109    42    40   ar
   110   133   131   ar
   111    36    35    1
   112    36    37    2
   113    35    38    1
   114   130   128   ar
   115    40    39    1
   116   131   129   ar
   117   128   129   ar
   118   128   127    1
   119    38    39    1
   120   127   124    1
   121    90    88   ar
   122    90    89   ar
   123    88    86   ar
   124    89    87   ar
   125   107   109   ar
   126   107   105   ar
   127   126   125    2
   128   124   125    1
   129   124   123    1
   130   109   110   ar
   131    86    85   ar
   132    87    85   ar
   133   104   105    1
   134   104   101    1
   135   100   101    1
   136   105   106   ar
   137   110   108   ar
   138    85    84    1
   139   101   102    1
   140   106   108   ar
   141    84    81    1
   142    80    81    1
   143   102   103    2
   144    81    82    1
   145    82    83    2
