@<TRIPOS>MOLECULE
tmp/4iuqB00.pdb
 92 87 0 0 0
SMALL
GASTEIGER

@<TRIPOS>ATOM
      1  N        -17.2340   22.4130   30.2610 N.3     6  PHE6       -0.1241
      2  CA       -15.9860   21.7050   30.4260 C.3     6  PHE6        0.1605
      3  C        -16.2220   20.2620   30.7570 C.2     6  PHE6        0.2264
      4  O        -17.3210   19.8500   31.1690 O.2     6  PHE6       -0.2867
      5  CB       -15.1130   22.3690   31.5080 C.3     6  PHE6        0.0534
      6  CG       -14.8490   23.8380   31.2810 C.ar    6  PHE6       -0.0203
      7  CD1      -13.6620   24.2690   30.7190 C.ar    6  PHE6       -0.0042
      8  CD2      -15.7800   24.7770   31.6250 C.ar    6  PHE6       -0.0042
      9  CE1      -13.4140   25.6220   30.4950 C.ar    6  PHE6       -0.0003
     10  CE2      -15.5480   26.1440   31.3950 C.ar    6  PHE6       -0.0003
     11  CZ       -14.3610   26.5570   30.8270 C.ar    6  PHE6       -0.0000
     12  N        -17.3870   24.1410   39.4440 N.3    22  PHE22      -0.1241
     13  CA       -16.0880   24.1720   40.0890 C.3    22  PHE22       0.1605
     14  C        -16.3190   24.7600   41.4590 C.2    22  PHE22       0.2264
     15  O        -16.8040   25.8830   41.5790 O.2    22  PHE22      -0.2867
     16  CB       -15.1680   25.0730   39.2650 C.3    22  PHE22       0.0534
     17  CG       -14.9890   24.5880   37.8780 C.ar   22  PHE22      -0.0203
     18  CD1      -15.9250   24.8970   36.8960 C.ar   22  PHE22      -0.0042
     19  CD2      -13.9500   23.7530   37.5650 C.ar   22  PHE22      -0.0042
     20  CE1      -15.8040   24.4160   35.5980 C.ar   22  PHE22      -0.0003
     21  CE2      -13.8100   23.2620   36.2750 C.ar   22  PHE22      -0.0003
     22  CZ       -14.7450   23.5940   35.2790 C.ar   22  PHE22      -0.0000
     23  N         -8.3160   22.5330   41.0590 N.3    35  VAL35      -0.1245
     24  CA        -9.6880   22.9590   41.3420 C.3    35  VAL35       0.1561
     25  C        -10.5470   21.7720   41.7790 C.2    35  VAL35       0.2260
     26  O        -10.2660   20.6410   41.3900 O.2    35  VAL35      -0.2867
     27  CB       -10.3450   23.6220   40.1180 C.3    35  VAL35       0.0252
     28  CG1       -9.7250   24.9540   39.9130 C.3    35  VAL35       0.0019
     29  CG2      -10.2330   22.7090   38.8340 C.3    35  VAL35       0.0019
     30  N         -5.6170   21.7960   36.6930 N.3    52  VAL52      -0.1231
     31  CA        -6.3050   22.6050   35.6740 C.3    52  VAL52       0.1692
     32  C         -5.7430   22.4410   34.2610 C.2    52  VAL52       0.2591
     33  O         -6.5040   22.3980   33.2870 O.2    52  VAL52      -0.2718
     34  CB        -6.2580   24.0950   36.0120 C.3    52  VAL52       0.0266
     35  CG1       -7.2550   24.8540   35.1800 C.3    52  VAL52       0.0020
     36  CG2       -6.5850   24.2920   37.4340 C.3    52  VAL52       0.0020
     37  N         -4.4210   22.3710   34.1340 N.am   53  LYS53      -0.1980
     38  CA        -3.8090   22.3050   32.8010 C.3    53  LYS53       0.1596
     39  C         -4.0900   20.9640   32.1320 C.2    53  LYS53       0.2287
     40  O         -4.7550   20.9190   31.1030 O.2    53  LYS53      -0.2864
     41  CB        -2.3030   22.5900   32.8730 C.3    53  LYS53       0.0298
     42  CG        -1.9440   23.9990   33.4220 C.3    53  LYS53       0.0038
     43  CD        -2.4650   25.1620   32.5140 C.3    53  LYS53       0.0206
     44  CE        -1.8950   26.5250   32.9410 C.3    53  LYS53       0.1093
     45  NZ        -0.3950   26.6050   32.7860 N.3    53  LYS53      -0.1314
     46  N         -8.4630   19.5750   33.0320 N.3    56  VAL56      -0.1231
     47  CA        -9.6810   20.3070   32.6560 C.3    56  VAL56       0.1692
     48  C         -9.5650   20.8950   31.2470 C.2    56  VAL56       0.2592
     49  O         -8.5170   21.4410   30.8720 O.2    56  VAL56      -0.2718
     50  CB       -10.0610   21.4210   33.6650 C.3    56  VAL56       0.0266
     51  CG1      -11.3130   22.1590   33.2030 C.3    56  VAL56       0.0020
     52  CG2      -10.3210   20.8510   35.0380 C.3    56  VAL56       0.0020
     53  N        -10.6310   20.7640   30.4640 N.am   57  ARG57      -0.1966
     54  CA       -10.6730   21.2930   29.1030 C.3    57  ARG57       0.1729
     55  C        -12.1140   21.4970   28.6510 C.2    57  ARG57       0.2616
     56  O        -13.0120   20.8940   29.2360 O.2    57  ARG57      -0.2715
     57  CB        -9.9380   20.3560   28.1570 C.3    57  ARG57       0.0348
     58  CG       -10.7190   19.1280   27.7610 C.3    57  ARG57       0.0492
     59  CD        -9.8110   18.0960   27.0490 C.3    57  ARG57       0.2205
     60  NE       -10.5700   16.8910   26.7110 N.pl3  57  ARG57      -0.0865
     61  CZ       -10.0460   15.7550   26.2470 C.cat  57  ARG57       0.5346
     62  NH1       -8.7300   15.6330   26.0610 N.pl3  57  ARG57       0.1354
     63  NH2      -10.8530   14.7330   25.9690 N.pl3  57  ARG57       0.1354
     64  N        -12.3310   22.3600   27.6480 N.am   58  GLU58      -0.1977
     65  CA       -13.6750   22.5530   27.0520 C.3    58  GLU58       0.1602
     66  C        -14.2490   21.2400   26.6180 C.2    58  GLU58       0.2287
     67  O        -13.5270   20.4060   26.0820 O.2    58  GLU58      -0.2864
     68  CB       -13.6180   23.3690   25.7810 C.3    58  GLU58       0.0415
     69  CG       -13.6980   24.8350   25.9180 C.3    58  GLU58       0.1163
     70  CD       -13.6400   25.4850   24.5380 C.2    58  GLU58       0.3649
     71  OE1      -14.7050   25.4790   23.8400 O.co2  58  GLU58      -0.2457
     72  OE2      -12.5300   25.9760   24.1460 O.co2  58  GLU58      -0.2457
     73  N        -12.3190   17.6610   19.4620 N.3   132  ARG132     -0.1245
     74  CA       -11.9030   18.7820   20.2770 C.3   132  ARG132      0.1563
     75  C        -12.2600   20.0660   19.5360 C.2   132  ARG132      0.2260
     76  O        -12.2180   20.0890   18.3250 O.2   132  ARG132     -0.2867
     77  CB       -10.4000   18.7040   20.5160 C.3   132  ARG132      0.0307
     78  CG        -9.9330   17.3660   21.1050 C.3   132  ARG132      0.0489
     79  CD       -10.4120   17.1620   22.5520 C.3   132  ARG132      0.2205
     80  NE       -10.2880   18.3940   23.3400 N.pl3 132  ARG132     -0.0865
     81  CZ       -11.2840   18.9750   24.0120 C.cat 132  ARG132      0.5346
     82  NH1      -12.4950   18.4230   24.0370 N.pl3 132  ARG132      0.1354
     83  NH2      -11.0660   20.1120   24.6700 N.pl3 132  ARG132      0.1354
     84  N        -11.9400   23.9040   18.0070 N.3   134  GLU134     -0.1245
     85  CA       -10.8930   24.5540   17.2380 C.3   134  GLU134      0.1567
     86  C        -10.3320   23.6270   16.1800 C.2   134  GLU134      0.2260
     87  O        -10.9730   23.3530   15.1710 O.2   134  GLU134     -0.2867
     88  CB        -9.7710   25.0240   18.1610 C.3   134  GLU134      0.0388
     89  CG        -8.6710   25.7500   17.4620 C.3   134  GLU134      0.1160
     90  CD        -7.3630   25.5640   18.1440 C.2   134  GLU134      0.3649
     91  OE1       -6.9500   24.4160   18.3220 O.co2 134  GLU134     -0.2457
     92  OE2       -6.7420   26.5580   18.5150 O.co2 134  GLU134     -0.2457
@<TRIPOS>BOND
     1    87    86    2
     2    86    85    1
     3    85    84    1
     4    85    88    1
     5    89    90    1
     6    89    88    1
     7    90    91   ar
     8    90    92   ar
     9    76    75    2
    10    73    74    1
    11    75    74    1
    12    74    77    1
    13    77    78    1
    14    78    79    1
    15    79    80    1
    16    80    81    2
    17    71    70   ar
    18    81    82    1
    19    81    83    1
    20    72    70   ar
    21    70    69    1
    22    68    69    1
    23    68    65    1
    24    63    61    1
    25    62    61    1
    26    67    66    2
    27    61    60    2
    28    66    65    1
    29    60    59    1
    30    59    58    1
    31    65    64    1
    32    64    55   am
    33    58    57    1
    34    57    54    1
    35    55    54    1
    36    55    56    2
    37    54    53    1
    38     1     2    1
    39     2     3    1
    40     2     5    1
    41    53    48   am
    42     9     7   ar
    43     9    11   ar
    44     7     6   ar
    45     3     4    2
    46    11    10   ar
    47    49    48    2
    48    40    39    2
    49    48    47    1
    50     6     5    1
    51     6     8   ar
    52    10     8   ar
    53    39    38    1
    54    43    44    1
    55    43    42    1
    56    47    46    1
    57    47    50    1
    58    45    44    1
    59    38    41    1
    60    38    37    1
    61    41    42    1
    62    51    50    1
    63    33    32    2
    64    50    52    1
    65    37    32   am
    66    32    31    1
    67    35    34    1
    68    22    20   ar
    69    22    21   ar
    70    20    18   ar
    71    31    34    1
    72    31    30    1
    73    34    36    1
    74    21    19   ar
    75    18    17   ar
    76    19    17   ar
    77    17    16    1
    78    29    27    1
    79    16    13    1
    80    12    13    1
    81    28    27    1
    82    13    14    1
    83    27    24    1
    84    23    24    1
    85    24    25    1
    86    26    25    2
    87    14    15    2
