@<TRIPOS>MOLECULE
tmp/4iusA00.pdb
 85 82 0 0 0
SMALL
GASTEIGER

@<TRIPOS>ATOM
      1  N         15.5300   60.7020    7.9830 N.3   186  THR186     -0.1218
      2  CA        15.0030   61.0990    6.6990 C.3   186  THR186      0.1862
      3  C         13.9720   62.1700    6.8850 C.2   186  THR186      0.2287
      4  O         13.2710   62.1990    7.9120 O.2   186  THR186     -0.2866
      5  CB        14.3520   59.9420    5.9280 C.3   186  THR186      0.1770
      6  OG1       13.0220   59.7170    6.4050 O.3   186  THR186     -0.2211
      7  CG2       15.2020   58.6770    6.0270 C.3   186  THR186      0.0375
      8  N          9.8710   62.0680    2.7420 N.3   190  HIS190     -0.1226
      9  CA        10.5810   61.0070    2.0190 C.3   190  HIS190      0.1752
     10  C         10.7650   59.7480    2.8640 C.2   190  HIS190      0.2596
     11  O         11.6630   58.9640    2.6160 O.2   190  HIS190     -0.2718
     12  CB        11.9350   61.5580    1.5770 C.3   190  HIS190      0.0759
     13  CG        11.8480   62.6070    0.4940 C.ar  190  HIS190      0.0818
     14  ND1       11.5760   63.9130    0.7430 N.ar  190  HIS190     -0.2268
     15  CD2       11.9650   62.4880   -0.8720 C.ar  190  HIS190      0.1154
     16  CE1       11.5520   64.5800   -0.4260 C.ar  190  HIS190      0.1986
     17  NE2       11.7930   63.7000   -1.4030 N.ar  190  HIS190     -0.2212
     18  N          9.9210   59.5290    3.8640 N.am  191  ARG191     -0.1966
     19  CA        10.0190   58.3410    4.7100 C.3   191  ARG191      0.1729
     20  C          9.5580   57.0540    3.9740 C.2   191  ARG191      0.2616
     21  O          8.8300   57.1100    2.9730 O.2   191  ARG191     -0.2715
     22  CB         9.2260   58.5650    5.9980 C.3   191  ARG191      0.0348
     23  CG         7.7290   58.6440    5.7850 C.3   191  ARG191      0.0492
     24  CD         7.0190   59.2740    6.9650 C.3   191  ARG191      0.2205
     25  NE         5.5600   59.1590    6.8490 N.pl3 191  ARG191     -0.0865
     26  CZ         4.8010   59.9140    6.0530 C.cat 191  ARG191      0.5346
     27  NH1        3.4940   59.7270    6.0280 N.pl3 191  ARG191      0.1354
     28  NH2        5.3220   60.8750    5.2880 N.pl3 191  ARG191      0.1354
     29  N         10.0100   55.8990    4.4630 N.am  192  ARG192     -0.1963
     30  CA         9.5260   54.5990    3.9520 C.3   192  ARG192      0.1729
     31  C          9.8350   54.3820    2.4650 C.2   192  ARG192      0.2616
     32  O          9.0620   53.7700    1.7560 O.2   192  ARG192     -0.2715
     33  CB         8.0040   54.4570    4.1590 C.3   192  ARG192      0.0348
     34  CG         7.5160   54.4740    5.5970 C.3   192  ARG192      0.0492
     35  CD         5.9800   54.4470    5.6640 C.3   192  ARG192      0.2205
     36  NE         5.3640   54.0700    4.3910 N.pl3 192  ARG192     -0.0865
     37  CZ         5.0580   52.8230    4.0280 C.cat 192  ARG192      0.5346
     38  NH1        4.5190   52.5980    2.8390 N.pl3 192  ARG192      0.1354
     39  NH2        5.2870   51.7980    4.8470 N.pl3 192  ARG192      0.1354
     40  N         10.9570   54.8850    1.9820 N.am  193  GLN193     -0.1963
     41  CA        11.4060   54.6710    0.6110 C.3   193  GLN193      0.1733
     42  C         12.7850   54.0580    0.5740 C.2   193  GLN193      0.2617
     43  O         13.3930   53.9610   -0.4970 O.2   193  GLN193     -0.2715
     44  CB        11.5160   56.0040   -0.1310 C.3   193  GLN193      0.0408
     45  CG        10.2320   56.7270   -0.3020 C.3   193  GLN193      0.0908
     46  CD        10.4210   57.9960   -1.0920 C.2   193  GLN193      0.2608
     47  OE1       11.2860   58.1130   -1.9850 O.2   193  GLN193     -0.2717
     48  NE2        9.6030   58.9480   -0.7850 N.am  193  GLN193     -0.0878
     49  N         13.2800   53.6240    1.7250 N.am  194  GLY194     -0.1940
     50  CA        14.6150   53.0090    1.7780 C.3   194  GLY194      0.2014
     51  C         15.7780   53.9720    1.9370 C.2   194  GLY194      0.2639
     52  O         16.8870   53.5160    2.0000 O.2   194  GLY194     -0.2714
     53  N         15.5250   55.2820    2.0470 N.am  195  LEU195     -0.1963
     54  CA        16.5960   56.2640    2.0000 C.3   195  LEU195      0.1728
     55  C         17.3990   56.3010    3.3030 C.2   195  LEU195      0.2617
     56  O         18.5990   56.5500    3.2490 O.2   195  LEU195     -0.2715
     57  CB        16.0440   57.6570    1.6650 C.3   195  LEU195      0.0311
     58  CG        15.2790   57.7160    0.3330 C.3   195  LEU195      0.0022
     59  CD1       14.5290   59.0410    0.1780 C.3   195  LEU195      0.0001
     60  CD2       16.2040   57.4200   -0.8390 C.3   195  LEU195      0.0001
     61  N         16.7650   56.0210    4.4480 N.am  196  GLY196     -0.1940
     62  CA        17.4990   55.9010    5.7130 C.3   196  GLY196      0.2014
     63  C         18.4690   54.7570    5.7240 C.2   196  GLY196      0.2638
     64  O         19.5640   54.8540    6.2380 O.2   196  GLY196     -0.2714
     65  N         18.0500   53.6580    5.1270 N.am  197  ALA197     -0.1977
     66  CA        18.9190   52.4950    4.9720 C.3   197  ALA197      0.1597
     67  C         20.1010   52.8150    4.0400 C.2   197  ALA197      0.2287
     68  O         21.2540   52.4320    4.3120 O.2   197  ALA197     -0.2864
     69  CB        18.1180   51.2790    4.4680 C.3   197  ALA197      0.0319
     70  N         11.8360   54.7190   12.7590 N.3   225  ALA225     -0.1245
     71  CA        11.6570   53.8800   11.5580 C.3   225  ALA225      0.1562
     72  C         11.9620   52.4130   11.8680 C.2   225  ALA225      0.2260
     73  O         12.9860   52.1140   12.5060 O.2   225  ALA225     -0.2867
     74  CB        12.5620   54.3610   10.4370 C.3   225  ALA225      0.0290
     75  N         13.1050   50.0690    9.8760 N.3   227  ARG227     -0.1245
     76  CA        13.8760   49.5110    8.7650 C.3   227  ARG227      0.1563
     77  C         14.6830   48.3380    9.2970 C.2   227  ARG227      0.2260
     78  O         14.9630   48.2510   10.4990 O.2   227  ARG227     -0.2867
     79  CB        14.7920   50.5510    8.0990 C.3   227  ARG227      0.0307
     80  CG        15.8650   51.1010    9.0150 C.3   227  ARG227      0.0489
     81  CD        16.7490   52.1540    8.3690 C.3   227  ARG227      0.2205
     82  NE        16.0180   53.4090    8.1860 N.pl3 227  ARG227     -0.0865
     83  CZ        15.9850   54.4160    9.0800 C.cat 227  ARG227      0.5346
     84  NH1       16.6800   54.3450   10.2060 N.pl3 227  ARG227      0.1354
     85  NH2       15.2590   55.5090    8.8690 N.pl3 227  ARG227      0.1354
@<TRIPOS>BOND
     1    47    46    2
     2    17    15   ar
     3    17    16   ar
     4    46    48   am
     5    46    45    1
     6    15    13   ar
     7    60    58    1
     8    43    42    2
     9    16    14   ar
    10    45    44    1
    11    44    41    1
    12    59    58    1
    13    58    57    1
    14    13    14   ar
    15    13    12    1
    16    42    41    1
    17    42    49   am
    18    41    40    1
    19    12     9    1
    20    57    54    1
    21    49    50    1
    22    32    31    2
    23    50    51    1
    24    51    52    2
    25    51    53   am
    26    40    31   am
    27    54    53    1
    28    54    55    1
    29     9     8    1
    30     9    10    1
    31    31    30    1
    32    11    10    2
    33    38    37    1
    34    10    18   am
    35    21    20    2
    36    56    55    2
    37    55    61   am
    38    18    19    1
    39    30    33    1
    40    30    29    1
    41    20    29   am
    42    20    19    1
    43    37    36    2
    44    37    39    1
    45    67    68    2
    46    67    66    1
    47    33    34    1
    48    36    35    1
    49    61    62    1
    50    69    66    1
    51    19    22    1
    52    66    65    1
    53    65    63   am
    54    28    26    1
    55    34    35    1
    56    62    63    1
    57    63    64    2
    58    23    22    1
    59    23    24    1
    60     5     7    1
    61     5     6    1
    62     5     2    1
    63    27    26    1
    64    26    25    2
    65     2     3    1
    66     2     1    1
    67    25    24    1
    68     3     4    2
    69    79    76    1
    70    79    80    1
    71    82    81    1
    72    82    83    2
    73    81    80    1
    74    76    77    1
    75    76    75    1
    76    85    83    1
    77    83    84    1
    78    77    78    2
    79    74    71    1
    80    71    72    1
    81    71    70    1
    82    72    73    2
