@<TRIPOS>MOLECULE
tmp/4iuuB00.pdb
 258 251 0 0 0
SMALL
GASTEIGER

@<TRIPOS>ATOM
      1  N        -12.3880  -19.5240   30.1740 N.3     7  GLU7       -0.1245
      2  CA       -12.4830  -18.1430   30.6030 C.3     7  GLU7        0.1567
      3  C        -13.7820  -18.0310   31.3830 C.2     7  GLU7        0.2260
      4  O        -14.7100  -18.8070   31.1590 O.2     7  GLU7       -0.2867
      5  CB       -12.5000  -17.2100   29.3940 C.3     7  GLU7        0.0388
      6  CG       -13.6870  -17.4210   28.4720 C.3     7  GLU7        0.1160
      7  CD       -13.4660  -16.8270   27.0970 C.2     7  GLU7        0.3649
      8  OE1      -12.2960  -16.5730   26.7420 O.co2   7  GLU7       -0.2457
      9  OE2      -14.4600  -16.6160   26.3710 O.co2   7  GLU7       -0.2457
     10  N        -16.8050  -12.2210   34.9300 N.3    10  SER10      -0.1217
     11  CA       -16.7650  -11.6520   36.2640 C.3    10  SER10       0.1889
     12  C        -18.0240  -10.8470   36.5510 C.2    10  SER10       0.2288
     13  O        -18.5050  -10.1060   35.6950 O.2    10  SER10      -0.2866
     14  CB       -15.5350  -10.7640   36.4230 C.3    10  SER10       0.2089
     15  OG       -15.4770  -10.2380   37.7330 O.3    10  SER10      -0.2183
     16  N        -18.0560   -8.5220   38.6370 N.3    12  ARG12      -0.1231
     17  CA       -17.5930   -7.1690   38.9200 C.3    12  ARG12       0.1694
     18  C        -17.7490   -6.2400   37.7170 C.2    12  ARG12       0.2592
     19  O        -18.2750   -5.1370   37.8440 O.2    12  ARG12      -0.2718
     20  CB       -16.1390   -7.1870   39.3950 C.3    12  ARG12       0.0321
     21  CG       -15.8770   -8.1430   40.5500 C.3    12  ARG12       0.0489
     22  CD       -15.6850   -7.3990   41.8600 C.3    12  ARG12       0.2205
     23  NE       -14.8740   -6.1960   41.6990 N.pl3  12  ARG12      -0.0865
     24  CZ       -15.0580   -5.0740   42.3890 C.cat  12  ARG12       0.5346
     25  NH1      -16.0270   -4.9980   43.2890 N.pl3  12  ARG12       0.1354
     26  NH2      -14.2730   -4.0270   42.1770 N.pl3  12  ARG12       0.1354
     27  N        -17.2920   -6.6880   36.5530 N.am   13  ASP13      -0.1974
     28  CA       -17.3220   -5.8670   35.3450 C.3    13  ASP13       0.1709
     29  C        -18.0360   -6.5060   34.1550 C.2    13  ASP13       0.2293
     30  O        -18.2590   -5.8460   33.1370 O.2    13  ASP13      -0.2864
     31  CB       -15.8990   -5.4930   34.9340 C.3    13  ASP13       0.1436
     32  CG       -14.9920   -6.6990   34.8350 C.2    13  ASP13       0.3671
     33  OD1      -15.4680   -7.7660   34.3980 O.co2  13  ASP13      -0.2456
     34  OD2      -13.8060   -6.5800   35.2080 O.co2  13  ASP13      -0.2456
     35  N        -14.7190  -11.0640   30.4920 N.3    16  TRP16      -0.1227
     36  CA       -14.2250  -12.4340   30.5730 C.3    16  TRP16       0.1737
     37  C        -12.7160  -12.4630   30.8010 C.2    16  TRP16       0.2595
     38  O        -11.9660  -11.7440   30.1400 O.2    16  TRP16      -0.2718
     39  CB       -14.5570  -13.2080   29.2960 C.3    16  TRP16       0.0564
     40  CG       -16.0200  -13.4220   29.0560 C.ar   16  TRP16       0.0003
     41  CD1      -16.8940  -12.5470   28.4820 C.ar   16  TRP16       0.0946
     42  CD2      -16.7760  -14.6000   29.3640 C.ar   16  TRP16       0.0152
     43  NE1      -18.1490  -13.1020   28.4210 N.ar   16  TRP16      -0.2442
     44  CE2      -18.1040  -14.3620   28.9560 C.ar   16  TRP16       0.0810
     45  CE3      -16.4610  -15.8300   29.9500 C.ar   16  TRP16       0.0012
     46  CZ2      -19.1130  -15.3080   29.1140 C.ar   16  TRP16       0.0191
     47  CZ3      -17.4650  -16.7670   30.1060 C.ar   16  TRP16       0.0001
     48  CH2      -18.7750  -16.5010   29.6910 C.ar   16  TRP16       0.0015
     49  N        -12.2780  -13.3010   31.7340 N.am   17  TYR17      -0.1962
     50  CA       -10.8550  -13.4850   31.9910 C.3    17  TYR17       0.1771
     51  C        -10.5030  -14.9640   31.9190 C.2    17  TYR17       0.2619
     52  O        -11.3600  -15.8210   32.1250 O.2    17  TYR17      -0.2715
     53  CB       -10.4830  -12.9420   33.3700 C.3    17  TYR17       0.0574
     54  CG       -10.8080  -11.4820   33.5710 C.ar   17  TYR17      -0.0198
     55  CD1       -9.8260  -10.5090   33.4410 C.ar   17  TYR17      -0.0009
     56  CD2      -12.0950  -11.0770   33.8950 C.ar   17  TYR17      -0.0009
     57  CE1      -10.1180   -9.1730   33.6270 C.ar   17  TYR17       0.0417
     58  CE2      -12.3970   -9.7450   34.0820 C.ar   17  TYR17       0.0417
     59  CZ       -11.4050   -8.7980   33.9470 C.ar   17  TYR17       0.1957
     60  OH       -11.7030   -7.4690   34.1340 O.3    17  TYR17      -0.2866
     61  N         -9.2410  -15.2620   31.6280 N.am   18  ASP18      -0.1971
     62  CA        -8.7830  -16.6450   31.6100 C.3    18  ASP18       0.1709
     63  C         -8.7890  -17.2260   33.0180 C.2    18  ASP18       0.2293
     64  O         -8.4450  -16.5440   33.9830 O.2    18  ASP18      -0.2864
     65  CB        -7.3830  -16.7500   31.0030 C.3    18  ASP18       0.1436
     66  CG        -7.3860  -16.5720   29.4980 C.2    18  ASP18       0.3671
     67  OD1       -8.4830  -16.5620   28.9030 O.co2  18  ASP18      -0.2456
     68  OD2       -6.2900  -16.4560   28.9090 O.co2  18  ASP18      -0.2456
     69  N         -8.4240  -16.5640   38.7240 N.3    39  PHE39      -0.1241
     70  CA        -8.1280  -15.9720   37.4240 C.3    39  PHE39       0.1605
     71  C         -6.6270  -15.9200   37.1620 C.2    39  PHE39       0.2264
     72  O         -5.8370  -15.6510   38.0660 O.2    39  PHE39      -0.2867
     73  CB        -8.7480  -14.5790   37.3050 C.3    39  PHE39       0.0534
     74  CG       -10.2490  -14.5790   37.3690 C.ar   39  PHE39      -0.0203
     75  CD1      -11.0020  -14.8600   36.2420 C.ar   39  PHE39      -0.0042
     76  CD2      -10.9050  -14.3020   38.5550 C.ar   39  PHE39      -0.0042
     77  CE1      -12.3830  -14.8630   36.2960 C.ar   39  PHE39      -0.0003
     78  CE2      -12.2870  -14.3030   38.6160 C.ar   39  PHE39      -0.0003
     79  CZ       -13.0260  -14.5840   37.4850 C.ar   39  PHE39      -0.0000
     80  N         -3.8270  -13.2300   38.4520 N.3    42  PHE42      -0.1241
     81  CA        -4.3830  -12.5540   39.6120 C.3    42  PHE42       0.1605
     82  C         -4.3490  -13.4620   40.8260 C.2    42  PHE42       0.2264
     83  O         -4.4390  -14.6850   40.7030 O.2    42  PHE42      -0.2867
     84  CB        -5.8120  -12.0910   39.3340 C.3    42  PHE42       0.0534
     85  CG        -5.8980  -11.0400   38.2740 C.ar   42  PHE42      -0.0203
     86  CD1       -5.4430   -9.7570   38.5230 C.ar   42  PHE42      -0.0042
     87  CD2       -6.4090  -11.3370   37.0230 C.ar   42  PHE42      -0.0042
     88  CE1       -5.5060   -8.7870   37.5500 C.ar   42  PHE42      -0.0003
     89  CE2       -6.4810  -10.3710   36.0470 C.ar   42  PHE42      -0.0003
     90  CZ        -6.0240   -9.0940   36.3070 C.ar   42  PHE42      -0.0000
     91  N         -8.9170  -11.8200   43.9470 N.3    46  HIS46      -0.1241
     92  CA        -9.7700  -11.7320   42.7680 C.3    46  HIS46       0.1621
     93  C        -10.6590  -12.9580   42.5690 C.2    46  HIS46       0.2264
     94  O        -11.4690  -12.9940   41.6480 O.2    46  HIS46      -0.2867
     95  CB        -8.9200  -11.5050   41.5170 C.3    46  HIS46       0.0745
     96  CG        -8.1580  -10.2170   41.5310 C.ar   46  HIS46       0.0817
     97  ND1       -8.5980   -9.0850   40.8810 N.ar   46  HIS46      -0.2268
     98  CD2       -6.9830   -9.8840   42.1130 C.ar   46  HIS46       0.1154
     99  CE1       -7.7280   -8.1090   41.0640 C.ar   46  HIS46       0.1986
    100  NE2       -6.7380   -8.5670   41.8090 N.ar   46  HIS46      -0.2212
    101  N        -13.6010  -15.6480   42.6590 N.3    48  GLU48      -0.1245
    102  CA       -15.0460  -15.4420   42.6190 C.3    48  GLU48       0.1567
    103  C        -15.8150  -16.7500   42.5080 C.2    48  GLU48       0.2260
    104  O        -15.2920  -17.7530   42.0210 O.2    48  GLU48      -0.2867
    105  CB       -15.4320  -14.5570   41.4320 C.3    48  GLU48       0.0388
    106  CG       -15.2250  -13.0710   41.6440 C.3    48  GLU48       0.1160
    107  CD       -15.4870  -12.2670   40.3840 C.2    48  GLU48       0.3649
    108  OE1      -16.6290  -12.2980   39.8750 O.co2  48  GLU48      -0.2457
    109  OE2      -14.5450  -11.6070   39.8980 O.co2  48  GLU48      -0.2457
    110  N        -12.1130  -21.1510   26.2670 N.3    59  ARG59      -0.1231
    111  CA       -11.4190  -19.9210   25.8840 C.3    59  ARG59       0.1694
    112  C        -11.6380  -19.4940   24.4370 C.2    59  ARG59       0.2592
    113  O        -11.6540  -20.3180   23.5240 O.2    59  ARG59      -0.2718
    114  CB        -9.9190  -20.0340   26.1610 C.3    59  ARG59       0.0321
    115  CG        -9.5050  -19.5100   27.5200 C.3    59  ARG59       0.0489
    116  CD        -8.0390  -19.7650   27.7890 C.3    59  ARG59       0.2205
    117  NE        -7.7990  -19.9590   29.2140 N.pl3  59  ARG59      -0.0865
    118  CZ        -6.6130  -20.2300   29.7440 C.cat  59  ARG59       0.5346
    119  NH1       -5.5430  -20.3360   28.9680 N.pl3  59  ARG59       0.1354
    120  NH2       -6.4960  -20.3930   31.0540 N.pl3  59  ARG59       0.1354
    121  N        -11.8000  -18.1900   24.2440 N.am   60  SER60      -0.1952
    122  CA       -11.8180  -17.6100   22.9110 C.3    60  SER60       0.1924
    123  C        -10.4010  -17.6450   22.3590 C.2    60  SER60       0.2314
    124  O         -9.4370  -17.6160   23.1220 O.2    60  SER60      -0.2863
    125  CB       -12.3150  -16.1670   22.9650 C.3    60  SER60       0.2116
    126  OG       -13.5540  -16.0820   23.6460 O.3    60  SER60      -0.2180
    127  N         -7.4900  -15.9450   19.7030 N.3    62  PRO62      -0.2116
    128  CA        -7.0790  -14.8230   18.8540 C.3    62  PRO62       0.1372
    129  C         -7.0400  -15.2330   17.3860 C.2    62  PRO62       0.2244
    130  O         -6.4480  -16.2580   17.0460 O.2    62  PRO62      -0.2868
    131  CB        -5.6660  -14.5100   19.3530 C.3    62  PRO62       0.0268
    132  CG        -5.6580  -14.9810   20.7650 C.3    62  PRO62       0.0207
    133  CD        -6.5150  -16.2130   20.7730 C.3    62  PRO62       0.0892
    134  N         -5.9700  -15.1560   13.5110 N.3    64  GLU64      -0.1245
    135  CA        -4.7550  -14.8640   12.7600 C.3    64  GLU64       0.1567
    136  C         -5.0760  -14.2600   11.3950 C.2    64  GLU64       0.2260
    137  O         -6.0760  -14.6170   10.7720 O.2    64  GLU64      -0.2867
    138  CB        -3.9110  -16.1310   12.6010 C.3    64  GLU64       0.0388
    139  CG        -3.5030  -16.7720   13.9200 C.3    64  GLU64       0.1160
    140  CD        -2.4900  -15.9440   14.6910 C.2    64  GLU64       0.3649
    141  OE1       -1.7370  -15.1760   14.0550 O.co2  64  GLU64      -0.2457
    142  OE2       -2.4460  -16.0630   15.9340 O.co2  64  GLU64      -0.2457
    143  N        -15.1820  -12.2050   21.3130 N.3    78  LEU78      -0.1245
    144  CA       -14.6160  -11.6580   22.5340 C.3    78  LEU78       0.1561
    145  C        -13.7360  -10.4920   22.1200 C.2    78  LEU78       0.2260
    146  O        -12.6490  -10.6880   21.5760 O.2    78  LEU78      -0.2867
    147  CB       -13.7870  -12.7050   23.2750 C.3    78  LEU78       0.0270
    148  CG       -13.2960  -12.2950   24.6660 C.3    78  LEU78       0.0019
    149  CD1      -14.4710  -12.1640   25.6220 C.3    78  LEU78       0.0001
    150  CD2      -12.2760  -13.2880   25.2010 C.3    78  LEU78       0.0001
    151  N        -11.5440   -6.9640   22.6400 N.3    80  PHE80      -0.1241
    152  CA       -10.7350   -6.2070   23.5840 C.3    80  PHE80       0.1605
    153  C        -11.1650   -4.7510   23.5610 C.2    80  PHE80       0.2264
    154  O        -10.7320   -3.9750   22.7090 O.2    80  PHE80      -0.2867
    155  CB        -9.2490   -6.3270   23.2550 C.3    80  PHE80       0.0534
    156  CG        -8.3490   -5.7240   24.2980 C.ar   80  PHE80      -0.0203
    157  CD1       -8.2240   -6.3120   25.5450 C.ar   80  PHE80      -0.0042
    158  CD2       -7.6220   -4.5760   24.0290 C.ar   80  PHE80      -0.0042
    159  CE1       -7.3970   -5.7650   26.5080 C.ar   80  PHE80      -0.0003
    160  CE2       -6.7920   -4.0240   24.9880 C.ar   80  PHE80      -0.0003
    161  CZ        -6.6790   -4.6200   26.2290 C.ar   80  PHE80      -0.0000
    162  N        -10.9090   -1.3840   24.9120 N.3    82  GLU82      -0.1231
    163  CA       -10.0660   -0.5030   25.7100 C.3    82  GLU82       0.1699
    164  C        -10.6410    0.9040   25.8330 C.2    82  GLU82       0.2592
    165  O        -10.7600    1.6250   24.8440 O.2    82  GLU82      -0.2718
    166  CB        -8.6570   -0.4390   25.1190 C.3    82  GLU82       0.0402
    167  CG        -7.6940    0.4310   25.9080 C.3    82  GLU82       0.1161
    168  CD        -6.2450    0.0730   25.6510 C.2    82  GLU82       0.3649
    169  OE1       -5.9630   -0.5490   24.6060 O.co2  82  GLU82      -0.2457
    170  OE2       -5.3880    0.4130   26.4930 O.co2  82  GLU82      -0.2457
    171  N        -10.9920    1.2880   27.0560 N.am   83  ARG83      -0.1966
    172  CA       -11.4480    2.6380   27.3330 C.3    83  ARG83       0.1729
    173  C        -10.4090    3.3190   28.2040 C.2    83  ARG83       0.2616
    174  O         -9.2810    2.8440   28.3320 O.2    83  ARG83      -0.2715
    175  CB       -12.8010    2.6300   28.0460 C.3    83  ARG83       0.0348
    176  CG       -13.8940    1.8740   27.3110 C.3    83  ARG83       0.0492
    177  CD       -13.9060    2.2190   25.8320 C.3    83  ARG83       0.2205
    178  NE       -15.1810    1.8890   25.2040 N.pl3  83  ARG83      -0.0865
    179  CZ       -15.3070    1.3750   23.9860 C.cat  83  ARG83       0.5346
    180  NH1      -16.5120    1.1100   23.4990 N.pl3  83  ARG83       0.1354
    181  NH2      -14.2300    1.1210   23.2550 N.pl3  83  ARG83       0.1354
    182  N        -10.8030    4.4290   28.8120 N.am   84  GLU84      -0.1963
    183  CA        -9.9240    5.1850   29.6850 C.3    84  GLU84       0.1733
    184  C         -9.8940    4.5660   31.0750 C.2    84  GLU84       0.2616
    185  O         -8.8330    4.4010   31.6760 O.2    84  GLU84      -0.2715
    186  CB       -10.4150    6.6280   29.7620 C.3    84  GLU84       0.0429
    187  CG        -9.8540    7.4360   30.9070 C.3    84  GLU84       0.1163
    188  CD       -10.2710    8.8890   30.8270 C.2    84  GLU84       0.3649
    189  OE1      -11.1400    9.2090   29.9880 O.co2  84  GLU84      -0.2457
    190  OE2       -9.7270    9.7100   31.5930 O.co2  84  GLU84      -0.2457
    191  N        -11.0720    4.2120   31.5710 N.am   85  ASP85      -0.1957
    192  CA       -11.2100    3.7110   32.9300 C.3    85  ASP85       0.1840
    193  C        -10.8810    2.2260   33.0480 C.2    85  ASP85       0.2622
    194  O        -10.7590    1.7050   34.1530 O.2    85  ASP85      -0.2715
    195  CB       -12.6230    3.9830   33.4470 C.3    85  ASP85       0.1450
    196  CG       -12.9830    5.4560   33.4100 C.2    85  ASP85       0.3671
    197  OD1      -12.1480    6.2850   33.8300 O.co2  85  ASP85      -0.2456
    198  OD2      -14.0980    5.7870   32.9530 O.co2  85  ASP85      -0.2456
    199  N        -10.7300    1.5480   31.9140 N.am   86  GLN86      -0.1963
    200  CA       -10.4630    0.1140   31.9260 C.3    86  GLN86       0.1733
    201  C        -10.2420   -0.4510   30.5270 C.2    86  GLN86       0.2616
    202  O        -10.7400    0.0910   29.5420 O.2    86  GLN86      -0.2715
    203  CB       -11.6170   -0.6200   32.6010 C.3    86  GLN86       0.0408
    204  CG       -12.9350   -0.4220   31.8940 C.3    86  GLN86       0.0908
    205  CD       -14.1110   -0.7900   32.7610 C.2    86  GLN86       0.2608
    206  OE1      -13.9520   -1.1040   33.9400 O.2    86  GLN86      -0.2717
    207  NE2      -15.3040   -0.7510   32.1840 N.am   86  GLN86      -0.0878
    208  N         -9.4850   -1.5420   30.4520 N.am   87  ALA87      -0.1963
    209  CA        -9.2990   -2.2820   29.2090 C.3    87  ALA87       0.1728
    210  C         -9.7020   -3.7350   29.4310 C.2    87  ALA87       0.2616
    211  O         -8.9680   -4.5010   30.0530 O.2    87  ALA87      -0.2715
    212  CB        -7.8540   -2.1930   28.7450 C.3    87  ALA87       0.0334
    213  N        -10.8700   -4.1120   28.9220 N.am   88  LEU88      -0.1963
    214  CA       -11.4310   -5.4260   29.2130 C.3    88  LEU88       0.1728
    215  C        -11.7610   -6.2160   27.9580 C.2    88  LEU88       0.2616
    216  O        -11.8670   -5.6600   26.8650 O.2    88  LEU88      -0.2715
    217  CB       -12.7130   -5.2790   30.0320 C.3    88  LEU88       0.0311
    218  CG       -12.6830   -4.4040   31.2840 C.3    88  LEU88       0.0022
    219  CD1      -14.1020   -4.0440   31.7000 C.3    88  LEU88       0.0001
    220  CD2      -11.9360   -5.0880   32.4180 C.3    88  LEU88       0.0001
    221  N        -11.9290   -7.5210   28.1340 N.am   89  TYR89      -0.1974
    222  CA       -12.5000   -8.3680   27.1010 C.3    89  TYR89       0.1639
    223  C        -13.9700   -8.5910   27.4050 C.2    89  TYR89       0.2290
    224  O        -14.3170   -9.1110   28.4630 O.2    89  TYR89      -0.2864
    225  CB       -11.7880   -9.7170   27.0510 C.3    89  TYR89       0.0560
    226  CG       -10.5850   -9.7320   26.1470 C.ar   89  TYR89      -0.0198
    227  CD1       -9.3040   -9.5910   26.6600 C.ar   89  TYR89      -0.0009
    228  CD2      -10.7320   -9.8800   24.7750 C.ar   89  TYR89      -0.0009
    229  CE1       -8.2010   -9.6040   25.8320 C.ar   89  TYR89       0.0417
    230  CE2       -9.6370   -9.8930   23.9390 C.ar   89  TYR89       0.0417
    231  CZ        -8.3730   -9.7540   24.4710 C.ar   89  TYR89       0.1957
    232  OH        -7.2790   -9.7660   23.6390 O.3    89  TYR89      -0.2866
    233  N         -6.4410   -7.3640   15.7420 N.3   127  GLU127     -0.1231
    234  CA        -5.6270   -7.6200   16.9240 C.3   127  GLU127      0.1699
    235  C         -6.4250   -7.5100   18.2210 C.2   127  GLU127      0.2592
    236  O         -5.8940   -7.7820   19.3060 O.2   127  GLU127     -0.2718
    237  CB        -4.4320   -6.6610   16.9740 C.3   127  GLU127      0.0402
    238  CG        -4.8000   -5.1810   16.9850 C.3   127  GLU127      0.1161
    239  CD        -5.2400   -4.6720   15.6230 C.2   127  GLU127      0.3649
    240  OE1       -5.1930   -5.4530   14.6520 O.co2 127  GLU127     -0.2457
    241  OE2       -5.6310   -3.4900   15.5220 O.co2 127  GLU127     -0.2457
    242  N         -7.6960   -7.1240   18.1140 N.am  128  ARG128     -0.1980
    243  CA        -8.5220   -6.9010   19.2980 C.3   128  ARG128      0.1597
    244  C         -9.7760   -7.7670   19.3420 C.2   128  ARG128      0.2287
    245  O        -10.6860   -7.5110   20.1310 O.2   128  ARG128     -0.2864
    246  CB        -8.9100   -5.4290   19.4010 C.3   128  ARG128      0.0334
    247  CG        -7.7840   -4.5260   19.8560 C.3   128  ARG128      0.0492
    248  CD        -8.0940   -3.0800   19.5410 C.3   128  ARG128      0.2205
    249  NE        -8.0080   -2.2180   20.7140 N.pl3 128  ARG128     -0.0865
    250  CZ        -6.9040   -1.5860   21.0960 C.cat 128  ARG128      0.5346
    251  NH1       -5.7850   -1.7290   20.4010 N.pl3 128  ARG128      0.1354
    252  NH2       -6.9170   -0.8150   22.1740 N.pl3 128  ARG128      0.1354
    253  N        -11.3480  -11.9160   19.3710 N.3   130  CYS130     -0.1235
    254  CA       -11.1320  -13.3470   19.5330 C.3   130  CYS130      0.1677
    255  C        -12.4340  -14.0700   19.2240 C.2   130  CYS130      0.2270
    256  O        -13.5140  -13.6020   19.5870 O.2   130  CYS130     -0.2867
    257  CB       -10.6760  -13.6670   20.9580 C.3   130  CYS130      0.0956
    258  SG        -9.0860  -12.9350   21.4280 S.3   130  CYS130     -0.0801
@<TRIPOS>BOND
     1   137   136    2
     2   136   135    1
     3   138   135    1
     4   138   139    1
     5   135   134    1
     6   139   140    1
     7   141   140   ar
     8   240   239   ar
     9   140   142   ar
    10   241   239   ar
    11   239   238    1
    12   233   234    1
    13   234   237    1
    14   234   235    1
    15   237   238    1
    16   130   129    2
    17   129   128    1
    18   242   235   am
    19   242   243    1
    20   235   236    2
    21   128   131    1
    22   128   127    1
    23   255   254    1
    24   255   256    2
    25   243   244    1
    26   243   246    1
    27   244   245    2
    28   131   132    1
    29   253   254    1
    30   246   247    1
    31   254   257    1
    32   248   247    1
    33   248   249    1
    34   127   133    1
    35   251   250    1
    36   249   250    2
    37   132   133    1
    38   257   258    1
    39   250   252    1
    40   143   144    1
    41   146   145    2
    42   145   144    1
    43   123   122    1
    44   123   124    2
    45   144   147    1
    46   151   152    1
    47   154   153    2
    48   122   125    1
    49   122   121    1
    50   125   126    1
    51   155   152    1
    52   155   156    1
    53   181   179    1
    54   147   148    1
    55   180   179    1
    56   113   112    2
    57   153   152    1
    58   232   231    1
    59   230   231   ar
    60   230   228   ar
    61   179   178    2
    62   158   156   ar
    63   158   160   ar
    64   121   112   am
    65   156   157   ar
    66   112   111    1
    67   231   229   ar
    68   169   168   ar
    69   148   150    1
    70   148   149    1
    71   228   226   ar
    72   165   164    2
    73   162   163    1
    74   160   161   ar
    75   166   163    1
    76   166   167    1
    77   178   177    1
    78   157   159   ar
    79   168   167    1
    80   168   170   ar
    81   163   164    1
    82   229   227   ar
    83   177   176    1
    84   164   171   am
    85   111   114    1
    86   111   110    1
    87   226   227   ar
    88   226   225    1
    89   114   115    1
    90   161   159   ar
    91     9     7   ar
    92     8     7   ar
    93   216   215    2
    94   225   222    1
    95   171   172    1
    96     7     6    1
    97   222   223    1
    98   222   221    1
    99   176   175    1
   100   172   175    1
   101   172   173    1
   102   223   224    2
   103   115   116    1
   104   116   117    1
   105   215   221   am
   106   215   214    1
   107   173   174    2
   108   173   182   am
   109    43    41   ar
   110    43    44   ar
   111     6     5    1
   112    41    40   ar
   113   212   209    1
   114   182   183    1
   115    67    66   ar
   116    68    66   ar
   117   213   214    1
   118   213   210   am
   119    44    46   ar
   120    44    42   ar
   121   119   118    1
   122    40    39    1
   123    40    42   ar
   124    46    48   ar
   125   209   210    1
   126   209   208    1
   127   214   217    1
   128   117   118    2
   129    39    36    1
   130    42    45   ar
   131     5     2    1
   132   210   211    2
   133    66    65    1
   134   202   201    2
   135   183   186    1
   136   183   184    1
   137    48    47   ar
   138   118   120    1
   139   186   187    1
   140    45    47   ar
   141   189   188   ar
   142   217   218    1
   143    38    37    2
   144     1     2    1
   145   208   201   am
   146    35    36    1
   147   201   200    1
   148    36    37    1
   149     2     3    1
   150    37    49   am
   151   188   187    1
   152   188   190   ar
   153    65    62    1
   154   184   191   am
   155   184   185    2
   156     4     3    2
   157   218   219    1
   158   218   220    1
   159   191   192    1
   160    62    61    1
   161    62    63    1
   162    61    51   am
   163    49    50    1
   164   204   203    1
   165   204   205    1
   166   199   200    1
   167   199   193   am
   168    51    50    1
   169    51    52    2
   170   200   203    1
   171    50    53    1
   172   207   205   am
   173   205   206    2
   174   192   193    1
   175   192   195    1
   176   198   196   ar
   177    63    64    2
   178   193   194    2
   179    30    29    2
   180    53    54    1
   181   196   195    1
   182   196   197   ar
   183    55    54   ar
   184    55    57   ar
   185    54    56   ar
   186    57    59   ar
   187    56    58   ar
   188    59    58   ar
   189    59    60    1
   190    29    28    1
   191    33    32   ar
   192    32    31    1
   193    32    34   ar
   194    10    11    1
   195    31    28    1
   196    28    27    1
   197    13    12    2
   198    89    90   ar
   199    89    87   ar
   200    75    77   ar
   201    75    74   ar
   202    11    14    1
   203    11    12    1
   204    77    79   ar
   205    90    88   ar
   206    14    15    1
   207    27    18   am
   208    87    85   ar
   209    71    70    1
   210    71    72    2
   211    73    74    1
   212    73    70    1
   213    74    76   ar
   214    70    69    1
   215    79    78   ar
   216    88    86   ar
   217    18    19    2
   218    18    17    1
   219    85    86   ar
   220    85    84    1
   221    80    81    1
   222    76    78   ar
   223    16    17    1
   224    17    20    1
   225    84    81    1
   226    20    21    1
   227    81    82    1
   228   108   107   ar
   229   109   107   ar
   230   107   106    1
   231    21    22    1
   232    83    82    2
   233    97    99   ar
   234    97    96   ar
   235    99   100   ar
   236   105   106    1
   237   105   102    1
   238    95    96    1
   239    95    92    1
   240    96    98   ar
   241    94    93    2
   242    23    22    1
   243    23    24    2
   244   100    98   ar
   245   104   103    2
   246    26    24    1
   247    24    25    1
   248   103   102    1
   249    93    92    1
   250   102   101    1
   251    92    91    1
