@<TRIPOS>MOLECULE
tmp/4iuvB00.pdb
 258 251 0 0 0
SMALL
GASTEIGER

@<TRIPOS>ATOM
      1  N        -19.6950  -41.9870   29.9780 N.3     7  GLU7       -0.1245
      2  CA       -18.2920  -41.9090   30.3430 C.3     7  GLU7        0.1567
      3  C        -18.1010  -40.6320   31.1510 C.2     7  GLU7        0.2260
      4  O        -18.7530  -39.6230   30.8860 O.2     7  GLU7       -0.2867
      5  CB       -17.4180  -41.8830   29.0900 C.3     7  GLU7        0.0388
      6  CG       -17.5900  -40.6330   28.2430 C.3     7  GLU7        0.1160
      7  CD       -16.9700  -40.7680   26.8680 C.2     7  GLU7        0.3649
      8  OE1      -16.8550  -41.9080   26.3770 O.co2   7  GLU7       -0.2457
      9  OE2      -16.6010  -39.7340   26.2750 O.co2   7  GLU7       -0.2457
     10  N        -12.2770  -37.7940   34.6120 N.3    10  SER10      -0.1217
     11  CA       -11.6330  -37.8430   35.9210 C.3    10  SER10       0.1889
     12  C        -10.8600  -36.5630   36.2110 C.2    10  SER10       0.2288
     13  O        -10.0490  -36.1230   35.4000 O.2    10  SER10      -0.2866
     14  CB       -10.6900  -39.0450   36.0050 C.3    10  SER10       0.2089
     15  OG        -9.8840  -38.9840   37.1690 O.3    10  SER10      -0.2183
     16  N         -8.6720  -36.3580   38.3140 N.3    12  ARG12      -0.1231
     17  CA        -7.3250  -36.8060   38.6460 C.3    12  ARG12       0.1694
     18  C         -6.3710  -36.6710   37.4640 C.2    12  ARG12       0.2592
     19  O         -5.2660  -36.1470   37.6090 O.2    12  ARG12      -0.2718
     20  CB        -7.3490  -38.2550   39.1400 C.3    12  ARG12       0.0321
     21  CG        -6.0160  -38.9830   39.0260 C.3    12  ARG12       0.0489
     22  CD        -6.1080  -40.3880   39.6080 C.3    12  ARG12       0.2205
     23  NE        -5.0260  -41.2540   39.1450 N.pl3  12  ARG12      -0.0865
     24  CZ        -4.2000  -41.9250   39.9420 C.cat  12  ARG12       0.5346
     25  NH1       -4.3200  -41.8400   41.2610 N.pl3  12  ARG12       0.1354
     26  NH2       -3.2510  -42.6870   39.4170 N.pl3  12  ARG12       0.1354
     27  N         -6.7950  -37.1440   36.2950 N.am   13  ASP13      -0.1974
     28  CA        -5.9360  -37.1120   35.1120 C.3    13  ASP13       0.1709
     29  C         -6.6110  -36.5450   33.8600 C.2    13  ASP13       0.2293
     30  O         -5.9970  -36.4870   32.7940 O.2    13  ASP13      -0.2864
     31  CB        -5.3690  -38.5040   34.8220 C.3    13  ASP13       0.1436
     32  CG        -6.4510  -39.5520   34.6550 C.2    13  ASP13       0.3671
     33  OD1       -7.6090  -39.1750   34.3810 O.co2  13  ASP13      -0.2456
     34  OD2       -6.1400  -40.7530   34.7950 O.co2  13  ASP13      -0.2456
     35  N        -11.1810  -39.7450   30.2030 N.3    16  TRP16      -0.1227
     36  CA       -12.5600  -40.2030   30.3040 C.3    16  TRP16       0.1737
     37  C        -12.6150  -41.6920   30.6290 C.2    16  TRP16       0.2595
     38  O        -11.8120  -42.4780   30.1280 O.2    16  TRP16      -0.2718
     39  CB       -13.3220  -39.9180   29.0110 C.3    16  TRP16       0.0564
     40  CG       -13.5230  -38.4600   28.7300 C.ar   16  TRP16       0.0003
     41  CD1      -12.6570  -37.6200   28.0940 C.ar   16  TRP16       0.0946
     42  CD2      -14.6710  -37.6720   29.0670 C.ar   16  TRP16       0.0152
     43  NE1      -13.1930  -36.3570   28.0170 N.ar   16  TRP16      -0.2442
     44  CE2      -14.4290  -36.3630   28.6070 C.ar   16  TRP16       0.0810
     45  CE3      -15.8800  -37.9470   29.7150 C.ar   16  TRP16       0.0012
     46  CZ2      -15.3500  -35.3310   28.7740 C.ar   16  TRP16       0.0191
     47  CZ3      -16.7920  -36.9210   29.8790 C.ar   16  TRP16       0.0001
     48  CH2      -16.5230  -35.6300   29.4110 C.ar   16  TRP16       0.0015
     49  N        -13.5680  -42.0740   31.4700 N.am   17  TYR17      -0.1962
     50  CA       -13.7270  -43.4710   31.8460 C.3    17  TYR17       0.1771
     51  C        -15.1900  -43.8750   31.7930 C.2    17  TYR17       0.2619
     52  O        -16.0690  -43.0930   32.1550 O.2    17  TYR17      -0.2715
     53  CB       -13.1790  -43.7090   33.2520 C.3    17  TYR17       0.0574
     54  CG       -11.7120  -43.3910   33.3990 C.ar   17  TYR17      -0.0198
     55  CD1      -10.7490  -44.3720   33.2030 C.ar   17  TYR17      -0.0009
     56  CD2      -11.2890  -42.1120   33.7330 C.ar   17  TYR17      -0.0009
     57  CE1       -9.4050  -44.0880   33.3370 C.ar   17  TYR17       0.0417
     58  CE2       -9.9480  -41.8190   33.8690 C.ar   17  TYR17       0.0417
     59  CZ        -9.0100  -42.8100   33.6700 C.ar   17  TYR17       0.1957
     60  OH        -7.6730  -42.5220   33.8040 O.3    17  TYR17      -0.2866
     61  N        -15.4500  -45.0960   31.3380 N.am   18  ASP18      -0.1971
     62  CA       -16.8060  -45.6210   31.3340 C.3    18  ASP18       0.1709
     63  C        -17.3950  -45.5600   32.7340 C.2    18  ASP18       0.2293
     64  O        -16.7810  -46.0220   33.6980 O.2    18  ASP18      -0.2864
     65  CB       -16.8350  -47.0620   30.8210 C.3    18  ASP18       0.1436
     66  CG       -16.7250  -47.1470   29.3140 C.2    18  ASP18       0.3671
     67  OD1      -16.7560  -46.0870   28.6550 O.co2  18  ASP18      -0.2456
     68  OD2      -16.6220  -48.2750   28.7860 O.co2  18  ASP18      -0.2456
     69  N        -16.6750  -45.7990   38.3470 N.3    39  PHE39      -0.1241
     70  CA       -16.0780  -46.1720   37.0770 C.3    39  PHE39       0.1605
     71  C        -15.9850  -47.6840   36.9450 C.2    39  PHE39       0.2264
     72  O        -15.7000  -48.3870   37.9140 O.2    39  PHE39      -0.2867
     73  CB       -14.6830  -45.5630   36.9470 C.3    39  PHE39       0.0534
     74  CG       -14.6700  -44.0650   37.0000 C.ar   39  PHE39      -0.0203
     75  CD1      -14.2770  -43.4010   38.1490 C.ar   39  PHE39      -0.0042
     76  CD2      -15.0530  -43.3200   35.8990 C.ar   39  PHE39      -0.0042
     77  CE1      -14.2630  -42.0210   38.1970 C.ar   39  PHE39      -0.0003
     78  CE2      -15.0410  -41.9410   35.9390 C.ar   39  PHE39      -0.0003
     79  CZ       -14.6460  -41.2900   37.0900 C.ar   39  PHE39      -0.0000
     80  N        -13.4450  -50.4450   38.2370 N.3    42  PHE42      -0.1241
     81  CA       -12.5740  -50.1000   39.3500 C.3    42  PHE42       0.1605
     82  C        -13.3900  -50.1580   40.6290 C.2    42  PHE42       0.2264
     83  O        -14.6170  -50.0570   40.5920 O.2    42  PHE42      -0.2867
     84  CB       -12.0080  -48.6890   39.1760 C.3    42  PHE42       0.0534
     85  CG       -11.0470  -48.5480   38.0270 C.ar   42  PHE42      -0.0203
     86  CD1       -9.7290  -48.9560   38.1550 C.ar   42  PHE42      -0.0042
     87  CD2      -11.4540  -47.9820   36.8290 C.ar   42  PHE42      -0.0042
     88  CE1       -8.8400  -48.8170   37.1050 C.ar   42  PHE42      -0.0003
     89  CE2      -10.5690  -47.8400   35.7750 C.ar   42  PHE42      -0.0003
     90  CZ        -9.2610  -48.2580   35.9130 C.ar   42  PHE42      -0.0000
     91  N        -11.8760  -45.4310   43.4670 N.3    46  HIS46      -0.1241
     92  CA       -11.7990  -44.6570   42.2310 C.3    46  HIS46       0.1621
     93  C        -13.0190  -43.7610   42.0480 C.2    46  HIS46       0.2264
     94  O        -13.0340  -42.8970   41.1740 O.2    46  HIS46      -0.2867
     95  CB       -11.6280  -45.5970   41.0300 C.3    46  HIS46       0.0745
     96  CG       -10.2720  -46.2270   40.9480 C.ar   46  HIS46       0.0817
     97  ND1       -9.2180  -45.6360   40.2840 N.ar   46  HIS46      -0.2268
     98  CD2       -9.7940  -47.3890   41.4510 C.ar   46  HIS46       0.1154
     99  CE1       -8.1500  -46.4070   40.3820 C.ar   46  HIS46       0.1986
    100  NE2       -8.4730  -47.4770   41.0850 N.ar   46  HIS46      -0.2212
    101  N        -15.7160  -40.8510   42.2280 N.3    48  GLU48      -0.1245
    102  CA       -15.4910  -39.4090   42.2370 C.3    48  GLU48       0.1567
    103  C        -16.7910  -38.6190   42.2310 C.2    48  GLU48       0.2260
    104  O        -17.8300  -39.1160   41.7980 O.2    48  GLU48      -0.2867
    105  CB       -14.6730  -38.9840   41.0160 C.3    48  GLU48       0.0388
    106  CG       -13.1880  -39.2740   41.0940 C.3    48  GLU48       0.1160
    107  CD       -12.4260  -38.6730   39.9260 C.2    48  GLU48       0.3649
    108  OE1      -12.7000  -37.5060   39.5680 O.co2  48  GLU48      -0.2457
    109  OE2      -11.5590  -39.3700   39.3590 O.co2  48  GLU48      -0.2457
    110  N        -21.2920  -42.3300   25.8220 N.3    59  ARG59      -0.1231
    111  CA       -20.0400  -43.0260   25.5250 C.3    59  ARG59       0.1694
    112  C        -19.5090  -42.8120   24.1160 C.2    59  ARG59       0.2592
    113  O        -20.2560  -42.8400   23.1370 O.2    59  ARG59      -0.2718
    114  CB       -20.1790  -44.5240   25.7950 C.3    59  ARG59       0.0321
    115  CG       -19.6180  -44.9450   27.1360 C.3    59  ARG59       0.0489
    116  CD       -19.9250  -46.3930   27.4420 C.3    59  ARG59       0.2205
    117  NE       -20.1730  -46.5720   28.8670 N.pl3  59  ARG59      -0.0865
    118  CZ       -20.3330  -47.7500   29.4560 C.cat  59  ARG59       0.5346
    119  NH1      -20.2620  -48.8660   28.7440 N.pl3  59  ARG59       0.1354
    120  NH2      -20.5580  -47.8120   30.7610 N.pl3  59  ARG59       0.1354
    121  N        -18.2010  -42.6020   24.0310 N.am   60  SER60      -0.1952
    122  CA       -17.5090  -42.6080   22.7550 C.3    60  SER60       0.1924
    123  C        -17.5230  -44.0370   22.2330 C.2    60  SER60       0.2314
    124  O        -17.6660  -44.9810   23.0090 O.2    60  SER60      -0.2863
    125  CB       -16.0730  -42.1200   22.9240 C.3    60  SER60       0.2116
    126  OG       -16.0430  -40.8550   23.5620 O.3    60  SER60      -0.2180
    127  N        -15.8440  -47.1600   19.6900 N.3    62  PRO62      -0.2116
    128  CA       -14.8000  -47.6960   18.8150 C.3    62  PRO62       0.1372
    129  C        -15.2460  -47.6200   17.3590 C.2    62  PRO62       0.2244
    130  O        -16.3210  -48.1170   17.0200 O.2    62  PRO62      -0.2868
    131  CB       -14.6940  -49.1560   19.2570 C.3    62  PRO62       0.0268
    132  CG       -15.1110  -49.1400   20.6870 C.3    62  PRO62       0.0207
    133  CD       -16.1810  -48.0860   20.7860 C.3    62  PRO62       0.0892
    134  N        -15.1710  -48.7410   13.5920 N.3    64  GLU64      -0.1245
    135  CA       -14.8450  -49.9590   12.8610 C.3    64  GLU64       0.1567
    136  C        -14.2530  -49.6420   11.4910 C.2    64  GLU64       0.2260
    137  O        -14.5840  -48.6210   10.8880 O.2    64  GLU64      -0.2867
    138  CB       -16.0810  -50.8520   12.7260 C.3    64  GLU64       0.0388
    139  CG       -16.6420  -51.3380   14.0570 C.3    64  GLU64       0.1160
    140  CD       -15.6660  -52.2100   14.8290 C.2    64  GLU64       0.3649
    141  OE1      -14.7370  -52.7700   14.2070 O.co2  64  GLU64      -0.2457
    142  OE2      -15.8290  -52.3350   16.0610 O.co2  64  GLU64      -0.2457
    143  N        -12.0960  -39.3300   21.0850 N.3    78  LEU78      -0.1245
    144  CA       -11.5460  -39.8690   22.3170 C.3    78  LEU78       0.1561
    145  C        -10.4250  -40.8130   21.9070 C.2    78  LEU78       0.2260
    146  O        -10.6800  -41.8930   21.3750 O.2    78  LEU78      -0.2867
    147  CB       -12.6160  -40.6240   23.1030 C.3    78  LEU78       0.0270
    148  CG       -12.2680  -40.9770   24.5500 C.3    78  LEU78       0.0019
    149  CD1      -12.4080  -39.7500   25.4340 C.3    78  LEU78       0.0001
    150  CD2      -13.1550  -42.1010   25.0560 C.3    78  LEU78       0.0001
    151  N         -6.9010  -43.1190   22.4520 N.3    80  PHE80      -0.1241
    152  CA        -6.1430  -43.8960   23.4230 C.3    80  PHE80       0.1605
    153  C         -4.6810  -43.4770   23.3940 C.2    80  PHE80       0.2264
    154  O         -3.8880  -43.9900   22.6050 O.2    80  PHE80      -0.2867
    155  CB        -6.2720  -45.3960   23.1640 C.3    80  PHE80       0.0534
    156  CG        -5.8020  -46.2490   24.3090 C.ar   80  PHE80      -0.0203
    157  CD1       -6.6460  -46.5270   25.3710 C.ar   80  PHE80      -0.0042
    158  CD2       -4.5180  -46.7690   24.3270 C.ar   80  PHE80      -0.0042
    159  CE1       -6.2210  -47.3090   26.4290 C.ar   80  PHE80      -0.0003
    160  CE2       -4.0870  -47.5540   25.3830 C.ar   80  PHE80      -0.0003
    161  CZ        -4.9410  -47.8230   26.4350 C.ar   80  PHE80      -0.0000
    162  N         -1.4040  -43.7720   24.6240 N.3    82  GLU82      -0.1231
    163  CA        -0.5530  -44.6750   25.3910 C.3    82  GLU82       0.1699
    164  C          0.8350  -44.0870   25.5980 C.2    82  GLU82       0.2592
    165  O          1.7050  -44.2130   24.7380 O.2    82  GLU82      -0.2718
    166  CB        -0.4390  -46.0430   24.7140 C.3    82  GLU82       0.0402
    167  CG         0.3590  -47.0570   25.5280 C.3    82  GLU82       0.1161
    168  CD         0.4770  -48.4070   24.8470 C.2    82  GLU82       0.3649
    169  OE1       -0.3820  -48.7290   24.0000 O.co2  82  GLU82      -0.2457
    170  OE2        1.4340  -49.1460   25.1620 O.co2  82  GLU82      -0.2457
    171  N          1.0290  -43.4390   26.7410 N.am   83  ARG83      -0.1966
    172  CA         2.3440  -42.9580   27.1410 C.3    83  ARG83       0.1729
    173  C          3.0390  -44.0740   27.9190 C.2    83  ARG83       0.2616
    174  O          2.5440  -45.1960   27.9580 O.2    83  ARG83      -0.2715
    175  CB         2.2110  -41.7030   28.0020 C.3    83  ARG83       0.0348
    176  CG         1.6820  -40.4870   27.2530 C.3    83  ARG83       0.0492
    177  CD         2.6040  -40.1130   26.1020 C.3    83  ARG83       0.2205
    178  NE         2.0430  -40.4700   24.8030 N.pl3  83  ARG83      -0.0865
    179  CZ         1.3990  -39.6200   24.0090 C.cat  83  ARG83       0.5346
    180  NH1        0.9200  -40.0320   22.8440 N.pl3  83  ARG83       0.1354
    181  NH2        1.2350  -38.3570   24.3800 N.pl3  83  ARG83       0.1354
    182  N          4.1690  -43.7670   28.5470 N.am   84  GLU84      -0.1963
    183  CA         4.8770  -44.7610   29.3450 C.3    84  GLU84       0.1733
    184  C          4.4540  -44.7140   30.8120 C.2    84  GLU84       0.2616
    185  O          4.5320  -45.7180   31.5200 O.2    84  GLU84      -0.2715
    186  CB         6.3890  -44.5840   29.2180 C.3    84  GLU84       0.0429
    187  CG         6.9720  -43.4550   30.0450 C.3    84  GLU84       0.1163
    188  CD         8.4790  -43.5610   30.1820 C.2    84  GLU84       0.3649
    189  OE1        9.1890  -42.6860   29.6490 O.co2  84  GLU84      -0.2457
    190  OE2        8.9540  -44.5130   30.8330 O.co2  84  GLU84      -0.2457
    191  N          3.9940  -43.5510   31.2590 N.am   85  ASP85      -0.1957
    192  CA         3.6140  -43.3640   32.6580 C.3    85  ASP85       0.1840
    193  C          2.1230  -43.5800   32.8800 C.2    85  ASP85       0.2622
    194  O          1.6240  -43.4050   33.9930 O.2    85  ASP85      -0.2715
    195  CB         4.0120  -41.9660   33.1380 C.3    85  ASP85       0.1450
    196  CG         5.5130  -41.8080   33.2870 C.2    85  ASP85       0.3671
    197  OD1        6.1800  -42.7980   33.6570 O.co2  85  ASP85      -0.2456
    198  OD2        6.0260  -40.6970   33.0340 O.co2  85  ASP85      -0.2456
    199  N          1.4220  -43.9720   31.8210 N.am   86  GLN86      -0.1963
    200  CA        -0.0280  -44.0900   31.8630 C.3    86  GLN86       0.1733
    201  C         -0.5740  -44.3570   30.4690 C.2    86  GLN86       0.2616
    202  O          0.0290  -43.9630   29.4730 O.2    86  GLN86      -0.2715
    203  CB        -0.6240  -42.7850   32.3840 C.3    86  GLN86       0.0408
    204  CG        -0.2090  -41.5770   31.5570 C.3    86  GLN86       0.0908
    205  CD        -0.6490  -40.2610   32.1650 C.2    86  GLN86       0.2608
    206  OE1       -1.2950  -40.2310   33.2120 O.2    86  GLN86      -0.2717
    207  NE2       -0.2970  -39.1610   31.5100 N.am   86  GLN86      -0.0878
    208  N         -1.7240  -45.0190   30.4020 N.am   87  ALA87      -0.1963
    209  CA        -2.4300  -45.2070   29.1400 C.3    87  ALA87       0.1728
    210  C         -3.8910  -44.8060   29.3170 C.2    87  ALA87       0.2616
    211  O         -4.6500  -45.5000   29.9910 O.2    87  ALA87      -0.2715
    212  CB        -2.3190  -46.6500   28.6760 C.3    87  ALA87       0.0334
    213  N         -4.2850  -43.6870   28.7170 N.am   88  LEU88      -0.1963
    214  CA        -5.6080  -43.1240   28.9680 C.3    88  LEU88       0.1728
    215  C         -6.3560  -42.7790   27.6900 C.2    88  LEU88       0.2616
    216  O         -5.8060  -42.8470   26.5920 O.2    88  LEU88      -0.2715
    217  CB        -5.4900  -41.8490   29.8040 C.3    88  LEU88       0.0311
    218  CG        -4.5890  -41.8430   31.0390 C.3    88  LEU88       0.0022
    219  CD1       -4.4230  -40.4200   31.5550 C.3    88  LEU88       0.0001
    220  CD2       -5.1350  -42.7570   32.1260 C.3    88  LEU88       0.0001
    221  N         -7.6180  -42.3960   27.8570 N.am   89  TYR89      -0.1974
    222  CA        -8.4130  -41.8360   26.7750 C.3    89  TYR89       0.1639
    223  C         -8.5460  -40.3360   26.9770 C.2    89  TYR89       0.2290
    224  O         -9.1970  -39.8850   27.9190 O.2    89  TYR89      -0.2864
    225  CB        -9.8020  -42.4720   26.7370 C.3    89  TYR89       0.0560
    226  CG        -9.8210  -43.8650   26.1580 C.ar   89  TYR89      -0.0198
    227  CD1       -9.8420  -44.0640   24.7830 C.ar   89  TYR89      -0.0009
    228  CD2       -9.8200  -44.9810   26.9830 C.ar   89  TYR89      -0.0009
    229  CE1       -9.8590  -45.3350   24.2460 C.ar   89  TYR89       0.0417
    230  CE2       -9.8370  -46.2560   26.4550 C.ar   89  TYR89       0.0417
    231  CZ        -9.8570  -46.4270   25.0870 C.ar   89  TYR89       0.1957
    232  OH        -9.8730  -47.6960   24.5600 O.3    89  TYR89      -0.2866
    233  N         -7.2740  -48.2580   15.6110 N.3   127  GLU127     -0.1231
    234  CA        -7.4290  -49.1170   16.7850 C.3   127  GLU127      0.1699
    235  C         -7.3480  -48.3490   18.1000 C.2   127  GLU127      0.2592
    236  O         -7.3600  -48.9500   19.1760 O.2   127  GLU127     -0.2718
    237  CB        -6.3830  -50.2440   16.7850 C.3   127  GLU127      0.0402
    238  CG        -4.9650  -49.8210   17.1700 C.3   127  GLU127      0.1161
    239  CD        -4.1250  -49.4370   15.9700 C.2   127  GLU127      0.3649
    240  OE1       -4.6510  -49.4890   14.8390 O.co2 127  GLU127     -0.2457
    241  OE2       -2.9420  -49.0840   16.1540 O.co2 127  GLU127     -0.2457
    242  N         -7.2650  -47.0250   18.0140 N.am  128  ARG128     -0.1980
    243  CA        -7.1150  -46.2030   19.2140 C.3   128  ARG128      0.1597
    244  C         -8.0290  -44.9790   19.2570 C.2   128  ARG128      0.2287
    245  O         -7.9900  -44.1990   20.2100 O.2   128  ARG128     -0.2864
    246  CB        -5.6520  -45.7860   19.3800 C.3   128  ARG128      0.0334
    247  CG        -4.7210  -46.9690   19.5370 C.3   128  ARG128      0.0492
    248  CD        -3.3220  -46.5560   19.9310 C.3   128  ARG128      0.2205
    249  NE        -2.5560  -47.7030   20.4050 N.pl3 128  ARG128     -0.0865
    250  CZ        -1.3300  -47.6250   20.9080 C.cat 128  ARG128      0.5346
    251  NH1       -0.7250  -46.4490   21.0040 N.pl3 128  ARG128      0.1354
    252  NH2       -0.7110  -48.7230   21.3180 N.pl3 128  ARG128      0.1354
    253  N        -11.9360  -43.3390   19.2200 N.3   130  CYS130     -0.1235
    254  CA       -13.3660  -43.5080   19.4110 C.3   130  CYS130      0.1677
    255  C        -14.0540  -42.1940   19.0680 C.2   130  CYS130      0.2270
    256  O        -13.5460  -41.1190   19.3860 O.2   130  CYS130     -0.2867
    257  CB       -13.6770  -43.9090   20.8550 C.3   130  CYS130      0.0956
    258  SG       -13.1450  -45.5800   21.3090 S.3   130  CYS130     -0.0801
@<TRIPOS>BOND
     1   137   136    2
     2   136   135    1
     3   138   135    1
     4   138   139    1
     5   135   134    1
     6   139   140    1
     7   141   140   ar
     8   140   142   ar
     9   240   239   ar
    10   233   234    1
    11   239   241   ar
    12   239   238    1
    13   237   234    1
    14   237   238    1
    15   234   235    1
    16   130   129    2
    17   129   128    1
    18   242   235   am
    19   242   243    1
    20   235   236    2
    21   128   131    1
    22   128   127    1
    23   255   256    2
    24   255   254    1
    25   243   244    1
    26   243   246    1
    27   253   254    1
    28   131   132    1
    29   244   245    2
    30   246   247    1
    31   254   257    1
    32   247   248    1
    33   127   133    1
    34   248   249    1
    35   249   250    2
    36   132   133    1
    37   257   258    1
    38   250   251    1
    39   250   252    1
    40   143   144    1
    41   146   145    2
    42   145   144    1
    43   123   122    1
    44   123   124    2
    45   144   147    1
    46   151   152    1
    47   154   153    2
    48   122   125    1
    49   122   121    1
    50   180   179    1
    51   125   126    1
    52   147   148    1
    53   113   112    2
    54   155   152    1
    55   155   156    1
    56   153   152    1
    57   169   168   ar
    58   179   181    1
    59   179   178    2
    60   121   112   am
    61   112   111    1
    62   229   227   ar
    63   229   231   ar
    64   156   158   ar
    65   156   157   ar
    66   158   160   ar
    67   148   150    1
    68   148   149    1
    69   232   231    1
    70   162   163    1
    71   166   163    1
    72   166   167    1
    73   165   164    2
    74   227   226   ar
    75   178   177    1
    76   168   170   ar
    77   168   167    1
    78   231   230   ar
    79   157   159   ar
    80   160   161   ar
    81   163   164    1
    82   111   114    1
    83   111   110    1
    84   164   171   am
    85   114   115    1
    86   177   176    1
    87   226   225    1
    88   226   228   ar
    89     9     7   ar
    90     8     7   ar
    91   159   161   ar
    92   230   228   ar
    93   216   215    2
    94   225   222    1
    95   171   172    1
    96   222   223    1
    97   222   221    1
    98     7     6    1
    99   223   224    2
   100   115   116    1
   101   172   173    1
   102   172   175    1
   103   176   175    1
   104   116   117    1
   105   215   221   am
   106   215   214    1
   107   173   174    2
   108   173   182   am
   109    43    41   ar
   110    43    44   ar
   111    41    40   ar
   112     6     5    1
   113   182   183    1
   114    44    46   ar
   115    44    42   ar
   116    67    66   ar
   117   212   209    1
   118   213   214    1
   119   213   210   am
   120    40    39    1
   121    40    42   ar
   122   119   118    1
   123    46    48   ar
   124    68    66   ar
   125   117   118    2
   126   214   217    1
   127    39    36    1
   128    42    45   ar
   129     5     2    1
   130   209   210    1
   131   209   208    1
   132   186   183    1
   133   186   187    1
   134    66    65    1
   135   210   211    2
   136   183   184    1
   137    48    47   ar
   138   118   120    1
   139   202   201    2
   140   189   188   ar
   141    45    47   ar
   142   217   218    1
   143     1     2    1
   144   187   188    1
   145    38    37    2
   146   188   190   ar
   147    35    36    1
   148    36    37    1
   149     2     3    1
   150   208   201   am
   151   201   200    1
   152    37    49   am
   153   184   191   am
   154   184   185    2
   155    65    62    1
   156     4     3    2
   157   218   219    1
   158   218   220    1
   159   191   192    1
   160    62    61    1
   161    62    63    1
   162    61    51   am
   163    49    50    1
   164   207   205   am
   165   204   205    1
   166   204   203    1
   167    51    50    1
   168    51    52    2
   169   199   200    1
   170   199   193   am
   171    50    53    1
   172   200   203    1
   173   205   206    2
   174   192   193    1
   175   192   195    1
   176    63    64    2
   177    30    29    2
   178   193   194    2
   179   198   196   ar
   180   195   196    1
   181    55    57   ar
   182    55    54   ar
   183    53    54    1
   184   196   197   ar
   185    57    59   ar
   186    54    56   ar
   187    59    60    1
   188    59    58   ar
   189    56    58   ar
   190    29    28    1
   191    33    32   ar
   192    10    11    1
   193    32    34   ar
   194    32    31    1
   195    31    28    1
   196    28    27    1
   197    13    12    2
   198    89    90   ar
   199    89    87   ar
   200    76    78   ar
   201    76    74   ar
   202    90    88   ar
   203    11    14    1
   204    11    12    1
   205    78    79   ar
   206    14    15    1
   207    27    18   am
   208    87    85   ar
   209    71    70    1
   210    71    72    2
   211    73    74    1
   212    73    70    1
   213    74    75   ar
   214    70    69    1
   215    79    77   ar
   216    88    86   ar
   217    18    19    2
   218    18    17    1
   219    85    86   ar
   220    85    84    1
   221    75    77   ar
   222    80    81    1
   223    16    17    1
   224    17    20    1
   225    21    20    1
   226    21    22    1
   227    23    22    1
   228    23    24    2
   229    84    81    1
   230    81    82    1
   231   109   107   ar
   232    26    24    1
   233   108   107   ar
   234   107   106    1
   235    24    25    1
   236    97    99   ar
   237    97    96   ar
   238    99   100   ar
   239    83    82    2
   240    96    95    1
   241    96    98   ar
   242   105   106    1
   243   105   102    1
   244    95    92    1
   245   100    98   ar
   246    94    93    2
   247   104   103    2
   248    93    92    1
   249   101   102    1
   250   103   102    1
   251    92    91    1
