@<TRIPOS>MOLECULE
tmp/4iuwA00.pdb
 134 129 0 0 0
SMALL
GASTEIGER

@<TRIPOS>ATOM
      1  N         38.4590   43.3540   93.0030 N.3   428  MET428     -0.1245
      2  CA        38.5930   41.9110   93.1700 C.3   428  MET428      0.1570
      3  C         37.3310   41.3470   93.8030 C.2   428  MET428      0.2261
      4  O         36.7450   42.0100   94.6630 O.2   428  MET428     -0.2867
      5  CB        39.7800   41.5290   94.0550 C.3   428  MET428      0.0387
      6  CG        41.1050   41.7230   93.3510 C.3   428  MET428      0.0595
      7  SD        42.5650   41.2610   94.3330 S.3   428  MET428     -0.1393
      8  CE        43.8700   41.3310   93.1040 C.3   428  MET428      0.0692
      9  N         42.1610   34.5090   95.3610 N.3   433  VAL433     -0.1231
     10  CA        43.3490   34.2900   96.2120 C.3   433  VAL433      0.1692
     11  C         44.3830   35.3270   95.7700 C.2   433  VAL433      0.2592
     12  O         45.3280   35.0420   95.0170 O.2   433  VAL433     -0.2718
     13  CB        43.8850   32.8510   96.1400 C.3   433  VAL433      0.0266
     14  CG1       45.1010   32.6840   97.0360 C.3   433  VAL433      0.0020
     15  CG2       42.7970   31.8620   96.5560 C.3   433  VAL433      0.0020
     16  N         44.1430   36.5750   96.2100 N.am  434  ASN434     -0.1960
     17  CA        44.9300   37.7020   95.7780 C.3   434  ASN434      0.1819
     18  C         44.5810   38.8770   96.6860 C.2   434  ASN434      0.2621
     19  O         43.7160   38.7510   97.5580 O.2   434  ASN434     -0.2715
     20  CB        44.6340   38.0380   94.3300 C.3   434  ASN434      0.1195
     21  CG        45.8360   38.6270   93.5950 C.2   434  ASN434      0.2630
     22  OD1       46.6840   39.3220   94.1730 O.2   434  ASN434     -0.2716
     23  ND2       45.8970   38.3640   92.2870 N.am  434  ASN434     -0.0877
     24  N         45.1900   40.0360   96.4080 N.am  435  ALA435     -0.1963
     25  CA        44.9250   41.2560   97.1890 C.3   435  ALA435      0.1728
     26  C         45.4270   42.4290   96.3300 C.2   435  ALA435      0.2616
     27  O         46.2050   42.2210   95.3660 O.2   435  ALA435     -0.2715
     28  CB        45.6730   41.2260   98.5310 C.3   435  ALA435      0.0334
     29  N         45.0060   43.6280   96.6820 N.am  436  SER436     -0.1950
     30  CA        45.2740   44.8030   95.8310 C.3   436  SER436      0.1924
     31  C         45.2680   46.1530   96.5200 C.2   436  SER436      0.2314
     32  O         44.7160   46.3460   97.6050 O.2   436  SER436     -0.2863
     33  CB        44.2530   44.8800   94.7470 C.3   436  SER436      0.2116
     34  OG        42.9820   45.1470   95.3120 O.3   436  SER436     -0.2180
     35  N         41.8930   34.9180  100.2910 N.3   450  ILE450     -0.1245
     36  CA        43.2980   34.8870  100.7160 C.3   450  ILE450      0.1561
     37  C         43.4510   34.8020  102.2520 C.2   450  ILE450      0.2260
     38  O         44.5530   34.6330  102.7780 O.2   450  ILE450     -0.2867
     39  CB        44.0580   36.1150  100.1240 C.3   450  ILE450      0.0252
     40  CG1       45.5610   35.9090  100.0480 C.3   450  ILE450      0.0019
     41  CG2       43.7760   37.3970  100.9160 C.3   450  ILE450      0.0019
     42  CD1       45.9750   34.7360   99.1950 C.3   450  ILE450      0.0001
     43  N         47.8780   31.2610  104.2520 N.3   455  TYR455     -0.1241
     44  CA        48.2360   32.6760  104.4620 C.3   455  TYR455      0.1605
     45  C         47.8750   33.1960  105.8190 C.2   455  TYR455      0.2264
     46  O         48.5610   34.0370  106.3300 O.2   455  TYR455     -0.2867
     47  CB        47.5510   33.5680  103.4060 C.3   455  TYR455      0.0534
     48  CG        47.8500   33.1010  102.0000 C.ar  455  TYR455     -0.0201
     49  CD1       49.0710   33.3760  101.4000 C.ar  455  TYR455     -0.0009
     50  CD2       46.9370   32.2970  101.3130 C.ar  455  TYR455     -0.0009
     51  CE1       49.3720   32.9040  100.1100 C.ar  455  TYR455      0.0417
     52  CE2       47.2320   31.7850  100.0550 C.ar  455  TYR455      0.0417
     53  CZ        48.4280   32.1140   99.4630 C.ar  455  TYR455      0.1957
     54  OH        48.7020   31.5850   98.2520 O.3   455  TYR455     -0.2866
     55  N         51.7540   40.8430  103.3160 N.3   472  THR472     -0.1218
     56  CA        50.7830   41.2010  102.2880 C.3   472  THR472      0.1862
     57  C         49.9930   42.4930  102.5400 C.2   472  THR472      0.2287
     58  O         49.9110   43.3660  101.6650 O.2   472  THR472     -0.2866
     59  CB        49.8150   40.0420  101.9980 C.3   472  THR472      0.1770
     60  OG1       50.5650   38.8890  101.5750 O.3   472  THR472     -0.2211
     61  CG2       48.8610   40.4260  100.8730 C.3   472  THR472      0.0375
     62  N         52.4540   45.1560  102.0600 N.3   475  HIS475     -0.1226
     63  CA        52.7140   45.2740  100.6570 C.3   475  HIS475      0.1752
     64  C         51.6570   46.1680   99.9980 C.2   475  HIS475      0.2595
     65  O         52.0060   47.0880   99.2460 O.2   475  HIS475     -0.2718
     66  CB        52.6940   43.8480  100.0290 C.3   475  HIS475      0.0759
     67  CG        52.8480   43.8180   98.5350 C.ar  475  HIS475      0.0818
     68  ND1       53.9920   43.3380   97.9350 N.ar  475  HIS475     -0.2268
     69  CD2       51.9940   44.1170   97.5270 C.ar  475  HIS475      0.1154
     70  CE1       53.8620   43.3870   96.6250 C.ar  475  HIS475      0.1986
     71  NE2       52.6690   43.8680   96.3410 N.ar  475  HIS475     -0.2212
     72  N         50.3870   45.8930  100.2660 N.am  476  GLU476     -0.1979
     73  CA        49.3380   46.6400   99.6340 C.3   476  GLU476      0.1602
     74  C         49.4000   48.1250  100.0540 C.2   476  GLU476      0.2287
     75  O         49.2720   49.0470   99.1980 O.2   476  GLU476     -0.2864
     76  CB        47.9580   46.0020   99.8750 C.3   476  GLU476      0.0415
     77  CG        47.7130   44.5970   99.3080 C.3   476  GLU476      0.1163
     78  CD        48.1240   44.3640   97.8720 C.2   476  GLU476      0.3649
     79  OE1       48.2710   45.3230   97.0670 O.co2 476  GLU476     -0.2457
     80  OE2       48.3750   43.1520   97.5690 O.co2 476  GLU476     -0.2457
     81  N         52.1280   50.0440   98.1460 N.3   479  HIS479     -0.1241
     82  CA        51.8100   50.4670   96.8230 C.3   479  HIS479      0.1621
     83  C         51.3300   51.9280   96.7110 C.2   479  HIS479      0.2264
     84  O         51.4910   52.5200   95.6450 O.2   479  HIS479     -0.2867
     85  CB        50.7750   49.5890   96.1970 C.3   479  HIS479      0.0745
     86  CG        51.3410   48.4350   95.4520 C.ar  479  HIS479      0.0817
     87  ND1       52.3900   48.5570   94.5900 N.ar  479  HIS479     -0.2268
     88  CD2       50.9770   47.1360   95.4300 C.ar  479  HIS479      0.1154
     89  CE1       52.6590   47.3700   94.0530 C.ar  479  HIS479      0.1986
     90  NE2       51.7810   46.5080   94.5210 N.ar  479  HIS479     -0.2212
     91  N         56.8080   46.2910   92.5100 N.3   535  GLU535     -0.1245
     92  CA        56.4940   45.1680   93.3820 C.3   535  GLU535      0.1567
     93  C         57.5570   44.8060   94.3680 C.2   535  GLU535      0.2260
     94  O         57.2360   44.3380   95.4660 O.2   535  GLU535     -0.2867
     95  CB        56.1440   43.9340   92.5380 C.3   535  GLU535      0.0388
     96  CG        54.9050   44.1420   91.6410 C.3   535  GLU535      0.1160
     97  CD        53.6570   44.4420   92.3930 C.2   535  GLU535      0.3649
     98  OE1       53.5580   43.9540   93.5540 O.co2 535  GLU535     -0.2457
     99  OE2       52.7270   45.0440   91.7640 O.co2 535  GLU535     -0.2457
    100  N         54.7650   31.3670   99.6420 N.3   570  TRP570     -0.1241
    101  CA        55.2020   31.7030   98.3090 C.3   570  TRP570      0.1605
    102  C         55.6440   30.4750   97.4670 C.2   570  TRP570      0.2264
    103  O         56.2180   30.6450   96.4050 O.2   570  TRP570     -0.2867
    104  CB        56.3650   32.7110   98.3700 C.3   570  TRP570      0.0550
    105  CG        55.9100   34.1220   98.5470 C.ar  570  TRP570      0.0003
    106  CD1       56.1020   34.9130   99.6370 C.ar  570  TRP570      0.0946
    107  CD2       55.1030   34.8840   97.6230 C.ar  570  TRP570      0.0152
    108  NE1       55.4640   36.1440   99.4450 N.ar  570  TRP570     -0.2442
    109  CE2       54.8530   36.1340   98.2110 C.ar  570  TRP570      0.0810
    110  CE3       54.5500   34.6050   96.3550 C.ar  570  TRP570      0.0012
    111  CZ2       54.0930   37.1460   97.5600 C.ar  570  TRP570      0.0191
    112  CZ3       53.8170   35.6390   95.7010 C.ar  570  TRP570      0.0001
    113  CH2       53.5910   36.8680   96.3390 C.ar  570  TRP570      0.0015
    114  N         55.6950   41.5670   88.8880 N.3   588  HIS588     -0.1241
    115  CA        56.1920   40.8240   90.0310 C.3   588  HIS588      0.1621
    116  C         57.4090   40.0330   89.7190 C.2   588  HIS588      0.2264
    117  O         57.4710   39.3550   88.6940 O.2   588  HIS588     -0.2867
    118  CB        55.1200   39.8560   90.5270 C.3   588  HIS588      0.0745
    119  CG        53.8160   40.5030   90.8110 C.ar  588  HIS588      0.0817
    120  ND1       52.7760   40.5710   89.8900 N.ar  588  HIS588     -0.2268
    121  CD2       53.3610   41.0910   91.9510 C.ar  588  HIS588      0.1154
    122  CE1       51.7750   41.2480   90.4370 C.ar  588  HIS588      0.1986
    123  NE2       52.0990   41.5530   91.6900 N.ar  588  HIS588     -0.2212
    124  N         61.2950   36.7210   95.5420 N.3   594  ARG594     -0.1245
    125  CA        60.4540   37.4860   96.4790 C.3   594  ARG594      0.1563
    126  C         60.6330   36.9650   97.8970 C.2   594  ARG594      0.2260
    127  O         60.3620   37.6810   98.8650 O.2   594  ARG594     -0.2867
    128  CB        59.0000   37.4590   96.1040 C.3   594  ARG594      0.0307
    129  CG        58.7580   38.1090   94.7260 C.3   594  ARG594      0.0489
    130  CD        57.2810   38.0550   94.4010 C.3   594  ARG594      0.2205
    131  NE        56.5390   39.0620   95.1540 N.pl3 594  ARG594     -0.0865
    132  CZ        55.2720   39.3600   94.9040 C.cat 594  ARG594      0.5346
    133  NH1       54.5760   38.7080   93.9710 N.pl3 594  ARG594      0.1354
    134  NH2       54.6860   40.3170   95.5690 N.pl3 594  ARG594      0.1354
@<TRIPOS>BOND
     1   117   116    2
     2   114   115    1
     3   116   115    1
     4   120   122   ar
     5   120   119   ar
     6   115   118    1
     7   122   123   ar
     8   118   119    1
     9   119   121   ar
    10    96    97    1
    11    96    95    1
    12   123   121   ar
    13    99    97   ar
    14    23    21   am
    15    97    98   ar
    16    91    92    1
    17    95    92    1
    18     1     2    1
    19     8     7    1
    20     2     3    1
    21     2     5    1
    22     6     5    1
    23     6     7    1
    24    92    93    1
    25    21    22    2
    26    21    20    1
    27     3     4    2
    28   133   132    1
    29    89    90   ar
    30    89    87   ar
    31    20    17    1
    32    93    94    2
    33   130   129    1
    34   130   131    1
    35    90    88   ar
    36    87    86   ar
    37   129   128    1
    38    33    34    1
    39    33    30    1
    40   132   131    2
    41   132   134    1
    42    12    11    2
    43     9    10    1
    44    27    26    2
    45    88    86   ar
    46    86    85    1
    47   124   125    1
    48    84    83    2
    49   112   113   ar
    50   112   110   ar
    51    11    16   am
    52    11    10    1
    53    17    16    1
    54    17    18    1
    55    30    31    1
    56    30    29    1
    57   128   125    1
    58    13    10    1
    59    13    15    1
    60    13    14    1
    61    85    82    1
    62    26    29   am
    63    26    25    1
    64   113   111   ar
    65    71    70   ar
    66    71    69   ar
    67   110   107   ar
    68   103   102    2
    69    24    18   am
    70    24    25    1
    71   125   126    1
    72    31    32    2
    73    70    68   ar
    74    18    19    2
    75    83    82    1
    76    82    81    1
    77    79    78   ar
    78    25    28    1
    79   102   101    1
    80    69    67   ar
    81   111   109   ar
    82    80    78   ar
    83   107   109   ar
    84   107   105   ar
    85    78    77    1
    86   126   127    2
    87    68    67   ar
    88   109   108   ar
    89    54    53    1
    90   101   104    1
    91   101   100    1
    92   104   105    1
    93    67    66    1
    94   105   106   ar
    95    42    40    1
    96    75    74    2
    97    65    64    2
    98    77    76    1
    99   108   106   ar
   100    53    52   ar
   101    53    51   ar
   102    73    76    1
   103    73    74    1
   104    73    72    1
   105    64    72   am
   106    64    63    1
   107    66    63    1
   108    40    39    1
   109    52    50   ar
   110    51    49   ar
   111    39    36    1
   112    39    41    1
   113    35    36    1
   114    63    62    1
   115    36    37    1
   116    61    59    1
   117    50    48   ar
   118    49    48   ar
   119    60    59    1
   120    58    57    2
   121    59    56    1
   122    48    47    1
   123    37    38    2
   124    56    57    1
   125    56    55    1
   126    47    44    1
   127    43    44    1
   128    44    45    1
   129    45    46    2
