@<TRIPOS>MOLECULE
tmp/4iv2B01.pdb
 192 180 0 0 0
SMALL
GASTEIGER

@<TRIPOS>ATOM
      1  N         18.6040   23.2290   38.5230 N.3    39  MET39      -0.1245
      2  CA        18.0370   22.2420   37.6110 C.3    39  MET39       0.1570
      3  C         17.3190   21.1360   38.3890 C.2    39  MET39       0.2261
      4  O         16.2970   20.6090   37.9400 O.2    39  MET39      -0.2867
      5  CB        19.1200   21.6490   36.7060 C.3    39  MET39       0.0387
      6  CG        18.5720   20.8590   35.5260 C.3    39  MET39       0.0595
      7  SD        17.5790   21.8700   34.4020 S.3    39  MET39      -0.1393
      8  CE        18.6500   23.2910   34.2030 C.3    39  MET39       0.0692
      9  N         13.7940   21.8110   38.9020 N.3    42  LEU42      -0.1231
     10  CA        12.9720   21.5680   37.7280 C.3    42  LEU42       0.1693
     11  C         12.7360   20.0800   37.4490 C.2    42  LEU42       0.2592
     12  O         11.6270   19.6890   37.0950 O.2    42  LEU42      -0.2718
     13  CB        13.5740   22.2720   36.5110 C.3    42  LEU42       0.0284
     14  CG        13.6510   23.7900   36.6810 C.3    42  LEU42       0.0019
     15  CD1       14.2200   24.4670   35.4420 C.3    42  LEU42       0.0001
     16  CD2       12.2700   24.3340   37.0060 C.3    42  LEU42       0.0001
     17  N         13.7660   19.2520   37.6110 N.am   43  THR43      -0.1953
     18  CA        13.5930   17.8120   37.4280 C.3    43  THR43       0.1897
     19  C         12.7010   17.2350   38.5240 C.2    43  THR43       0.2313
     20  O         11.8200   16.4230   38.2540 O.2    43  THR43      -0.2863
     21  CB        14.9330   17.0670   37.4110 C.3    43  THR43       0.1794
     22  OG1       15.6620   17.3690   38.6040 O.3    43  THR43      -0.2208
     23  CG2       15.7640   17.4760   36.1900 C.3    43  THR43       0.0378
     24  N         10.4140   18.8940   40.2410 N.3    45  LEU45      -0.1231
     25  CA         9.0800   19.3800   39.9090 C.3    45  LEU45       0.1693
     26  C          8.4600   18.5580   38.7790 C.2    45  LEU45       0.2591
     27  O          7.3120   18.1200   38.8650 O.2    45  LEU45      -0.2718
     28  CB         9.1290   20.8570   39.5140 C.3    45  LEU45       0.0284
     29  CG         7.8450   21.4800   38.9520 C.3    45  LEU45       0.0019
     30  CD1        6.7390   21.5190   39.9920 C.3    45  LEU45       0.0001
     31  CD2        8.1270   22.8790   38.4260 C.3    45  LEU45       0.0001
     32  N          9.2260   18.3560   37.7150 N.am   46  ALA46      -0.1980
     33  CA         8.7390   17.5990   36.5740 C.3    46  ALA46       0.1597
     34  C          8.3270   16.1930   36.9970 C.2    46  ALA46       0.2287
     35  O          7.2820   15.6890   36.5800 O.2    46  ALA46      -0.2864
     36  CB         9.7940   17.5450   35.4870 C.3    46  ALA46       0.0319
     37  N          4.9440   16.3280   38.6330 N.3    49  GLU49      -0.1245
     38  CA         3.8950   16.6440   37.6680 C.3    49  GLU49       0.1567
     39  C          3.4950   15.4540   36.7990 C.2    49  GLU49       0.2260
     40  O          2.3730   15.4030   36.2900 O.2    49  GLU49      -0.2867
     41  CB         4.3250   17.7910   36.7610 C.3    49  GLU49       0.0388
     42  CG         4.3190   19.1390   37.4240 C.3    49  GLU49       0.1160
     43  CD         4.6610   20.2320   36.4450 C.2    49  GLU49       0.3649
     44  OE1        5.8640   20.4030   36.1460 O.co2  49  GLU49      -0.2457
     45  OE2        3.7280   20.9050   35.9570 O.co2  49  GLU49      -0.2457
     46  N          5.6040   13.6640   27.0590 N.3    79  TRP79      -0.1227
     47  CA         5.6200   14.2510   28.4030 C.3    79  TRP79       0.1737
     48  C          6.2660   15.6500   28.5010 C.2    79  TRP79       0.2595
     49  O          5.6920   16.5610   29.1070 O.2    79  TRP79      -0.2718
     50  CB         6.2190   13.2870   29.4280 C.3    79  TRP79       0.0564
     51  CG         7.6940   13.0880   29.3020 C.ar   79  TRP79       0.0003
     52  CD1        8.3350   12.2100   28.4840 C.ar   79  TRP79       0.0946
     53  CD2        8.7160   13.7790   30.0290 C.ar   79  TRP79       0.0152
     54  NE1        9.6970   12.3130   28.6490 N.ar   79  TRP79      -0.2442
     55  CE2        9.9550   13.2700   29.5940 C.ar   79  TRP79       0.0810
     56  CE3        8.7030   14.7830   31.0020 C.ar   79  TRP79       0.0012
     57  CZ2       11.1690   13.7300   30.0980 C.ar   79  TRP79       0.0191
     58  CZ3        9.9120   15.2360   31.5010 C.ar   79  TRP79       0.0001
     59  CH2       11.1270   14.7080   31.0480 C.ar   79  TRP79       0.0015
     60  N          7.4410   15.8280   27.9090 N.am   80  LEU80      -0.1980
     61  CA         8.1480   17.1030   28.0530 C.3    80  LEU80       0.1596
     62  C          7.4580   18.2230   27.2700 C.2    80  LEU80       0.2287
     63  O          7.4010   19.3600   27.7290 O.2    80  LEU80      -0.2864
     64  CB         9.6280   16.9730   27.6720 C.3    80  LEU80       0.0297
     65  CG        10.5350   18.1820   27.9500 C.3    80  LEU80       0.0022
     66  CD1       10.3670   18.6910   29.3720 C.3    80  LEU80       0.0001
     67  CD2       11.9980   17.8620   27.6650 C.3    80  LEU80       0.0001
     68  N          4.6420   19.2970   29.5660 N.3    83  LEU83      -0.1231
     69  CA         5.1240   20.1670   30.6350 C.3    83  LEU83       0.1693
     70  C          5.4140   21.5520   30.0730 C.2    83  LEU83       0.2591
     71  O          5.0580   22.5640   30.6690 O.2    83  LEU83      -0.2718
     72  CB         6.3860   19.5980   31.2890 C.3    83  LEU83       0.0284
     73  CG         6.2000   18.3090   32.0850 C.3    83  LEU83       0.0019
     74  CD1        7.5330   17.8310   32.6250 C.3    83  LEU83       0.0001
     75  CD2        5.2080   18.5250   33.2120 C.3    83  LEU83       0.0001
     76  N          6.0520   21.5880   28.9100 N.am   84  MET84      -0.1979
     77  CA         6.4690   22.8520   28.3100 C.3    84  MET84       0.1605
     78  C          5.3050   23.7520   27.8970 C.2    84  MET84       0.2287
     79  O          5.3570   24.9690   28.0840 O.2    84  MET84      -0.2864
     80  CB         7.4100   22.6050   27.1290 C.3    84  MET84       0.0413
     81  CG         8.8000   22.1320   27.5430 C.3    84  MET84       0.0598
     82  SD         9.9050   21.9450   26.1320 S.3    84  MET84      -0.1393
     83  CE        11.5060   22.0300   26.9430 C.3    84  MET84       0.0692
     84  N          3.9630   25.1590   30.9910 N.3    87  LEU87      -0.1245
     85  CA         4.8430   26.2350   31.4250 C.3    87  LEU87       0.1561
     86  C          4.5340   27.5180   30.6700 C.2    87  LEU87       0.2260
     87  O          4.3190   28.5680   31.2690 O.2    87  LEU87      -0.2867
     88  CB         6.3030   25.8570   31.1940 C.3    87  LEU87       0.0270
     89  CG         7.3030   26.9830   31.4530 C.3    87  LEU87       0.0019
     90  CD1        7.1750   27.4490   32.8940 C.3    87  LEU87       0.0001
     91  CD2        8.7190   26.5240   31.1560 C.3    87  LEU87       0.0001
     92  N          1.0730   29.2530   31.7210 N.3    90  ARG90      -0.1245
     93  CA         1.0270   29.9790   32.9830 C.3    90  ARG90       0.1563
     94  C          2.0520   31.1100   33.0440 C.2    90  ARG90       0.2260
     95  O          2.0510   31.9010   33.9790 O.2    90  ARG90      -0.2867
     96  CB         1.1690   29.0320   34.1840 C.3    90  ARG90       0.0307
     97  CG         2.4520   28.2260   34.2170 C.3    90  ARG90       0.0489
     98  CD         2.4350   27.2240   35.3670 C.3    90  ARG90       0.2205
     99  NE         3.6820   26.4650   35.4440 N.pl3  90  ARG90      -0.0865
    100  CZ         3.8560   25.2580   34.9150 C.cat  90  ARG90       0.5346
    101  NH1        2.8560   24.6640   34.2750 N.pl3  90  ARG90       0.1354
    102  NH2        5.0250   24.6440   35.0300 N.pl3  90  ARG90       0.1354
    103  N          7.7740   28.5620   36.3480 N.3   100  PHE100     -0.1241
    104  CA         7.8420   27.1200   36.5410 C.3   100  PHE100      0.1605
    105  C          6.9030   26.6800   37.6530 C.2   100  PHE100      0.2264
    106  O          6.1890   25.6850   37.5200 O.2   100  PHE100     -0.2867
    107  CB         9.2770   26.6860   36.8240 C.3   100  PHE100      0.0534
    108  CG        10.1930   26.8450   35.6450 C.ar  100  PHE100     -0.0203
    109  CD1       10.3140   25.8320   34.7080 C.ar  100  PHE100     -0.0042
    110  CD2       10.9200   28.0080   35.4650 C.ar  100  PHE100     -0.0042
    111  CE1       11.1580   25.9750   33.6130 C.ar  100  PHE100     -0.0003
    112  CE2       11.7650   28.1610   34.3770 C.ar  100  PHE100     -0.0003
    113  CZ        11.8850   27.1410   33.4480 C.ar  100  PHE100     -0.0000
    114  N         21.2130   29.4990   34.3300 N.3   111  CYS111     -0.1235
    115  CA        21.0990   28.6220   33.1700 C.3   111  CYS111      0.1677
    116  C         22.4820   28.2050   32.6850 C.2   111  CYS111      0.2270
    117  O         23.3410   29.0450   32.4190 O.2   111  CYS111     -0.2867
    118  CB        20.2900   29.2750   32.0480 C.3   111  CYS111      0.0956
    119  SG        18.5020   29.0530   32.2350 S.3   111  CYS111     -0.0801
    120  N         21.3720   25.7990   27.6080 N.3   115  MET115     -0.1245
    121  CA        20.0610   25.7390   28.2370 C.3   115  MET115      0.1570
    122  C         19.3310   27.0660   28.0380 C.2   115  MET115      0.2261
    123  O         18.1150   27.1010   27.8490 O.2   115  MET115     -0.2867
    124  CB        20.2180   25.4560   29.7310 C.3   115  MET115      0.0387
    125  CG        18.9100   25.3350   30.4900 C.3   115  MET115      0.0595
    126  SD        18.1710   23.6960   30.3830 S.3   115  MET115     -0.1393
    127  CE        19.4240   22.7040   31.1930 C.3   115  MET115      0.0692
    128  N         16.9640   27.4460   24.9490 N.3   118  ILE118     -0.1231
    129  CA        15.6820   26.7850   25.1630 C.3   118  ILE118      0.1692
    130  C         14.8060   27.6820   26.0170 C.2   118  ILE118      0.2592
    131  O         13.6080   27.8320   25.7800 O.2   118  ILE118     -0.2718
    132  CB        15.8730   25.4620   25.9240 C.3   118  ILE118      0.0266
    133  CG1       16.7640   24.5090   25.1230 C.3   118  ILE118      0.0019
    134  CG2       14.5240   24.8280   26.2510 C.3   118  ILE118      0.0020
    135  CD1       17.2720   23.3340   25.9270 C.3   118  ILE118      0.0001
    136  N         15.4310   28.2720   27.0260 N.am  119  PHE119     -0.1976
    137  CA        14.7700   29.2100   27.9110 C.3   119  PHE119      0.1639
    138  C         14.2090   30.3740   27.1000 C.2   119  PHE119      0.2290
    139  O         13.0480   30.7530   27.2620 O.2   119  PHE119     -0.2864
    140  CB        15.7700   29.7150   28.9480 C.3   119  PHE119      0.0560
    141  CG        15.1360   30.3830   30.1230 C.ar  119  PHE119     -0.0200
    142  CD1       15.0840   29.7430   31.3530 C.ar  119  PHE119     -0.0042
    143  CD2       14.5920   31.6510   30.0030 C.ar  119  PHE119     -0.0042
    144  CE1       14.5010   30.3580   32.4440 C.ar  119  PHE119     -0.0003
    145  CE2       14.0050   32.2720   31.0910 C.ar  119  PHE119     -0.0003
    146  CZ        13.9610   31.6230   32.3150 C.ar  119  PHE119     -0.0000
    147  N         11.2380   29.1950   25.0760 N.3   122  LEU122     -0.1245
    148  CA        10.0130   29.0890   25.8470 C.3   122  LEU122      0.1561
    149  C          9.4420   30.4850   26.0620 C.2   122  LEU122      0.2260
    150  O          8.2420   30.7030   25.9080 O.2   122  LEU122     -0.2867
    151  CB        10.2590   28.3680   27.1780 C.3   122  LEU122      0.0270
    152  CG        10.5870   26.8790   27.0220 C.3   122  LEU122      0.0019
    153  CD1       11.2900   26.3270   28.2520 C.3   122  LEU122      0.0001
    154  CD2        9.3330   26.0720   26.6950 C.3   122  LEU122      0.0001
    155  N         15.4370   19.7430   24.7760 N.3   211  GLY211     -0.1225
    156  CA        15.4110   19.4680   26.2020 C.3   211  GLY211      0.1811
    157  C         15.8680   18.0520   26.5020 C.2   211  GLY211      0.2280
    158  O         16.6830   17.8280   27.3930 O.2   211  GLY211     -0.2866
    159  N         19.5650   17.6860   26.3960 N.3   214  HIS214     -0.1226
    160  CA        20.1920   18.1590   27.6290 C.3   214  HIS214      0.1752
    161  C         19.9440   17.2030   28.7890 C.2   214  HIS214      0.2595
    162  O         20.8180   16.9920   29.6280 O.2   214  HIS214     -0.2718
    163  CB        19.6990   19.5610   27.9930 C.3   214  HIS214      0.0759
    164  CG        20.4930   20.6610   27.3610 C.ar  214  HIS214      0.0818
    165  ND1       19.9060   21.7220   26.7050 N.ar  214  HIS214     -0.2268
    166  CD2       21.8290   20.8650   27.2860 C.ar  214  HIS214      0.1154
    167  CE1       20.8470   22.5310   26.2510 C.ar  214  HIS214      0.1986
    168  NE2       22.0230   22.0340   26.5900 N.ar  214  HIS214     -0.2212
    169  N         18.7450   16.6320   28.8350 N.am  215  LEU215     -0.1980
    170  CA        18.4040   15.6840   29.8860 C.3   215  LEU215      0.1596
    171  C         19.3470   14.4910   29.8550 C.2   215  LEU215      0.2287
    172  O         19.8230   14.0390   30.8980 O.2   215  LEU215     -0.2864
    173  CB        16.9550   15.2240   29.7620 C.3   215  LEU215      0.0297
    174  CG        15.9530   15.9450   30.6640 C.3   215  LEU215      0.0022
    175  CD1       14.5500   15.4240   30.4120 C.3   215  LEU215      0.0001
    176  CD2       16.3360   15.7720   32.1240 C.3   215  LEU215      0.0001
    177  N         22.6090   15.5700   31.3290 N.3   218  MET218     -0.1245
    178  CA        22.6190   15.6800   32.7820 C.3   218  MET218      0.1570
    179  C         22.7490   14.3170   33.4520 C.2   218  MET218      0.2261
    180  O         23.4400   14.1750   34.4590 O.2   218  MET218     -0.2867
    181  CB        21.3560   16.3950   33.2610 C.3   218  MET218      0.0387
    182  CG        21.2730   17.8380   32.7950 C.3   218  MET218      0.0595
    183  SD        19.6050   18.5030   32.8580 S.3   218  MET218     -0.1393
    184  CE        19.0640   17.8750   34.4390 C.3   218  MET218      0.0692
    185  N         11.7920    9.6210   35.5130 N.3   230  LEU230     -0.1245
    186  CA        12.3840   10.4800   34.4950 C.3   230  LEU230      0.1561
    187  C         13.4380    9.7140   33.7080 C.2   230  LEU230      0.2260
    188  O         13.5410    9.8590   32.4920 O.2   230  LEU230     -0.2867
    189  CB        12.9840   11.7430   35.1190 C.3   230  LEU230      0.0270
    190  CG        12.0600   12.9590   35.1480 C.3   230  LEU230      0.0019
    191  CD1       12.7660   14.1560   35.7610 C.3   230  LEU230      0.0001
    192  CD2       11.5980   13.2810   33.7440 C.3   230  LEU230      0.0001
@<TRIPOS>BOND
     1   155   156    1
     2   128   129    1
     3   147   148    1
     4   133   132    1
     5   133   135    1
     6   129   132    1
     7   129   130    1
     8   131   130    2
     9   148   149    1
    10   148   151    1
    11   150   149    2
    12   132   134    1
    13   130   136   am
    14    82    83    1
    15    82    81    1
    16   156   157    1
    17   167   168   ar
    18   167   165   ar
    19   159   160    1
    20   157   158    2
    21   168   166   ar
    22   154   152    1
    23   165   164   ar
    24   152   151    1
    25   152   153    1
    26   136   137    1
    27    46    47    1
    28   138   139    2
    29   138   137    1
    30    80    81    1
    31    80    77    1
    32    62    63    2
    33    62    61    1
    34   166   164   ar
    35   164   163    1
    36   120   121    1
    37   160   163    1
    38   160   161    1
    39    67    65    1
    40    64    65    1
    41    64    61    1
    42   123   122    2
    43    78    79    2
    44    78    77    1
    45    60    61    1
    46    60    48   am
    47   137   140    1
    48    65    66    1
    49   122   121    1
    50   121   124    1
    51    77    76    1
    52    47    48    1
    53    47    50    1
    54    52    54   ar
    55    52    51   ar
    56    48    49    2
    57    54    55   ar
    58   161   169   am
    59   161   162    2
    60   169   170    1
    61    76    70   am
    62   140   141    1
    63    51    50    1
    64    51    53   ar
    65    68    69    1
    66    55    53   ar
    67    55    57   ar
    68   124   125    1
    69   173   170    1
    70   173   174    1
    71   171   170    1
    72   171   172    2
    73   143   141   ar
    74   143   145   ar
    75    53    56   ar
    76    70    69    1
    77    70    71    2
    78    57    59   ar
    79   141   142   ar
    80   126   125    1
    81   126   127    1
    82   175   174    1
    83    69    72    1
    84   174   176    1
    85    86    87    2
    86    86    85    1
    87    84    85    1
    88    56    58   ar
    89    59    58   ar
    90   145   146   ar
    91    91    89    1
    92    88    85    1
    93    88    89    1
    94    72    73    1
    95   177   178    1
    96   142   144   ar
    97    89    90    1
    98    92    93    1
    99   118   119    1
   100   118   115    1
   101    73    74    1
   102    73    75    1
   103   146   144   ar
   104   117   116    2
   105   188   187    2
   106   116   115    1
   107   178   181    1
   108   178   179    1
   109   182   183    1
   110   182   181    1
   111   183   184    1
   112    93    94    1
   113    93    96    1
   114    94    95    2
   115   115   114    1
   116   113   111   ar
   117   113   112   ar
   118   179   180    2
   119   111   109   ar
   120   187   186    1
   121   192   190    1
   122    96    97    1
   123     8     7    1
   124    97    98    1
   125   101   100    1
   126   112   110   ar
   127     7     6    1
   128   186   189    1
   129   186   185    1
   130   109   108   ar
   131   100   102    1
   132   100    99    2
   133   189   190    1
   134   190   191    1
   135    98    99    1
   136    15    14    1
   137   110   108   ar
   138    36    33    1
   139     6     5    1
   140   108   107    1
   141    45    43   ar
   142    44    43   ar
   143    23    21    1
   144    40    39    2
   145   103   104    1
   146    43    42    1
   147    13    14    1
   148    13    10    1
   149   104   107    1
   150   104   105    1
   151    33    34    1
   152    33    32    1
   153    35    34    2
   154    14    16    1
   155     5     2    1
   156    41    42    1
   157    41    38    1
   158    39    38    1
   159    12    11    2
   160    21    18    1
   161    21    22    1
   162    18    17    1
   163    18    19    1
   164    11    17   am
   165    11    10    1
   166   106   105    2
   167     2     3    1
   168     2     1    1
   169    38    37    1
   170    32    26   am
   171    10     9    1
   172     4     3    2
   173    20    19    2
   174    31    29    1
   175    26    27    2
   176    26    25    1
   177    29    28    1
   178    29    30    1
   179    28    25    1
   180    25    24    1
