@<TRIPOS>MOLECULE
tmp/4iv6B01.pdb
 191 185 0 0 0
SMALL
GASTEIGER

@<TRIPOS>ATOM
      1  N         90.9840   30.2010   11.1670 N.3   118  THR118     -0.1203
      2  CA        90.2640   29.8510   12.3780 C.3   118  THR118      0.1994
      3  C         91.1080   28.9210   13.2490 C.2   118  THR118      0.2617
      4  O         92.1390   28.4020   12.7890 O.2   118  THR118     -0.2717
      5  CB        88.9210   29.2190   12.0430 C.3   118  THR118      0.1784
      6  OG1       88.1410   29.0550   13.2400 O.3   118  THR118     -0.2211
      7  CG2       89.1220   27.8490   11.3680 C.3   118  THR118      0.0376
      8  N         90.6790   28.7320   14.4980 N.am  119  MET119     -0.1979
      9  CA        91.3830   27.8640   15.4640 C.3   119  MET119      0.1605
     10  C         90.7000   26.5210   15.5810 C.2   119  MET119      0.2287
     11  O         89.5230   26.4870   15.8720 O.2   119  MET119     -0.2864
     12  CB        91.3280   28.4340   16.8820 C.3   119  MET119      0.0413
     13  CG        92.0200   29.7500   17.1220 C.3   119  MET119      0.0598
     14  SD        93.8080   29.6430   16.9290 S.3   119  MET119     -0.1393
     15  CE        94.1980   28.3060   18.0300 C.3   119  MET119      0.0692
     16  N         90.9020   23.4070   17.9680 N.3   121  LEU121     -0.1231
     17  CA        91.3600   22.7360   19.1850 C.3   121  LEU121      0.1693
     18  C         90.4200   21.5990   19.5740 C.2   121  LEU121      0.2593
     19  O         90.8660   20.4980   19.8090 O.2   121  LEU121     -0.2718
     20  CB        91.4230   23.6940   20.3700 C.3   121  LEU121      0.0284
     21  CG        92.1950   25.0070   20.3090 C.3   121  LEU121      0.0019
     22  CD1       92.4390   25.5840   21.6910 C.3   121  LEU121      0.0001
     23  CD2       93.5000   24.8450   19.6140 C.3   121  LEU121      0.0001
     24  N         89.1200   21.9010   19.6460 N.am  122  THR122     -0.1939
     25  CA        88.1240   21.0040   20.1980 C.3   122  THR122      0.2028
     26  C         88.0080   19.7030   19.4260 C.2   122  THR122      0.2642
     27  O         87.9530   19.6940   18.2020 O.2   122  THR122     -0.2714
     28  CB        86.7730   21.7290   20.2980 C.3   122  THR122      0.1808
     29  OG1       86.9260   22.8650   21.1730 O.3   122  THR122     -0.2208
     30  CG2       85.6770   20.8190   20.8280 C.3   122  THR122      0.0379
     31  N         87.9870   18.6020   20.1730 N.am  123  GLU123     -0.1963
     32  CA        87.7910   17.2820   19.6170 C.3   123  GLU123      0.1718
     33  C         86.4210   16.7440   20.0150 C.2   123  GLU123      0.2458
     34  O         85.8990   17.1360   21.0490 O.2   123  GLU123     -0.2730
     35  CB        88.8790   16.3280   20.1370 C.3   123  GLU123      0.0428
     36  CG        90.2960   16.7700   19.7980 C.3   123  GLU123      0.1163
     37  CD        91.1390   15.7560   19.0350 C.2   123  GLU123      0.3649
     38  OE1       90.8800   14.5340   19.1280 O.co2 123  GLU123     -0.2457
     39  OE2       92.1080   16.2130   18.3940 O.co2 123  GLU123     -0.2457
     40  N         85.8540   15.8060   19.2410 N.am  124  PRO124     -0.2716
     41  CA        84.5690   15.2130   19.6550 C.3   124  PRO124      0.1536
     42  C         84.6190   14.6320   21.0710 C.2   124  PRO124      0.2599
     43  O         83.6380   14.7400   21.8100 O.2   124  PRO124     -0.2715
     44  CB        84.3220   14.0970   18.6160 C.3   124  PRO124      0.0310
     45  CG        85.2200   14.3930   17.4930 C.3   124  PRO124      0.0237
     46  CD        86.3220   15.2820   17.9510 C.3   124  PRO124      0.0939
     47  N         85.7560   14.0460   21.4380 N.am  125  GLY125     -0.1940
     48  CA        85.9530   13.4500   22.7710 C.3   125  GLY125      0.2017
     49  C         86.1770   14.4390   23.9120 C.2   125  GLY125      0.2678
     50  O         86.1490   14.0480   25.0850 O.2   125  GLY125     -0.2710
     51  N         86.3740   15.7070   23.5770 N.am  126  GLY126     -0.1716
     52  CA        86.5240   16.7850   24.5870 C.2   126  GLY126      0.1480
     53  C         87.1110   18.0940   24.0570 C.2   126  GLY126      0.2821
     54  O         88.1440   18.1320   23.3400 O.2   126  GLY126     -0.2669
     55  N         86.4970   19.1940   24.4500 N.am  127  GLY127     -0.1905
     56  CA        87.0760   20.4990   24.2500 C.3   127  GLY127      0.2017
     57  C         87.7790   21.0490   25.4730 C.2   127  GLY127      0.2640
     58  O         88.6250   21.9460   25.3470 O.2   127  GLY127     -0.2714
     59  N         87.4760   20.5180   26.6570 N.am  128  SER128     -0.1935
     60  CA        88.1830   20.9580   27.8650 C.3   128  SER128      0.2055
     61  C         89.4730   20.1870   28.0830 C.2   128  SER128      0.2643
     62  O         90.5090   20.7830   28.3700 O.2   128  SER128     -0.2714
     63  CB        87.2970   20.8180   29.1220 C.3   128  SER128      0.2130
     64  OG        86.0500   21.4700   28.9550 O.3   128  SER128     -0.2179
     65  N         89.3890   18.8530   28.0240 N.am  129  ASP129     -0.1971
     66  CA        90.5170   17.9730   28.2310 C.3   129  ASP129      0.1709
     67  C         91.2850   17.8170   26.9430 C.2   129  ASP129      0.2293
     68  O         91.2320   16.7670   26.2770 O.2   129  ASP129     -0.2864
     69  CB        90.0130   16.6020   28.7080 C.3   129  ASP129      0.1436
     70  CG        91.1230   15.6940   29.1540 C.2   129  ASP129      0.3671
     71  OD1       92.3080   16.1030   29.0600 O.co2 129  ASP129     -0.2456
     72  OD2       90.8000   14.5520   29.5870 O.co2 129  ASP129     -0.2456
     73  N         83.0600   21.3230   16.2550 N.3   152  TRP152     -0.1227
     74  CA        82.6350   22.6800   16.6060 C.3   152  TRP152      0.1737
     75  C         83.5940   23.7380   16.1010 C.2   152  TRP152      0.2595
     76  O         83.7560   24.7810   16.7380 O.2   152  TRP152     -0.2718
     77  CB        82.4520   22.8430   18.1400 C.3   152  TRP152      0.0564
     78  CG        81.2820   22.1520   18.6930 C.ar  152  TRP152      0.0003
     79  CD1       81.2820   21.1680   19.6560 C.ar  152  TRP152      0.0946
     80  CD2       79.9080   22.3920   18.3670 C.ar  152  TRP152      0.0152
     81  NE1       79.9970   20.7700   19.9220 N.ar  152  TRP152     -0.2442
     82  CE2       79.1330   21.5150   19.1530 C.ar  152  TRP152      0.0810
     83  CE3       79.2570   23.2530   17.4790 C.ar  152  TRP152      0.0012
     84  CZ2       77.7430   21.4630   19.0520 C.ar  152  TRP152      0.0191
     85  CZ3       77.8720   23.2170   17.3880 C.ar  152  TRP152      0.0001
     86  CH2       77.1310   22.3330   18.1730 C.ar  152  TRP152      0.0015
     87  N         84.2070   23.5240   14.9450 N.am  153  ILE153     -0.1966
     88  CA        85.1800   24.4920   14.4670 C.3   153  ILE153      0.1727
     89  C         84.4830   25.5830   13.6630 C.2   153  ILE153      0.2616
     90  O         83.9690   25.3400   12.5710 O.2   153  ILE153     -0.2715
     91  CB        86.3220   23.8240   13.6780 C.3   153  ILE153      0.0290
     92  CG1       87.0030   22.7330   14.5380 C.3   153  ILE153      0.0022
     93  CG2       87.3300   24.8810   13.1980 C.3   153  ILE153      0.0023
     94  CD1       87.3300   23.1710   15.9690 C.3   153  ILE153      0.0001
     95  N         84.4480   26.7860   14.2340 N.am  154  SER154     -0.1950
     96  CA        83.7510   27.9010   13.6140 C.3   154  SER154      0.1924
     97  C         84.4720   28.3990   12.3630 C.2   154  SER154      0.2314
     98  O         85.7000   28.4270   12.2900 O.2   154  SER154     -0.2863
     99  CB        83.5920   29.0480   14.6070 C.3   154  SER154      0.2116
    100  OG        82.7780   28.6250   15.7040 O.3   154  SER154     -0.2180
    101  N         72.5910   24.4770   15.3440 N.3   198  LYS198     -0.1245
    102  CA        72.8720   25.2340   16.5800 C.3   198  LYS198      0.1561
    103  C         71.6420   26.0160   17.0600 C.2   198  LYS198      0.2260
    104  O         70.8220   26.4440   16.2610 O.2   198  LYS198     -0.2867
    105  CB        73.9450   26.3070   16.3100 C.3   198  LYS198      0.0271
    106  CG        75.2690   25.8270   15.8810 C.3   198  LYS198      0.0035
    107  CD        76.2620   26.9560   15.7360 C.3   198  LYS198      0.0206
    108  CE        76.2160   27.5740   14.3390 C.3   198  LYS198      0.1093
    109  NZ        77.4120   28.4460   14.1960 N.3   198  LYS198     -0.1314
    110  N         73.9710   31.7140   17.1400 N.3   201  TYR201     -0.1241
    111  CA        75.2220   31.8720   16.4090 C.3   201  TYR201      0.1605
    112  C         74.9830   31.4580   14.9610 C.2   201  TYR201      0.2264
    113  O         75.8210   30.8240   14.3590 O.2   201  TYR201     -0.2867
    114  CB        76.3150   30.9850   17.0380 C.3   201  TYR201      0.0534
    115  CG        77.7680   31.3250   16.7000 C.ar  201  TYR201     -0.0201
    116  CD1       78.1160   32.3610   15.8150 C.ar  201  TYR201     -0.0009
    117  CD2       78.7930   30.6000   17.2560 C.ar  201  TYR201     -0.0009
    118  CE1       79.4570   32.6230   15.5060 C.ar  201  TYR201      0.0417
    119  CE2       80.1210   30.8610   16.9750 C.ar  201  TYR201      0.0417
    120  CZ        80.4530   31.8730   16.1190 C.ar  201  TYR201      0.1957
    121  OH        81.7890   32.1200   15.8640 O.3   201  TYR201     -0.2866
    122  N         79.6960   26.1340   11.9920 N.3   206  SER206     -0.1217
    123  CA        80.6120   25.3990   12.8510 C.3   206  SER206      0.1889
    124  C         80.5970   23.9610   12.4060 C.2   206  SER206      0.2288
    125  O         79.5180   23.3970   12.1980 O.2   206  SER206     -0.2866
    126  CB        80.2100   25.5090   14.3140 C.3   206  SER206      0.2089
    127  OG        80.3860   26.8730   14.7230 O.3   206  SER206     -0.2183
    128  N         76.0690   30.8300   24.0240 N.3   356  LEU356     -0.1245
    129  CA        77.2650   30.4850   23.2450 C.3   356  LEU356      0.1561
    130  C         78.5350   30.9030   23.9630 C.2   356  LEU356      0.2260
    131  O         79.4830   30.1140   24.0320 O.2   356  LEU356     -0.2867
    132  CB        77.2230   31.1230   21.8620 C.3   356  LEU356      0.0270
    133  CG        78.3330   30.7830   20.8440 C.3   356  LEU356      0.0019
    134  CD1       79.5010   31.7400   20.9260 C.3   356  LEU356      0.0001
    135  CD2       78.8340   29.3410   20.9350 C.3   356  LEU356      0.0001
    136  N         79.1600   28.3920   27.1550 N.3   359  VAL359     -0.1231
    137  CA        79.4590   26.9480   26.9990 C.3   359  VAL359      0.1692
    138  C         80.3290   26.6040   25.8140 C.2   359  VAL359      0.2593
    139  O         80.8640   25.4890   25.7460 O.2   359  VAL359     -0.2718
    140  CB        78.1970   26.0530   26.8540 C.3   359  VAL359      0.0266
    141  CG1       77.2650   26.2620   28.0090 C.3   359  VAL359      0.0020
    142  CG2       77.4630   26.2730   25.5200 C.3   359  VAL359      0.0020
    143  N         80.4380   27.5300   24.8780 N.am  360  GLY360     -0.1942
    144  CA        81.0080   27.2470   23.5580 C.3   360  GLY360      0.2014
    145  C         82.2160   28.0920   23.1890 C.2   360  GLY360      0.2639
    146  O         82.6310   28.1240   22.0220 O.2   360  GLY360     -0.2714
    147  N         82.7980   28.7840   24.1570 N.am  361  GLU361     -0.1963
    148  CA        84.0880   29.4810   23.9110 C.3   361  GLU361      0.1733
    149  C         84.9890   29.2080   25.1120 C.2   361  GLU361      0.2617
    150  O         85.3630   30.1190   25.8780 O.2   361  GLU361     -0.2715
    151  CB        83.8280   30.9700   23.7140 C.3   361  GLU361      0.0429
    152  CG        82.9870   31.3220   22.4800 C.3   361  GLU361      0.1163
    153  CD        83.7590   31.2270   21.1630 C.2   361  GLU361      0.3649
    154  OE1       84.9870   30.9590   21.2180 O.co2 361  GLU361     -0.2457
    155  OE2       83.1490   31.4250   20.0590 O.co2 361  GLU361     -0.2457
    156  N         85.3440   27.9270   25.2750 N.am  362  GLY362     -0.1940
    157  CA        85.7600   27.4130   26.5780 C.3   362  GLY362      0.2014
    158  C         84.5650   27.5500   27.5440 C.2   362  GLY362      0.2639
    159  O         83.7580   28.4860   27.4330 O.2   362  GLY362     -0.2714
    160  N         84.4110   26.6300   28.4850 N.am  363  THR363     -0.1950
    161  CA        83.3040   26.7600   29.4230 C.3   363  THR363      0.1897
    162  C         83.6150   27.6490   30.6320 C.2   363  THR363      0.2313
    163  O         84.7570   27.8280   31.0430 O.2   363  THR363     -0.2863
    164  CB        82.8360   25.3980   29.9720 C.3   363  THR363      0.1794
    165  OG1       83.8080   24.8880   30.8890 O.3   363  THR363     -0.2208
    166  CG2       82.5730   24.4090   28.8370 C.3   363  THR363      0.0378
    167  N         82.9460   26.8340   33.6930 N.3   365  GLU365     -0.1231
    168  CA        83.5060   26.0000   34.7600 C.3   365  GLU365      0.1699
    169  C         85.0390   25.9340   34.6160 C.2   365  GLU365      0.2592
    170  O         85.7770   26.1430   35.5870 O.2   365  GLU365     -0.2718
    171  CB        82.9070   24.5970   34.8040 C.3   365  GLU365      0.0402
    172  CG        81.3910   24.5530   35.0930 C.3   365  GLU365      0.1161
    173  CD        80.5240   25.0280   33.9410 C.2   365  GLU365      0.3649
    174  OE1       80.9320   24.8710   32.7750 O.co2 365  GLU365     -0.2457
    175  OE2       79.4290   25.5970   34.2090 O.co2 365  GLU365     -0.2457
    176  N         85.5210   25.6970   33.4020 N.am  366  ILE366     -0.1980
    177  CA        86.9640   25.6860   33.1880 C.3   366  ILE366      0.1595
    178  C         87.5400   27.0750   33.4860 C.2   366  ILE366      0.2287
    179  O         88.5930   27.1980   34.1010 O.2   366  ILE366     -0.2864
    180  CB        87.3770   25.2500   31.7690 C.3   366  ILE366      0.0276
    181  CG1       86.9680   23.8020   31.5230 C.3   366  ILE366      0.0022
    182  CG2       88.8890   25.4420   31.5690 C.3   366  ILE366      0.0022
    183  CD1       87.5490   22.7980   32.4800 C.3   366  ILE366      0.0001
    184  N         88.0760   27.5800   37.1900 N.3   369  ASN369     -0.1240
    185  CA        89.2470   26.7980   37.6300 C.3   369  ASN369      0.1653
    186  C         90.5360   27.5490   37.3350 C.2   369  ASN369      0.2266
    187  O         91.4620   27.5710   38.1490 O.2   369  ASN369     -0.2867
    188  CB        89.3570   25.4260   36.9260 C.3   369  ASN369      0.1155
    189  CG        88.2740   24.4440   37.3280 C.2   369  ASN369      0.2627
    190  OD1       87.6020   24.5540   38.3970 O.2   369  ASN369     -0.2716
    191  ND2       88.1020   23.4420   36.4720 N.am  369  ASN369     -0.0877
@<TRIPOS>BOND
     1     1     2    1
     2     7     5    1
     3   122   123    1
     4     5     2    1
     5     5     6    1
     6   125   124    2
     7    98    97    2
     8    97    96    1
     9     2     3    1
    10   124   123    1
    11    90    89    2
    12     4     3    2
    13   123   126    1
    14    93    91    1
    15     3     8   am
    16    96    95    1
    17    96    99    1
    18    89    95   am
    19    89    88    1
    20    91    88    1
    21    91    92    1
    22   109   108    1
    23   126   127    1
    24   108   107    1
    25   113   112    2
    26    88    87    1
    27     8     9    1
    28    92    94    1
    29    99   100    1
    30    87    75   am
    31   112   111    1
    32   101   102    1
    33     9    10    1
    34     9    12    1
    35   118   116   ar
    36   118   120   ar
    37    10    11    2
    38   107   106    1
    39   116   115   ar
    40   121   120    1
    41   106   105    1
    42    75    74    1
    43    75    76    2
    44   120   119   ar
    45    73    74    1
    46   104   103    2
    47   105   102    1
    48   111   114    1
    49   111   110    1
    50   102   103    1
    51    74    77    1
    52   115   114    1
    53   115   117   ar
    54    12    13    1
    55    14    13    1
    56    14    15    1
    57   119   117   ar
    58    85    83   ar
    59    85    86   ar
    60    83    80   ar
    61    45    46    1
    62    45    44    1
    63    46    40    1
    64    16    17    1
    65    77    78    1
    66    86    84   ar
    67    27    26    2
    68    80    78   ar
    69    80    82   ar
    70    39    37   ar
    71    44    41    1
    72    78    79   ar
    73    37    38   ar
    74    37    36    1
    75    84    82   ar
    76    82    81   ar
    77    17    18    1
    78    17    20    1
    79    40    41    1
    80    40    33   am
    81    26    31   am
    82    26    25    1
    83    18    24   am
    84    18    19    2
    85    23    21    1
    86    32    33    1
    87    32    35    1
    88    32    31    1
    89    24    25    1
    90    41    42    1
    91    79    81   ar
    92    36    35    1
    93    33    34    2
    94   155   153   ar
    95    25    28    1
    96    28    30    1
    97    28    29    1
    98    21    20    1
    99    21    22    1
   100   133   134    1
   101   133   135    1
   102   133   132    1
   103    42    47   am
   104    42    43    2
   105   153   154   ar
   106   153   152    1
   107    47    48    1
   108   132   129    1
   109   146   145    2
   110   152   151    1
   111    48    49    1
   112   145   144    1
   113   145   147   am
   114   129   130    1
   115   129   128    1
   116    54    53    2
   117   144   143    1
   118    51    49    1
   119    51    52    2
   120   151   148    1
   121   148   147    1
   122   148   149    1
   123    49    50    2
   124   130   131    2
   125    53    55   am
   126    53    52    1
   127    56    55    1
   128    56    57    1
   129   143   138   am
   130   149   156   am
   131   149   150    2
   132   156   157    1
   133    58    57    2
   134    57    59   am
   135   142   140    1
   136   139   138    2
   137   138   137    1
   138    68    67    2
   139   157   158    1
   140    59    60    1
   141   140   137    1
   142   140   141    1
   143    67    66    1
   144   137   136    1
   145   159   158    2
   146   158   160   am
   147    60    61    1
   148    60    63    1
   149    65    61   am
   150    65    66    1
   151    61    62    2
   152    66    69    1
   153   160   161    1
   154    69    70    1
   155   166   164    1
   156    64    63    1
   157    71    70   ar
   158    70    72   ar
   159   161   164    1
   160   161   162    1
   161   164   165    1
   162   162   163    2
   163   181   180    1
   164   181   183    1
   165   182   180    1
   166   180   177    1
   167   174   173   ar
   168   177   176    1
   169   177   178    1
   170   176   169   am
   171   178   179    2
   172   167   168    1
   173   173   175   ar
   174   173   172    1
   175   169   168    1
   176   169   170    2
   177   168   171    1
   178   171   172    1
   179   191   189   am
   180   188   189    1
   181   188   185    1
   182   184   185    1
   183   189   190    2
   184   186   185    1
   185   186   187    2
