@<TRIPOS>MOLECULE
tmp/4iv6B00.pdb
 148 146 0 0 0
SMALL
GASTEIGER

@<TRIPOS>ATOM
      1  N         61.5970   49.6040   24.9340 N.3   262  TYR262     -0.1241
      2  CA        60.2530   49.0450   25.0560 C.3   262  TYR262      0.1605
      3  C         59.5480   49.5250   26.3280 C.2   262  TYR262      0.2264
      4  O         58.3610   49.7740   26.2960 O.2   262  TYR262     -0.2867
      5  CB        60.2810   47.5170   25.0650 C.3   262  TYR262      0.0534
      6  CG        58.9240   46.8970   24.9170 C.ar  262  TYR262     -0.0201
      7  CD1       58.2570   46.9020   23.6840 C.ar  262  TYR262     -0.0009
      8  CD2       58.2970   46.2970   26.0010 C.ar  262  TYR262     -0.0009
      9  CE1       56.9840   46.3270   23.5370 C.ar  262  TYR262      0.0417
     10  CE2       57.0420   45.7100   25.8750 C.ar  262  TYR262      0.0417
     11  CZ        56.3760   45.7340   24.6500 C.ar  262  TYR262      0.1957
     12  OH        55.1320   45.1250   24.5570 O.3   262  TYR262     -0.2866
     13  N         55.6770   50.8060   25.8730 N.3   266  ARG266     -0.1231
     14  CA        54.5670   50.0380   26.3830 C.3   266  ARG266      0.1694
     15  C         54.0900   50.6370   27.6980 C.2   266  ARG266      0.2592
     16  O         54.9230   50.9530   28.5740 O.2   266  ARG266     -0.2718
     17  CB        55.0270   48.5950   26.6260 C.3   266  ARG266      0.0321
     18  CG        53.9560   47.6430   27.1210 C.3   266  ARG266      0.0489
     19  CD        52.8200   47.4550   26.1220 C.3   266  ARG266      0.2205
     20  NE        52.0930   46.2150   26.3730 N.pl3 266  ARG266     -0.0865
     21  CZ        51.2010   45.6840   25.5440 C.cat 266  ARG266      0.5346
     22  NH1       50.8730   46.2840   24.4090 N.pl3 266  ARG266      0.1354
     23  NH2       50.6310   44.5370   25.8470 N.pl3 266  ARG266      0.1354
     24  N         52.7570   50.7400   27.8360 N.am  267  GLU267     -0.1966
     25  CA        52.1200   51.2580   29.0420 C.3   267  GLU267      0.1733
     26  C         51.1630   50.2110   29.6080 C.2   267  GLU267      0.2617
     27  O         50.6440   49.3670   28.8750 O.2   267  GLU267     -0.2715
     28  CB        51.3870   52.5820   28.7810 C.3   267  GLU267      0.0429
     29  CG        52.2870   53.6810   28.2320 C.3   267  GLU267      0.1163
     30  CD        51.7140   55.0830   28.3650 C.2   267  GLU267      0.3649
     31  OE1       50.6190   55.2500   28.9400 O.co2 267  GLU267     -0.2457
     32  OE2       52.3830   56.0370   27.9080 O.co2 267  GLU267     -0.2457
     33  N         50.9690   50.2450   30.9160 N.am  268  SER268     -0.1936
     34  CA        49.9740   49.4360   31.5820 C.3   268  SER268      0.2055
     35  C         49.5350   50.1530   32.8430 C.2   268  SER268      0.2643
     36  O         50.3300   50.8470   33.4890 O.2   268  SER268     -0.2714
     37  CB        50.5120   48.0410   31.9450 C.3   268  SER268      0.2130
     38  OG        51.4240   48.0670   33.0080 O.3   268  SER268     -0.2179
     39  N         48.2580   50.0030   33.1610 N.am  269  PHE269     -0.1973
     40  CA        47.6700   50.5870   34.3790 C.3   269  PHE269      0.1639
     41  C         47.8990   52.0810   34.4070 C.2   269  PHE269      0.2290
     42  O         48.1350   52.6350   35.4400 O.2   269  PHE269     -0.2864
     43  CB        48.2120   49.9060   35.6440 C.3   269  PHE269      0.0560
     44  CG        47.9400   48.4400   35.6750 C.ar  269  PHE269     -0.0200
     45  CD1       48.8140   47.5450   35.0900 C.ar  269  PHE269     -0.0042
     46  CD2       46.7590   47.9570   36.2230 C.ar  269  PHE269     -0.0042
     47  CE1       48.5550   46.1910   35.1090 C.ar  269  PHE269     -0.0003
     48  CE2       46.4800   46.6010   36.2310 C.ar  269  PHE269     -0.0003
     49  CZ        47.3780   45.7140   35.6870 C.ar  269  PHE269     -0.0000
     50  N         55.6870   51.2890   31.4360 N.3   273  ILE273     -0.1245
     51  CA        55.9260   50.1740   32.3210 C.3   273  ILE273      0.1561
     52  C         57.1740   50.3090   33.1610 C.2   273  ILE273      0.2260
     53  O         57.2220   49.7000   34.2340 O.2   273  ILE273     -0.2867
     54  CB        55.8990   48.8010   31.6070 C.3   273  ILE273      0.0252
     55  CG1       56.9260   48.7200   30.4760 C.3   273  ILE273      0.0019
     56  CG2       54.5030   48.4830   31.1320 C.3   273  ILE273      0.0019
     57  CD1       57.1240   47.3060   29.9460 C.3   273  ILE273      0.0001
     58  N         56.5400   51.0640   36.7770 N.3   276  HIS276     -0.1241
     59  CA        56.2660   49.9950   37.7800 C.3   276  HIS276      0.1621
     60  C         57.6350   49.5240   38.2980 C.2   276  HIS276      0.2264
     61  O         58.5180   49.1520   37.4960 O.2   276  HIS276     -0.2867
     62  CB        55.5060   48.8110   37.1960 C.3   276  HIS276      0.0745
     63  CG        54.2370   49.1900   36.5210 C.ar  276  HIS276      0.0817
     64  ND1       53.2490   49.9050   37.1550 N.ar  276  HIS276     -0.2268
     65  CD2       53.8080   48.9830   35.2590 C.ar  276  HIS276      0.1154
     66  CE1       52.2700   50.1330   36.3050 C.ar  276  HIS276      0.1986
     67  NE2       52.5720   49.5590   35.1570 N.ar  276  HIS276     -0.2212
     68  N         58.7360   46.8830   39.6160 N.3   278  SER278     -0.1202
     69  CA        59.1970   45.5530   39.2100 C.3   278  SER278      0.2020
     70  C         59.9680   45.6140   37.8950 C.2   278  SER278      0.2618
     71  O         60.9750   44.9270   37.7210 O.2   278  SER278     -0.2717
     72  CB        58.0240   44.5860   39.0700 C.3   278  SER278      0.2103
     73  OG        57.2610   44.5350   40.2600 O.3   278  SER278     -0.2182
     74  N         59.5240   46.4800   36.9830 N.am  279  VAL279     -0.1979
     75  CA        60.2200   46.6630   35.7130 C.3   279  VAL279      0.1595
     76  C         61.4100   47.5950   35.8050 C.2   279  VAL279      0.2287
     77  O         62.4850   47.3080   35.2840 O.2   279  VAL279     -0.2864
     78  CB        59.2530   47.1570   34.6400 C.3   279  VAL279      0.0276
     79  CG1       59.9890   47.4020   33.3230 C.3   279  VAL279      0.0022
     80  CG2       58.1500   46.1280   34.4820 C.3   279  VAL279      0.0022
     81  N         64.4010   45.8990   37.2820 N.3   282  MET282     -0.1245
     82  CA        65.1200   45.0580   36.3230 C.3   282  MET282      0.1570
     83  C         66.0150   45.9390   35.4610 C.2   282  MET282      0.2261
     84  O         67.1650   45.6070   35.2350 O.2   282  MET282     -0.2867
     85  CB        64.1810   44.2370   35.4310 C.3   282  MET282      0.0387
     86  CG        63.6290   42.9950   36.0940 C.3   282  MET282      0.0595
     87  SD        62.6900   41.9650   34.9120 S.3   282  MET282     -0.1393
     88  CE        61.2210   42.9140   34.5880 C.3   282  MET282      0.0692
     89  N         61.7700   39.2640   29.7130 N.3   334  ARG334     -0.1231
     90  CA        60.7490   39.4740   30.7550 C.3   334  ARG334      0.1694
     91  C         60.1000   40.8520   30.5570 C.2   334  ARG334      0.2592
     92  O         58.8850   41.0120   30.6580 O.2   334  ARG334     -0.2718
     93  CB        61.3440   39.4390   32.1720 C.3   334  ARG334      0.0321
     94  CG        61.9230   38.1090   32.6470 C.3   334  ARG334      0.0489
     95  CD        62.5480   38.3320   34.0170 C.3   334  ARG334      0.2205
     96  NE        63.3490   37.2520   34.5800 N.pl3 334  ARG334     -0.0865
     97  CZ        62.8620   36.2130   35.2420 C.cat 334  ARG334      0.5346
     98  NH1       61.5450   36.0550   35.3980 N.pl3 334  ARG334      0.1354
     99  NH2       63.6940   35.3510   35.8020 N.pl3 334  ARG334      0.1354
    100  N         60.9290   41.8420   30.2800 N.am  335  VAL335     -0.1966
    101  CA        60.4550   43.2170   30.0870 C.3   335  VAL335      0.1727
    102  C         59.4360   43.3250   28.9660 C.2   335  VAL335      0.2616
    103  O         58.5410   44.1610   29.0390 O.2   335  VAL335     -0.2715
    104  CB        61.6370   44.2020   29.8990 C.3   335  VAL335      0.0290
    105  CG1       61.1840   45.5610   29.4080 C.3   335  VAL335      0.0023
    106  CG2       62.3630   44.3820   31.2400 C.3   335  VAL335      0.0023
    107  N         59.5710   42.4900   27.9370 N.am  336  HIS336     -0.1959
    108  CA        58.6610   42.4920   26.7930 C.3   336  HIS336      0.1787
    109  C         57.3500   41.7010   27.0310 C.2   336  HIS336      0.2621
    110  O         56.4460   41.6800   26.1750 O.2   336  HIS336     -0.2715
    111  CB        59.3790   41.9640   25.5410 C.3   336  HIS336      0.0785
    112  CG        60.3060   42.9540   24.9090 C.ar  336  HIS336      0.0821
    113  ND1       61.5430   43.2590   25.4350 N.ar  336  HIS336     -0.2267
    114  CD2       60.1590   43.7380   23.8130 C.ar  336  HIS336      0.1154
    115  CE1       62.1230   44.1810   24.6880 C.ar  336  HIS336      0.1986
    116  NE2       61.3060   44.4800   23.6930 N.ar  336  HIS336     -0.2212
    117  N         57.2170   41.0640   28.1780 N.am  337  GLY337     -0.1940
    118  CA        56.0540   40.2420   28.4250 C.3   337  GLY337      0.2014
    119  C         55.9340   39.1770   27.3380 C.2   337  GLY337      0.2639
    120  O         56.9340   38.6070   26.9110 O.2   337  GLY337     -0.2714
    121  N         54.7140   38.9360   26.8640 N.am  338  GLY338     -0.1939
    122  CA        54.4900   37.8860   25.8720 C.3   338  GLY338      0.2014
    123  C         55.2740   38.0960   24.5970 C.2   338  GLY338      0.2638
    124  O         55.7230   37.1490   23.9660 O.2   338  GLY338     -0.2714
    125  N         55.4360   39.3500   24.2050 N.am  339  TYR339     -0.1973
    126  CA        56.1460   39.6730   22.9800 C.3   339  TYR339      0.1639
    127  C         57.6300   39.3030   23.0460 C.2   339  TYR339      0.2290
    128  O         58.3070   39.1510   22.0090 O.2   339  TYR339     -0.2864
    129  CB        55.9740   41.1600   22.6310 C.3   339  TYR339      0.0560
    130  CG        54.5330   41.4860   22.4530 C.ar  339  TYR339     -0.0198
    131  CD1       53.8640   41.1620   21.2830 C.ar  339  TYR339     -0.0009
    132  CD2       53.8090   42.0490   23.4850 C.ar  339  TYR339     -0.0009
    133  CE1       52.5130   41.4270   21.1390 C.ar  339  TYR339      0.0417
    134  CE2       52.4600   42.3070   23.3580 C.ar  339  TYR339      0.0417
    135  CZ        51.8200   42.0020   22.1910 C.ar  339  TYR339      0.1957
    136  OH        50.4700   42.2500   22.0950 O.3   339  TYR339     -0.2866
    137  N         58.6160   36.5010   23.7210 N.3   341  TYR341     -0.1241
    138  CA        58.5920   35.1410   23.2010 C.3   341  TYR341      0.1605
    139  C         58.4260   35.0980   21.6620 C.2   341  TYR341      0.2264
    140  O         58.5320   34.0420   21.0520 O.2   341  TYR341     -0.2867
    141  CB        57.4840   34.3320   23.9210 C.3   341  TYR341      0.0534
    142  CG        57.7850   32.8530   24.0760 C.ar  341  TYR341     -0.0201
    143  CD1       58.8940   32.4180   24.8130 C.ar  341  TYR341     -0.0009
    144  CD2       56.9950   31.8790   23.4720 C.ar  341  TYR341     -0.0009
    145  CE1       59.1800   31.0550   24.9670 C.ar  341  TYR341      0.0417
    146  CE2       57.2980   30.5200   23.6100 C.ar  341  TYR341      0.0417
    147  CZ        58.4100   30.1170   24.3530 C.ar  341  TYR341      0.1957
    148  OH        58.7240   28.7720   24.5000 O.3   341  TYR341     -0.2866
@<TRIPOS>BOND
     1   140   139    2
     2   133   131   ar
     3   133   135   ar
     4   131   130   ar
     5   139   138    1
     6   128   127    2
     7   136   135    1
     8   135   134   ar
     9   130   129    1
    10   130   132   ar
    11   129   126    1
    12   126   127    1
    13   126   125    1
    14   138   137    1
    15   138   141    1
    16   134   132   ar
    17   144   146   ar
    18   144   142   ar
    19     9     7   ar
    20     9    11   ar
    21   146   147   ar
    22     7     6   ar
    23   116   114   ar
    24   116   115   ar
    25   114   112   ar
    26   141   142    1
    27   124   123    2
    28   142   143   ar
    29   125   123   am
    30   147   148    1
    31   147   145   ar
    32    22    21    1
    33    12    11    1
    34   123   122    1
    35    11    10   ar
    36   115   113   ar
    37   143   145   ar
    38   112   113   ar
    39   112   111    1
    40     6     5    1
    41     6     8   ar
    42     1     2    1
    43     2     5    1
    44     2     3    1
    45   111   108    1
    46    21    23    1
    47    21    20    2
    48   122   121    1
    49    13    14    1
    50    10     8   ar
    51    19    20    1
    52    19    18    1
    53   110   109    2
    54     4     3    2
    55    14    17    1
    56    14    15    1
    57    17    18    1
    58   108   109    1
    59   108   107    1
    60   121   119   am
    61   120   119    2
    62   109   117   am
    63   119   118    1
    64    15    24   am
    65    15    16    2
    66    24    25    1
    67    32    30   ar
    68   107   102   am
    69   117   118    1
    70    29    30    1
    71    29    28    1
    72    30    31   ar
    73    28    25    1
    74    27    26    2
    75   102   103    2
    76   102   101    1
    77    25    26    1
    78   105   104    1
    79    26    33   am
    80    89    90    1
    81   104   101    1
    82   104   106    1
    83    57    55    1
    84   101   100    1
    85   100    91   am
    86    55    54    1
    87    91    92    2
    88    91    90    1
    89    90    93    1
    90    33    34    1
    91    56    54    1
    92    50    51    1
    93    34    37    1
    94    34    35    1
    95    54    51    1
    96    37    38    1
    97    93    94    1
    98    51    52    1
    99    94    95    1
   100    35    39   am
   101    35    36    2
   102    52    53    2
   103    39    40    1
   104    79    78    1
   105    95    96    1
   106    40    41    1
   107    40    43    1
   108    41    42    2
   109    80    78    1
   110    96    97    2
   111    88    87    1
   112    78    75    1
   113    87    86    1
   114    45    47   ar
   115    45    44   ar
   116    47    49   ar
   117    67    65   ar
   118    67    66   ar
   119    84    83    2
   120    97    98    1
   121    97    99    1
   122    65    63   ar
   123    77    76    2
   124    85    86    1
   125    85    82    1
   126    83    82    1
   127    43    44    1
   128    44    46   ar
   129    49    48   ar
   130    75    76    1
   131    75    74    1
   132    46    48   ar
   133    66    64   ar
   134    82    81    1
   135    63    64   ar
   136    63    62    1
   137    58    59    1
   138    74    70   am
   139    62    59    1
   140    61    60    2
   141    71    70    2
   142    59    60    1
   143    70    69    1
   144    72    69    1
   145    72    73    1
   146    69    68    1
