@<TRIPOS>MOLECULE
tmp/4iv9B01.pdb
 127 122 0 0 0
SMALL
GASTEIGER

@<TRIPOS>ATOM
      1  N        124.7550   27.5590 -113.1570 N.3    93  ARG93      -0.1245
      2  CA       123.5750   27.1980 -113.9480 C.3    93  ARG93       0.1563
      3  C        122.9450   28.4600 -114.5010 C.2    93  ARG93       0.2260
      4  O        122.7160   29.4070 -113.7620 O.2    93  ARG93      -0.2867
      5  CB       122.5380   26.4760 -113.0690 C.3    93  ARG93       0.0307
      6  CG       123.0200   25.1900 -112.4310 C.3    93  ARG93       0.0489
      7  CD       121.9740   24.6450 -111.4380 C.3    93  ARG93       0.2205
      8  NE       121.3170   25.7390 -110.7350 N.pl3  93  ARG93      -0.0865
      9  CZ       120.0060   25.8330 -110.5190 C.cat  93  ARG93       0.5346
     10  NH1      119.1930   24.8600 -110.9230 N.pl3  93  ARG93       0.1354
     11  NH2      119.5090   26.8960 -109.8740 N.pl3  93  ARG93       0.1354
     12  N        116.1510   23.1210 -108.3900 N.3   236  SER236     -0.1217
     13  CA       117.5640   23.4100 -108.1650 C.3   236  SER236      0.1889
     14  C        118.1330   22.5560 -107.0380 C.2   236  SER236      0.2288
     15  O        119.2100   22.8540 -106.5170 O.2   236  SER236     -0.2866
     16  CB       117.7480   24.8920 -107.7970 C.3   236  SER236      0.2089
     17  OG       117.4160   25.7580 -108.8750 O.3   236  SER236     -0.2183
     18  N        115.8020   22.4500 -101.0830 N.3   239  PHE239     -0.1241
     19  CA       115.6990   23.8340 -100.5930 C.3   239  PHE239      0.1605
     20  C        115.4710   23.9590  -99.0780 C.2   239  PHE239      0.2264
     21  O        115.1560   25.0500  -98.5810 O.2   239  PHE239     -0.2867
     22  CB       114.5960   24.5790 -101.3330 C.3   239  PHE239      0.0534
     23  CG       115.0870   25.3660 -102.5110 C.ar  239  PHE239     -0.0203
     24  CD1      114.2760   26.3040 -103.1240 C.ar  239  PHE239     -0.0042
     25  CD2      116.3620   25.1640 -103.0080 C.ar  239  PHE239     -0.0042
     26  CE1      114.7310   27.0340 -104.2160 C.ar  239  PHE239     -0.0003
     27  CE2      116.8240   25.8900 -104.1030 C.ar  239  PHE239     -0.0003
     28  CZ       116.0080   26.8300 -104.6990 C.ar  239  PHE239     -0.0000
     29  N        117.1700   26.8720  -97.2760 N.3   242  VAL242     -0.1245
     30  CA       116.6130   28.2050  -97.5510 C.3   242  VAL242      0.1561
     31  C        115.1200   28.3110  -97.2000 C.2   242  VAL242      0.2260
     32  O        114.4120   29.1650  -97.7270 O.2   242  VAL242     -0.2867
     33  CB       116.8590   28.6790  -99.0160 C.3   242  VAL242      0.0252
     34  CG1      118.3650   28.7590  -99.3240 C.3   242  VAL242      0.0019
     35  CG2      116.1220   27.7830 -100.0250 C.3   242  VAL242      0.0019
     36  N        111.4910   33.3470 -103.4060 N.3   250  ILE250     -0.1245
     37  CA       111.3180   32.0880 -104.1160 C.3   250  ILE250      0.1561
     38  C        110.4170   32.2830 -105.3300 C.2   250  ILE250      0.2260
     39  O        110.7770   31.9300 -106.4500 O.2   250  ILE250     -0.2867
     40  CB       110.6990   31.0190 -103.1970 C.3   250  ILE250      0.0252
     41  CG1      111.3580   31.0400 -101.8170 C.3   250  ILE250      0.0019
     42  CG2      110.8260   29.6400 -103.8210 C.3   250  ILE250      0.0019
     43  CD1      112.7830   30.5090 -101.8030 C.3   250  ILE250      0.0001
     44  N        111.8930   34.1930 -108.3730 N.3   253  MET253     -0.1245
     45  CA       112.7670   33.3190 -109.1590 C.3   253  MET253      0.1570
     46  C        111.9450   32.4910 -110.1270 C.2   253  MET253      0.2261
     47  O        112.3240   32.3080 -111.2810 O.2   253  MET253     -0.2867
     48  CB       113.5590   32.3530 -108.2730 C.3   253  MET253      0.0387
     49  CG       114.7570   32.9420 -107.5670 C.3   253  MET253      0.0595
     50  SD       115.8090   31.6190 -106.8980 S.3   253  MET253     -0.1393
     51  CE       114.7020   30.9210 -105.6720 C.3   253  MET253      0.0692
     52  N        114.1570   29.2590 -112.5000 N.3   259  GLN259     -0.1245
     53  CA       114.1300   27.8260 -112.2050 C.3   259  GLN259      0.1566
     54  C        113.7670   26.9940 -113.4500 C.2   259  GLN259      0.2260
     55  O        113.3540   25.8300 -113.3460 O.2   259  GLN259     -0.2867
     56  CB       113.1440   27.5400 -111.0660 C.3   259  GLN259      0.0367
     57  CG       113.5400   28.1380 -109.7110 C.3   259  GLN259      0.0905
     58  CD       114.8590   27.5830 -109.1890 C.2   259  GLN259      0.2608
     59  OE1      115.0870   26.3690 -109.2230 O.2   259  GLN259     -0.2717
     60  NE2      115.7360   28.4730 -108.7020 N.am  259  GLN259     -0.0878
     61  N        127.6030   20.4410 -102.6100 N.3   408  TYR408     -0.1241
     62  CA       127.2000   21.8260 -102.8340 C.3   408  TYR408      0.1605
     63  C        126.1330   22.1300 -101.8000 C.2   408  TYR408      0.2264
     64  O        125.0450   21.5300 -101.8350 O.2   408  TYR408     -0.2867
     65  CB       126.6130   21.9760 -104.2320 C.3   408  TYR408      0.0534
     66  CG       126.0540   23.3400 -104.5780 C.ar  408  TYR408     -0.0201
     67  CD1      126.4390   24.4840 -103.8890 C.ar  408  TYR408     -0.0009
     68  CD2      125.1450   23.4800 -105.6200 C.ar  408  TYR408     -0.0009
     69  CE1      125.9200   25.7360 -104.2280 C.ar  408  TYR408      0.0417
     70  CE2      124.6230   24.7200 -105.9620 C.ar  408  TYR408      0.0417
     71  CZ       125.0150   25.8350 -105.2640 C.ar  408  TYR408      0.1957
     72  OH       124.5000   27.0480 -105.6160 O.3   408  TYR408     -0.2866
     73  N        124.0810   25.0200  -98.9340 N.3   410  TRP410     -0.1241
     74  CA       123.6850   26.3860  -98.6090 C.3   410  TRP410      0.1605
     75  C        123.4950   26.5690  -97.1080 C.2   410  TRP410      0.2264
     76  O        123.1430   25.6230  -96.3820 O.2   410  TRP410     -0.2867
     77  CB       122.3810   26.7690  -99.3270 C.3   410  TRP410      0.0550
     78  CG       122.4850   26.7590 -100.8260 C.ar  410  TRP410      0.0003
     79  CD1      123.3540   27.4800 -101.5890 C.ar  410  TRP410      0.0946
     80  CD2      121.6900   25.9900 -101.7350 C.ar  410  TRP410      0.0152
     81  NE1      123.1530   27.2010 -102.9190 N.ar  410  TRP410     -0.2442
     82  CE2      122.1330   26.2900 -103.0350 C.ar  410  TRP410      0.0810
     83  CE3      120.6460   25.0690 -101.5770 C.ar  410  TRP410      0.0012
     84  CZ2      121.5740   25.7090 -104.1740 C.ar  410  TRP410      0.0191
     85  CZ3      120.0890   24.4910 -102.7110 C.ar  410  TRP410      0.0001
     86  CH2      120.5560   24.8150 -103.9920 C.ar  410  TRP410      0.0015
     87  N        125.6690   34.7990 -101.7100 N.3   471  PHE471     -0.1241
     88  CA       124.7880   35.6780 -102.4660 C.3   471  PHE471      0.1605
     89  C        123.6640   36.1990 -101.5920 C.2   471  PHE471      0.2264
     90  O        123.3410   35.6110 -100.5540 O.2   471  PHE471     -0.2867
     91  CB       124.2210   34.9530 -103.6780 C.3   471  PHE471      0.0534
     92  CG       123.6230   33.5830 -103.3730 C.ar  471  PHE471     -0.0203
     93  CD1      122.2880   33.4520 -103.0160 C.ar  471  PHE471     -0.0042
     94  CD2      124.3930   32.4300 -103.4950 C.ar  471  PHE471     -0.0042
     95  CE1      121.7370   32.1980 -102.7580 C.ar  471  PHE471     -0.0003
     96  CE2      123.8500   31.1690 -103.2390 C.ar  471  PHE471     -0.0003
     97  CZ       122.5210   31.0540 -102.8740 C.ar  471  PHE471     -0.0000
     98  N        119.9560   36.8810 -100.2940 N.3   473  LEU473     -0.1245
     99  CA       118.6540   36.2350 -100.2830 C.3   473  LEU473      0.1561
    100  C        117.8880   36.8550  -99.1170 C.2   473  LEU473      0.2260
    101  O        118.1930   36.5690  -97.9550 O.2   473  LEU473     -0.2867
    102  CB       118.8190   34.7370 -100.0340 C.3   473  LEU473      0.0270
    103  CG       118.1090   33.6730 -100.8790 C.3   473  LEU473      0.0019
    104  CD1      117.8420   32.4150 -100.0250 C.3   473  LEU473      0.0001
    105  CD2      116.8500   34.1620 -101.5510 C.3   473  LEU473      0.0001
    106  N        119.5590   38.5760 -106.4540 N.3   512  GLY512     -0.1210
    107  CA       120.7550   38.1870 -105.7230 C.3   512  GLY512      0.1956
    108  C        121.1240   36.7480 -106.0450 C.2   512  GLY512      0.2612
    109  O        120.2550   35.8940 -106.1070 O.2   512  GLY512     -0.2717
    110  N        122.4030   36.4790 -106.2870 N.am  513  GLY513     -0.1942
    111  CA       122.8240   35.1280 -106.6330 C.3   513  GLY513      0.2014
    112  C        122.5800   34.6900 -108.0660 C.2   513  GLY513      0.2638
    113  O        122.6570   33.5000 -108.3690 O.2   513  GLY513     -0.2714
    114  N        122.2870   35.6540 -108.9330 N.am  514  TRP514     -0.1973
    115  CA       122.1430   35.4360 -110.3730 C.3   514  TRP514      0.1640
    116  C        122.9390   36.5110 -111.1040 C.2   514  TRP514      0.2290
    117  O        122.8040   37.6910 -110.7930 O.2   514  TRP514     -0.2864
    118  CB       120.6790   35.5740 -110.7890 C.3   514  TRP514      0.0576
    119  CG       119.7690   34.6230 -110.1130 C.ar  514  TRP514      0.0006
    120  CD1      118.9990   34.8600 -109.0160 C.ar  514  TRP514      0.0946
    121  CD2      119.5360   33.2680 -110.4850 C.ar  514  TRP514      0.0152
    122  NE1      118.2960   33.7340 -108.6780 N.ar  514  TRP514     -0.2442
    123  CE2      118.6110   32.7340 -109.5730 C.ar  514  TRP514      0.0810
    124  CE3      120.0220   32.4460 -111.5090 C.ar  514  TRP514      0.0012
    125  CZ2      118.1630   31.4180 -109.6450 C.ar  514  TRP514      0.0191
    126  CZ3      119.5830   31.1420 -111.5780 C.ar  514  TRP514      0.0001
    127  CH2      118.6630   30.6420 -110.6560 C.ar  514  TRP514      0.0015
@<TRIPOS>BOND
     1     3     2    1
     2     3     4    2
     3     2     1    1
     4     2     5    1
     5    54    55    2
     6    54    53    1
     7     5     6    1
     8    52    53    1
     9     6     7    1
    10    53    56    1
    11   126   124   ar
    12   126   127   ar
    13   124   121   ar
    14     7     8    1
    15    47    46    2
    16   116   117    2
    17   116   115    1
    18    56    57    1
    19    10     9    1
    20   118   115    1
    21   118   119    1
    22     8     9    2
    23   127   125   ar
    24     9    11    1
    25   121   119   ar
    26   121   123   ar
    27   115   114    1
    28    46    45    1
    29   119   120   ar
    30    57    58    1
    31   125   123   ar
    32   123   122   ar
    33    59    58    2
    34    58    60   am
    35    45    44    1
    36    45    48    1
    37   120   122   ar
    38   114   112   am
    39    17    16    1
    40    12    13    1
    41   113   112    2
    42    48    49    1
    43    13    16    1
    44    13    14    1
    45   112   111    1
    46    49    50    1
    47    14    15    2
    48    50    51    1
    49   111   110    1
    50   106   107    1
    51    39    38    2
    52   110   108   am
    53   109   108    2
    54   108   107    1
    55    70    68   ar
    56    70    71   ar
    57    68    66   ar
    58    72    71    1
    59    38    37    1
    60    71    69   ar
    61    28    26   ar
    62    28    27   ar
    63    66    65    1
    64    66    67   ar
    65    65    62    1
    66    69    67   ar
    67    26    24   ar
    68    84    86   ar
    69    84    82   ar
    70    37    36    1
    71    37    40    1
    72    27    25   ar
    73    86    85   ar
    74    42    40    1
    75    91    92    1
    76    91    88    1
    77    94    92   ar
    78    94    96   ar
    79    92    93   ar
    80    96    97   ar
    81    40    41    1
    82    24    23   ar
    83    82    81   ar
    84    82    80   ar
    85    93    95   ar
    86    25    23   ar
    87    81    79   ar
    88    97    95   ar
    89    62    61    1
    90    62    63    1
    91    85    83   ar
    92    23    22    1
    93    88    87    1
    94    88    89    1
    95    64    63    2
    96    41    43    1
    97    80    83   ar
    98    80    78   ar
    99    89    90    2
   100    79    78   ar
   101   105   103    1
   102    22    19    1
   103    18    19    1
   104   103   102    1
   105   103   104    1
   106    78    77    1
   107    19    20    1
   108    98    99    1
   109    99   102    1
   110    99   100    1
   111    35    33    1
   112    77    74    1
   113    34    33    1
   114   100   101    2
   115    20    21    2
   116    33    30    1
   117    73    74    1
   118    74    75    1
   119    32    31    2
   120    30    29    1
   121    30    31    1
   122    75    76    2
