@<TRIPOS>MOLECULE
tmp/4ivaA00.pdb
 155 145 0 0 0
SMALL
GASTEIGER

@<TRIPOS>ATOM
      1  N        -19.5880  -10.5000   -6.3580 N.3    15  LEU15      -0.1231
      2  CA       -19.1450  -10.6520   -7.7490 C.3    15  LEU15       0.1693
      3  C        -18.3360  -11.9200   -7.9300 C.2    15  LEU15       0.2593
      4  O        -18.6540  -12.7460   -8.7900 O.2    15  LEU15      -0.2718
      5  CB       -18.3590   -9.4320   -8.2220 C.3    15  LEU15       0.0284
      6  CG       -19.2200   -8.1840   -8.3940 C.3    15  LEU15       0.0019
      7  CD1      -18.3730   -6.9680   -8.7460 C.3    15  LEU15       0.0001
      8  CD2      -20.2950   -8.4160   -9.4570 C.3    15  LEU15       0.0001
      9  N        -17.3130  -12.0990   -7.1150 N.am   16  GLY16      -0.1942
     10  CA       -16.4880  -13.2830   -7.2330 C.3    16  GLY16       0.2014
     11  C        -15.3330  -13.3070   -6.2630 C.2    16  GLY16       0.2639
     12  O        -15.0480  -12.3190   -5.5880 O.2    16  GLY16      -0.2714
     13  N        -14.6690  -14.4560   -6.2100 N.am   17  LYS17      -0.1963
     14  CA       -13.5110  -14.6530   -5.3570 C.3    17  LYS17       0.1728
     15  C        -12.3820  -15.2680   -6.1730 C.2    17  LYS17       0.2617
     16  O        -12.6140  -15.8910   -7.2110 O.2    17  LYS17      -0.2715
     17  CB       -13.8650  -15.5430   -4.1630 C.3    17  LYS17       0.0311
     18  CG       -14.3060  -16.9520   -4.5280 C.3    17  LYS17       0.0038
     19  CD       -14.6590  -17.7590   -3.2920 C.3    17  LYS17       0.0206
     20  CE       -15.0530  -19.1810   -3.6520 C.3    17  LYS17       0.1093
     21  NZ       -15.3390  -20.0030   -2.4430 N.3    17  LYS17      -0.1314
     22  N        -11.1600  -15.0700   -5.7060 N.am   18  GLY18      -0.1940
     23  CA       -10.0010  -15.6890   -6.3260 C.3    18  GLY18       0.2014
     24  C         -8.8130  -15.5160   -5.4140 C.2    18  GLY18       0.2638
     25  O         -8.6460  -14.4570   -4.8020 O.2    18  GLY18      -0.2714
     26  N         -7.9910  -16.5550   -5.3100 N.am   19  ASN19      -0.1972
     27  CA        -6.8310  -16.5190   -4.4290 C.3    19  ASN19       0.1688
     28  C         -7.3330  -16.2890   -2.9870 C.2    19  ASN19       0.2292
     29  O         -8.1940  -17.0510   -2.5390 O.2    19  ASN19      -0.2864
     30  CB        -5.8140  -15.4920   -4.9570 C.3    19  ASN19       0.1181
     31  CG        -5.4810  -15.7250   -6.4290 C.2    19  ASN19       0.2629
     32  OD1       -4.9370  -16.7720   -6.7930 O.2    19  ASN19      -0.2716
     33  ND2       -5.8340  -14.7660   -7.2850 N.am   19  ASN19      -0.0877
     34  N        -14.4010  -10.0390   -4.1760 N.3    23  VAL23      -0.1245
     35  CA       -14.8400   -8.7980   -4.7890 C.3    23  VAL23       0.1561
     36  C        -16.3610   -8.7290   -4.7300 C.2    23  VAL23       0.2260
     37  O        -17.0550   -9.6980   -5.0780 O.2    23  VAL23      -0.2867
     38  CB       -14.3600   -8.6910   -6.2520 C.3    23  VAL23       0.0252
     39  CG1      -14.7560   -7.3480   -6.8560 C.3    23  VAL23       0.0019
     40  CG2      -12.8520   -8.8940   -6.3270 C.3    23  VAL23       0.0019
     41  N        -16.7410   -1.7590   -7.6490 N.3    40  ALA40      -0.1245
     42  CA       -16.3160   -3.0980   -7.2440 C.3    40  ALA40       0.1562
     43  C        -15.3340   -2.9690   -6.0820 C.2    40  ALA40       0.2260
     44  O        -14.3870   -2.1950   -6.1460 O.2    40  ALA40      -0.2867
     45  CB       -15.6580   -3.8230   -8.4120 C.3    40  ALA40       0.0290
     46  N        -12.7700   -4.9360   -3.4220 N.3    42  LYS42      -0.1245
     47  CA       -12.0170   -6.1290   -3.0480 C.3    42  LYS42       0.1561
     48  C        -11.6280   -6.0690   -1.5800 C.2    42  LYS42       0.2260
     49  O        -11.1550   -5.0340   -1.0940 O.2    42  LYS42      -0.2867
     50  CB       -10.7670   -6.3320   -3.9300 C.3    42  LYS42       0.0271
     51  CG        -9.9550   -7.5660   -3.5410 C.3    42  LYS42       0.0035
     52  CD        -8.7350   -7.7840   -4.4350 C.3    42  LYS42       0.0206
     53  CE        -8.9590   -8.8540   -5.4850 C.3    42  LYS42       0.1093
     54  NZ        -7.6880   -9.3250   -6.1290 N.3    42  LYS42      -0.1314
     55  N         -8.5020   -2.6120  -15.8360 N.3    71  VAL71      -0.1245
     56  CA        -9.5780   -2.1190  -14.9670 C.3    71  VAL71       0.1561
     57  C         -9.0880   -0.9210  -14.1410 C.2    71  VAL71       0.2260
     58  O         -7.9600   -0.9160  -13.6670 O.2    71  VAL71      -0.2867
     59  CB       -10.1200   -3.2420  -14.0590 C.3    71  VAL71       0.0252
     60  CG1       -9.0900   -3.6670  -13.0130 C.3    71  VAL71       0.0019
     61  CG2      -11.4280   -2.8210  -13.3900 C.3    71  VAL71       0.0019
     62  N        -12.4040   -0.4360   -7.1090 N.3    89  MET89      -0.1230
     63  CA       -12.1600   -0.4780   -8.5490 C.3    89  MET89       0.1702
     64  C        -13.4240   -0.0900   -9.2780 C.2    89  MET89       0.2592
     65  O        -14.5230   -0.1200   -8.7150 O.2    89  MET89      -0.2718
     66  CB       -11.7900   -1.9020   -8.9670 C.3    89  MET89       0.0401
     67  CG       -10.5000   -2.4380   -8.3710 C.3    89  MET89       0.0596
     68  SD       -10.2190   -4.1860   -8.7550 S.3    89  MET89      -0.1393
     69  CE       -11.3660   -4.9940   -7.6300 C.3    89  MET89       0.0692
     70  N        -13.3080    0.2340  -10.5610 N.am   90  GLU90      -0.1966
     71  CA       -14.5240    0.4150  -11.3370 C.3    90  GLU90       0.1733
     72  C        -15.2480   -0.9270  -11.4710 C.2    90  GLU90       0.2616
     73  O        -14.6360   -2.0110  -11.4560 O.2    90  GLU90      -0.2715
     74  CB       -14.2580    1.0180  -12.7220 C.3    90  GLU90       0.0429
     75  CG       -13.6230    0.0400  -13.6780 C.3    90  GLU90       0.1163
     76  CD       -13.3210    0.6150  -15.0450 C.2    90  GLU90       0.3649
     77  OE1      -12.3030    0.1860  -15.6120 O.co2  90  GLU90      -0.2457
     78  OE2      -14.0790    1.4680  -15.5490 O.co2  90  GLU90      -0.2457
     79  N        -16.5600   -0.8270  -11.5850 N.am   91  TYR91      -0.1960
     80  CA       -17.4250   -1.9650  -11.7880 C.3    91  TYR91       0.1771
     81  C        -17.8290   -2.0340  -13.2620 C.2    91  TYR91       0.2619
     82  O        -18.2930   -1.0360  -13.8210 O.2    91  TYR91      -0.2715
     83  CB       -18.6490   -1.8300  -10.8900 C.3    91  TYR91       0.0574
     84  CG       -19.7780   -2.7390  -11.2740 C.ar   91  TYR91      -0.0198
     85  CD1      -19.6840   -4.1080  -11.0930 C.ar   91  TYR91      -0.0009
     86  CD2      -20.9420   -2.2280  -11.8300 C.ar   91  TYR91      -0.0009
     87  CE1      -20.7170   -4.9490  -11.4460 C.ar   91  TYR91       0.0417
     88  CE2      -21.9830   -3.0620  -12.1790 C.ar   91  TYR91       0.0417
     89  CZ       -21.8630   -4.4170  -11.9910 C.ar   91  TYR91       0.1957
     90  OH       -22.8960   -5.2430  -12.3440 O.3    91  TYR91      -0.2866
     91  N        -17.6150   -3.1970  -13.8800 N.am   92  LEU92      -0.1977
     92  CA       -17.9780   -3.4270  -15.2830 C.3    92  LEU92       0.1596
     93  C        -19.1970   -4.3580  -15.3620 C.2    92  LEU92       0.2287
     94  O        -19.0790   -5.5490  -15.1260 O.2    92  LEU92      -0.2864
     95  CB       -16.7880   -4.0310  -16.0480 C.3    92  LEU92       0.0297
     96  CG       -15.8420   -2.9900  -16.6480 C.3    92  LEU92       0.0022
     97  CD1      -15.2580   -2.0960  -15.5780 C.3    92  LEU92       0.0001
     98  CD2      -14.7190   -3.6380  -17.4550 C.3    92  LEU92       0.0001
     99  N        -19.4280   -8.0060  -16.9020 N.3    95  GLY95      -0.1210
    100  CA       -18.7790   -9.1010  -16.1900 C.3    95  GLY95       0.1956
    101  C        -17.5780   -9.6620  -16.9320 C.2    95  GLY95       0.2612
    102  O        -17.0020   -9.0120  -17.8120 O.2    95  GLY95      -0.2717
    103  N        -17.2150  -10.8930  -16.5810 N.am   96  SER96      -0.1952
    104  CA       -16.0240  -11.5180  -17.1310 C.3    96  SER96       0.1924
    105  C        -16.2140  -11.9460  -18.5800 C.2    96  SER96       0.2314
    106  O        -17.3330  -12.2790  -19.0150 O.2    96  SER96      -0.2863
    107  CB       -15.5750  -12.7250  -16.2930 C.3    96  SER96       0.2116
    108  OG       -16.4060  -13.8530  -16.5020 O.3    96  SER96      -0.2180
    109  N        -17.6700  -15.5970  -18.9110 N.3    99  ASP99      -0.1239
    110  CA       -19.1280  -15.7480  -18.8560 C.3    99  ASP99       0.1674
    111  C        -19.7900  -15.1020  -20.0730 C.2    99  ASP99       0.2266
    112  O        -20.7410  -15.6570  -20.6240 O.2    99  ASP99      -0.2867
    113  CB       -19.6810  -15.1610  -17.5530 C.3    99  ASP99       0.1410
    114  CG       -19.2300  -15.9340  -16.3240 C.2    99  ASP99       0.3668
    115  OD1      -18.8630  -17.1220  -16.4560 O.co2  99  ASP99      -0.2456
    116  OD2      -19.2500  -15.3540  -15.2210 O.co2  99  ASP99      -0.2456
    117  N        -11.3240  -15.8760  -16.9990 N.3   140  ARG140     -0.1231
    118  CA       -12.0190  -15.5170  -15.7420 C.3   140  ARG140      0.1694
    119  C        -11.5800  -14.1560  -15.1830 C.2   140  ARG140      0.2592
    120  O        -12.3250  -13.5010  -14.4480 O.2   140  ARG140     -0.2718
    121  CB       -11.8140  -16.6040  -14.6670 C.3   140  ARG140      0.0321
    122  CG       -10.3690  -16.8290  -14.2460 C.3   140  ARG140      0.0489
    123  CD       -10.1820  -17.9030  -13.1740 C.3   140  ARG140      0.2205
    124  NE        -8.7960  -18.3960  -13.1420 N.pl3 140  ARG140     -0.0865
    125  CZ        -7.8230  -17.9730  -12.3280 C.cat 140  ARG140      0.5346
    126  NH1       -8.0270  -17.0250  -11.4080 N.pl3 140  ARG140      0.1354
    127  NH2       -6.6200  -18.5230  -12.4340 N.pl3 140  ARG140      0.1354
    128  N        -10.3640  -13.7420  -15.5260 N.am  141  ASN141     -0.1974
    129  CA        -9.7690  -12.5070  -15.0190 C.3   141  ASN141      0.1688
    130  C         -9.8110  -11.3410  -15.9970 C.2   141  ASN141      0.2292
    131  O         -9.2210  -10.2890  -15.7330 O.2   141  ASN141     -0.2864
    132  CB        -8.3210  -12.7730  -14.5800 C.3   141  ASN141      0.1181
    133  CG        -8.2530  -13.5800  -13.3040 C.2   141  ASN141      0.2629
    134  OD1       -9.0940  -13.4210  -12.4240 O.2   141  ASN141     -0.2716
    135  ND2       -7.2660  -14.4560  -13.2000 N.am  141  ASN141     -0.0877
    136  N        -12.3050   -8.7140  -18.0770 N.3   143  LEU143     -0.1245
    137  CA       -13.6320   -8.1030  -17.9730 C.3   143  LEU143      0.1561
    138  C        -14.0540   -7.4790  -19.3030 C.2   143  LEU143      0.2260
    139  O        -13.2220   -7.0070  -20.0530 O.2   143  LEU143     -0.2867
    140  CB       -13.6290   -7.0280  -16.8810 C.3   143  LEU143      0.0270
    141  CG       -13.4540   -7.5380  -15.4610 C.3   143  LEU143      0.0019
    142  CD1      -13.2630   -6.3390  -14.5460 C.3   143  LEU143      0.0001
    143  CD2      -14.6410   -8.3810  -15.0070 C.3   143  LEU143      0.0001
    144  N         -8.7230   -7.5670  -15.4780 N.3   153  GLY153     -0.1210
    145  CA        -9.6510   -7.1790  -14.4060 C.3   153  GLY153      0.1956
    146  C         -9.3060   -7.5940  -12.9840 C.2   153  GLY153      0.2611
    147  O        -10.0670   -7.3100  -12.0610 O.2   153  GLY153     -0.2717
    148  N         -8.1750   -8.2720  -12.8000 N.am  154  ASP154     -0.1973
    149  CA        -7.7050   -8.6530  -11.4690 C.3   154  ASP154      0.1709
    150  C         -6.1870   -8.7760  -11.4770 C.2   154  ASP154      0.2293
    151  O         -5.6160   -9.2190  -12.4750 O.2   154  ASP154     -0.2864
    152  CB        -8.2980   -9.9870  -11.0310 C.3   154  ASP154      0.1436
    153  CG        -7.9760  -10.3060   -9.5950 C.2   154  ASP154      0.3671
    154  OD1       -8.6460   -9.7370   -8.7100 O.co2 154  ASP154     -0.2456
    155  OD2       -7.0370  -11.0890   -9.3550 O.co2 154  ASP154     -0.2456
@<TRIPOS>BOND
     1   112   111    2
     2   111   110    1
     3   139   138    2
     4   138   137    1
     5   106   105    2
     6   109   110    1
     7   110   113    1
     8   105   104    1
     9   136   137    1
    10   137   140    1
    11   102   101    2
    12   113   114    1
    13    98    96    1
    14   104   103    1
    15   104   107    1
    16   117   118    1
    17   101   103   am
    18   101   100    1
    19    99   100    1
    20   140   141    1
    21    96    95    1
    22    96    97    1
    23   108   107    1
    24   115   114   ar
    25   114   116   ar
    26    95    92    1
    27   130   131    2
    28   130   129    1
    29    55    56    1
    30   118   119    1
    31   118   121    1
    32    77    76   ar
    33    78    76   ar
    34   128   119   am
    35   128   129    1
    36   144   145    1
    37   141   143    1
    38   141   142    1
    39    93    92    1
    40    93    94    2
    41    92    91    1
    42   119   120    2
    43    76    75    1
    44   129   132    1
    45    56    57    1
    46    56    59    1
    47   121   122    1
    48   132   133    1
    49   145   146    1
    50   122   123    1
    51    57    58    2
    52    59    61    1
    53    59    60    1
    54    91    81   am
    55    82    81    2
    56    75    74    1
    57   133   135   am
    58   133   134    2
    59    81    80    1
    60   123   124    1
    61   124   125    2
    62   146   148   am
    63   146   147    2
    64   148   149    1
    65    74    71    1
    66   151   150    2
    67   127   125    1
    68    90    89    1
    69   125   126    1
    70    88    89   ar
    71    88    86   ar
    72    89    87   ar
    73    86    84   ar
    74    80    79    1
    75    80    83    1
    76    79    72   am
    77   150   149    1
    78    72    73    2
    79    72    71    1
    80   149   152    1
    81    87    85   ar
    82    71    70    1
    83    84    85   ar
    84    84    83    1
    85   152   153    1
    86    70    64   am
    87   153   155   ar
    88   153   154   ar
    89     8     6    1
    90    64    65    2
    91    64    63    1
    92    66    63    1
    93    66    67    1
    94     4     3    2
    95    68    67    1
    96    68    69    1
    97     7     6    1
    98    63    62    1
    99    45    42    1
   100     6     5    1
   101     5     2    1
   102     3     2    1
   103     3     9   am
   104     2     1    1
   105    41    42    1
   106    33    31   am
   107    42    43    1
   108    10     9    1
   109    10    11    1
   110    16    15    2
   111    39    38    1
   112    32    31    2
   113    31    30    1
   114    40    38    1
   115    23    22    1
   116    23    24    1
   117    11    13   am
   118    11    12    2
   119    38    35    1
   120    13    14    1
   121    15    22   am
   122    15    14    1
   123    44    43    2
   124    54    53    1
   125    53    52    1
   126    24    26   am
   127    24    25    2
   128    14    17    1
   129    26    27    1
   130    37    36    2
   131    30    27    1
   132    35    36    1
   133    35    34    1
   134    18    17    1
   135    18    19    1
   136    52    51    1
   137    27    28    1
   138    50    51    1
   139    50    47    1
   140    20    19    1
   141    20    21    1
   142    46    47    1
   143    47    48    1
   144    28    29    2
   145    48    49    2
