@<TRIPOS>MOLECULE
tmp/4ivbA00.pdb
 166 154 0 0 0
SMALL
GASTEIGER

@<TRIPOS>ATOM
      1  N          5.5230   57.9000  -11.1780 N.3    27  ARG27      -0.1245
      2  CA         6.4140   56.7670  -10.8720 C.3    27  ARG27       0.1563
      3  C          6.1130   56.1220   -9.5320 C.2    27  ARG27       0.2260
      4  O          5.4170   56.7010   -8.7110 O.2    27  ARG27      -0.2867
      5  CB         7.8800   57.2120  -10.8820 C.3    27  ARG27       0.0307
      6  CG         8.2300   58.2630   -9.8440 C.3    27  ARG27       0.0489
      7  CD         9.6610   58.7340  -10.0220 C.3    27  ARG27       0.2205
      8  NE         9.9650   59.9010   -9.1970 N.pl3  27  ARG27      -0.0865
      9  CZ        10.4070   59.8570   -7.9400 C.cat  27  ARG27       0.5346
     10  NH1       10.6040   58.6970   -7.3160 N.pl3  27  ARG27       0.1354
     11  NH2       10.6610   60.9890   -7.2950 N.pl3  27  ARG27       0.1354
     12  N          6.8640   55.0110   -5.7510 N.3    29  LEU29      -0.1231
     13  CA         7.6340   55.4700   -4.5830 C.3    29  LEU29       0.1693
     14  C          8.0600   54.3070   -3.6840 C.2    29  LEU29       0.2593
     15  O          9.1360   54.3360   -3.0970 O.2    29  LEU29      -0.2718
     16  CB         6.8170   56.5080   -3.7850 C.3    29  LEU29       0.0284
     17  CG         6.5850   57.8130   -4.5640 C.3    29  LEU29       0.0019
     18  CD1        5.6490   58.7700   -3.8370 C.3    29  LEU29       0.0001
     19  CD2        7.8960   58.4940   -4.9340 C.3    29  LEU29       0.0001
     20  N          7.2180   53.2870   -3.5730 N.am   30  GLY30      -0.1942
     21  CA         7.4810   52.1870   -2.6570 C.3    30  GLY30       0.2014
     22  C          6.3450   51.1930   -2.6620 C.2    30  GLY30       0.2639
     23  O          5.2450   51.4860   -3.1480 O.2    30  GLY30      -0.2714
     24  N          6.6250   50.0610   -2.0230 N.am   31  GLU31      -0.1963
     25  CA         5.6960   48.9620   -1.8560 C.3    31  GLU31       0.1733
     26  C          5.5020   48.7220   -0.3650 C.2    31  GLU31       0.2616
     27  O          6.4720   48.6080    0.3870 O.2    31  GLU31      -0.2715
     28  CB         6.2750   47.6940   -2.4910 C.3    31  GLU31       0.0429
     29  CG         6.5500   47.7970   -3.9820 C.3    31  GLU31       0.1163
     30  CD         5.2860   47.9710   -4.7980 C.2    31  GLU31       0.3649
     31  OE1        4.2740   47.3160   -4.4680 O.co2  31  GLU31      -0.2457
     32  OE2        5.3110   48.7490   -5.7770 O.co2  31  GLU31      -0.2457
     33  N          4.2500   48.6580    0.0630 N.am   32  GLY32      -0.1955
     34  CA         3.9310   48.1700    1.3930 C.3    32  GLY32       0.1869
     35  C          3.6660   46.6840    1.2850 C.2    32  GLY32       0.2309
     36  O          4.0890   46.0450    0.3240 O.2    32  GLY32      -0.2863
     37  N          2.6470   52.6370   -3.2370 N.3    37  VAL37      -0.1245
     38  CA         2.5090   54.0640   -3.2860 C.3    37  VAL37       0.1561
     39  C          3.1750   54.5830   -4.5460 C.2    37  VAL37       0.2260
     40  O          4.3030   54.2080   -4.8560 O.2    37  VAL37      -0.2867
     41  CB         3.1290   54.7170   -2.0430 C.3    37  VAL37       0.0252
     42  CG1        2.9870   56.2430   -2.1360 C.3    37  VAL37       0.0019
     43  CG2        2.4750   54.1750   -0.7770 C.3    37  VAL37       0.0019
     44  N          1.2500   61.8080   -3.2690 N.3    54  ALA54      -0.1245
     45  CA         1.5330   60.3930   -3.0720 C.3    54  ALA54       0.1562
     46  C          0.2090   59.6340   -2.9900 C.2    54  ALA54       0.2260
     47  O         -0.6870   59.9930   -2.2220 O.2    54  ALA54      -0.2867
     48  CB         2.3720   60.1700   -1.8120 C.3    54  ALA54       0.0290
     49  N         -1.5900   55.9570   -2.4440 N.3    56  LYS56      -0.1245
     50  CA        -1.5540   54.5710   -1.9880 C.3    56  LYS56       0.1561
     51  C         -2.7450   53.7840   -2.5240 C.2    56  LYS56       0.2260
     52  O         -3.9060   54.1940   -2.3770 O.2    56  LYS56      -0.2867
     53  CB        -1.5410   54.4820   -0.4700 C.3    56  LYS56       0.0271
     54  CG        -1.2680   53.0840    0.0600 C.3    56  LYS56       0.0035
     55  CD        -0.8310   53.1640    1.5110 C.3    56  LYS56       0.0206
     56  CE        -0.3350   51.8340    2.0320 C.3    56  LYS56       0.1093
     57  NZ         0.0650   51.9600    3.4560 N.3    56  LYS56      -0.1314
     58  N          2.6930   62.4700    8.3550 N.3    81  VAL81      -0.1245
     59  CA         2.3990   62.8480    6.9670 C.3    81  VAL81       0.1561
     60  C          0.9240   63.2460    6.7860 C.2    81  VAL81       0.2260
     61  O          0.0240   62.6330    7.3620 O.2    81  VAL81      -0.2867
     62  CB         2.7530   61.7190    5.9870 C.3    81  VAL81       0.0252
     63  CG1        1.7870   60.5490    6.1410 C.3    81  VAL81       0.0019
     64  CG2        2.7690   62.2450    4.5580 C.3    81  VAL81       0.0019
     65  N         -2.0390   61.2980   -0.2200 N.3    95  MET95      -0.1230
     66  CA        -1.2220   61.9450    0.8190 C.3    95  MET95       0.1702
     67  C         -0.3040   63.0110    0.2280 C.2    95  MET95       0.2592
     68  O         -0.0520   63.0230   -0.9760 O.2    95  MET95      -0.2718
     69  CB        -0.3560   60.9090    1.4990 C.3    95  MET95       0.0401
     70  CG        -1.0880   59.8470    2.2880 C.3    95  MET95       0.0596
     71  SD         0.0390   58.5060    2.7370 S.3    95  MET95      -0.1393
     72  CE         0.1570   57.7150    1.1350 C.3    95  MET95       0.0692
     73  N          0.2330   63.8890    1.0730 N.am   96  GLU96      -0.1966
     74  CA         1.2490   64.8090    0.6180 C.3    96  GLU96       0.1733
     75  C          2.4820   64.0330    0.1100 C.2    96  GLU96       0.2616
     76  O          2.7940   62.9410    0.5910 O.2    96  GLU96      -0.2715
     77  CB         1.6480   65.8250    1.6980 C.3    96  GLU96       0.0429
     78  CG         2.2320   65.2130    2.9550 C.3    96  GLU96       0.1163
     79  CD         2.7130   66.2500    3.9650 C.2    96  GLU96       0.3649
     80  OE1        2.8420   67.4440    3.6140 O.co2  96  GLU96      -0.2457
     81  OE2        2.9460   65.8690    5.1210 O.co2  96  GLU96      -0.2457
     82  N          3.1520   64.6160   -0.8780 N.am   97  PHE97      -0.1960
     83  CA         4.3810   64.0620   -1.4340 C.3    97  PHE97       0.1771
     84  C          5.5710   64.8110   -0.8820 C.2    97  PHE97       0.2619
     85  O          5.6230   66.0380   -0.9960 O.2    97  PHE97      -0.2715
     86  CB         4.3800   64.1930   -2.9610 C.3    97  PHE97       0.0574
     87  CG         5.6940   63.8410   -3.5930 C.ar   97  PHE97      -0.0200
     88  CD1        6.2640   62.5910   -3.3860 C.ar   97  PHE97      -0.0042
     89  CD2        6.3490   64.7500   -4.4180 C.ar   97  PHE97      -0.0042
     90  CE1        7.4720   62.2540   -3.9780 C.ar   97  PHE97      -0.0003
     91  CE2        7.5600   64.4230   -5.0060 C.ar   97  PHE97      -0.0003
     92  CZ         8.1270   63.1770   -4.7790 C.ar   97  PHE97      -0.0000
     93  N          6.5000   64.0760   -0.2720 N.am   98  LEU98      -0.1977
     94  CA         7.7450   64.6360    0.2540 C.3    98  LEU98       0.1596
     95  C          8.9480   64.2590   -0.6550 C.2    98  LEU98       0.2287
     96  O          9.4810   63.1420   -0.5890 O.2    98  LEU98      -0.2864
     97  CB         7.9590   64.1810    1.6970 C.3    98  LEU98       0.0297
     98  CG         7.2600   65.0020    2.7860 C.3    98  LEU98       0.0022
     99  CD1        5.7490   65.0250    2.6130 C.3    98  LEU98       0.0001
    100  CD2        7.6260   64.5060    4.1910 C.3    98  LEU98       0.0001
    101  N         11.9880   62.0370    0.1800 N.3   101  GLY101     -0.1210
    102  CA        11.7790   60.6310    0.3970 C.3   101  GLY101      0.1956
    103  C         12.0040   60.2630    1.8430 C.2   101  GLY101      0.2612
    104  O         11.9520   61.1100    2.7360 O.2   101  GLY101     -0.2717
    105  N         12.2750   58.9890    2.0740 N.am  102  SER102     -0.1952
    106  CA        12.4840   58.5000    3.4280 C.3   102  SER102      0.1924
    107  C         13.9330   58.6950    3.8680 C.2   102  SER102      0.2314
    108  O         14.8120   59.0110    3.0630 O.2   102  SER102     -0.2863
    109  CB        12.0770   57.0290    3.5350 C.3   102  SER102      0.2116
    110  OG        13.0740   56.1520    3.0530 O.3   102  SER102     -0.2180
    111  N         16.5250   57.0030    1.7520 N.3   105  GLU105     -0.1245
    112  CA        16.9940   57.6860    0.5430 C.3   105  GLU105      0.1567
    113  C         17.8470   58.9060    0.8880 C.2   105  GLU105      0.2260
    114  O         18.8530   59.1750    0.2440 O.2   105  GLU105     -0.2867
    115  CB        15.8120   58.1670   -0.3050 C.3   105  GLU105      0.0388
    116  CG        15.0680   57.0840   -1.0490 C.3   105  GLU105      0.1160
    117  CD        14.2680   56.1720   -0.1440 C.2   105  GLU105      0.3649
    118  OE1       13.4500   56.6740    0.6660 O.co2 105  GLU105     -0.2457
    119  OE2       14.4480   54.9450   -0.2660 O.co2 105  GLU105     -0.2457
    120  N          5.2630   49.0940   12.4890 N.3   142  ASP142     -0.1239
    121  CA         6.1280   49.1290   11.3010 C.3   142  ASP142      0.1674
    122  C          7.1050   50.3020   11.3240 C.2   142  ASP142      0.2266
    123  O          7.4220   50.8950   10.2720 O.2   142  ASP142     -0.2867
    124  CB         5.2520   49.2170   10.0380 C.3   142  ASP142      0.1410
    125  CG         5.9280   48.6570    8.8050 C.2   142  ASP142      0.3668
    126  OD1        6.8960   47.8880    8.9470 O.co2 142  ASP142     -0.2456
    127  OD2        5.4760   48.9620    7.6730 O.co2 142  ASP142     -0.2456
    128  N         12.7070   53.4380    6.7340 N.3   146  ARG146     -0.1231
    129  CA        11.9880   53.5090    5.4380 C.3   146  ARG146      0.1694
    130  C         10.5880   54.1430    5.5240 C.2   146  ARG146      0.2592
    131  O         10.0490   54.5830    4.5240 O.2   146  ARG146     -0.2718
    132  CB        11.8660   52.1140    4.8310 C.3   146  ARG146      0.0321
    133  CG        11.0420   51.1230    5.6450 C.3   146  ARG146      0.0489
    134  CD        11.0490   49.7060    5.0370 C.3   146  ARG146      0.2205
    135  NE        10.8000   48.7420    6.1090 N.pl3 146  ARG146     -0.0865
    136  CZ         9.5950   48.4520    6.6080 C.cat 146  ARG146      0.5346
    137  NH1        8.4950   49.0060    6.1080 N.pl3 146  ARG146      0.1354
    138  NH2        9.4790   47.5990    7.6150 N.pl3 146  ARG146      0.1354
    139  N         10.0000   54.1510    6.7140 N.am  147  ASN147     -0.1974
    140  CA         8.7020   54.7840    6.9510 C.3   147  ASN147      0.1688
    141  C          8.7900   56.1790    7.5400 C.2   147  ASN147      0.2292
    142  O          7.7610   56.7850    7.8470 O.2   147  ASN147     -0.2864
    143  CB         7.8120   53.8800    7.8050 C.3   147  ASN147      0.1181
    144  CG         7.3200   52.6790    7.0250 C.2   147  ASN147      0.2629
    145  OD1        7.1400   52.7580    5.8100 O.2   147  ASN147     -0.2716
    146  ND2        7.1380   51.5450    7.7090 N.am  147  ASN147     -0.0877
    147  N          9.7090   59.8880    6.7480 N.3   149  LEU149     -0.1245
    148  CA         9.8560   60.7880    5.6210 C.3   149  LEU149      0.1561
    149  C         10.5500   62.0950    6.0200 C.2   149  LEU149      0.2260
    150  O         10.3870   62.5640    7.1290 O.2   149  LEU149     -0.2867
    151  CB         8.4840   61.1260    5.0620 C.3   149  LEU149      0.0270
    152  CG         7.7170   59.9970    4.3850 C.3   149  LEU149      0.0019
    153  CD1        6.3660   60.5310    3.9210 C.3   149  LEU149      0.0001
    154  CD2        8.5210   59.4610    3.2040 C.3   149  LEU149      0.0001
    155  N          5.5070   58.3710    7.9030 N.3   159  GLY159     -0.1210
    156  CA         4.9410   58.4490    6.5610 C.3   159  GLY159      0.1956
    157  C          4.1750   57.2450    6.0290 C.2   159  GLY159      0.2611
    158  O          3.8230   57.2130    4.8410 O.2   159  GLY159     -0.2717
    159  N          3.9090   56.2550    6.8810 N.am  160  ASP160     -0.1973
    160  CA         3.0400   55.1310    6.4730 C.3   160  ASP160      0.1709
    161  C          2.3960   54.5180    7.6810 C.2   160  ASP160      0.2293
    162  O          3.0000   54.5010    8.7500 O.2   160  ASP160     -0.2864
    163  CB         3.7980   54.0530    5.7190 C.3   160  ASP160      0.1436
    164  CG         2.8640   53.0090    5.1240 C.2   160  ASP160      0.3671
    165  OD1        2.2710   53.2650    4.0450 O.co2 160  ASP160     -0.2456
    166  OD2        2.7150   51.9380    5.7520 O.co2 160  ASP160     -0.2456
@<TRIPOS>BOND
     1     1     2    1
     2     5     2    1
     3     5     6    1
     4     2     3    1
     5     7     6    1
     6     7     8    1
     7     3     4    2
     8     8     9    2
     9     9    10    1
    10     9    11    1
    11    32    30   ar
    12    12    13    1
    13    91    92   ar
    14    91    89   ar
    15    19    17    1
    16    40    39    2
    17    30    31   ar
    18    30    29    1
    19    92    90   ar
    20    13    16    1
    21    13    14    1
    22    17    18    1
    23    17    16    1
    24    39    38    1
    25    89    87   ar
    26    29    28    1
    27    90    88   ar
    28    14    20   am
    29    14    15    2
    30    87    88   ar
    31    87    86    1
    32    20    21    1
    33    38    37    1
    34    38    41    1
    35    44    45    1
    36    23    22    2
    37    45    46    1
    38    45    48    1
    39    46    47    2
    40    86    83    1
    41    22    21    1
    42    22    24   am
    43    51    52    2
    44    51    50    1
    45    28    25    1
    46    49    50    1
    47    42    41    1
    48    41    43    1
    49    24    25    1
    50    50    53    1
    51    25    26    1
    52    83    84    1
    53    83    82    1
    54   116   115    1
    55   116   117    1
    56    85    84    2
    57    68    67    2
    58    84    93   am
    59    82    75   am
    60    95    96    2
    61    95    94    1
    62    53    54    1
    63    26    33   am
    64    26    27    2
    65   115   112    1
    66    93    94    1
    67   119   117   ar
    68    65    66    1
    69   117   118   ar
    70    54    55    1
    71    33    34    1
    72    75    76    2
    73    75    74    1
    74   101   102    1
    75    67    66    1
    76    67    73   am
    77   114   113    2
    78    94    97    1
    79    36    35    2
    80   102   103    1
    81   112   113    1
    82   112   111    1
    83    74    73    1
    84    74    77    1
    85    66    69    1
    86    72    71    1
    87    35    34    1
    88    69    70    1
    89    55    56    1
    90    97    98    1
    91    77    78    1
    92   103   105   am
    93   103   104    2
    94    56    57    1
    95   105   106    1
    96    70    71    1
    97    99    98    1
    98    98   100    1
    99    78    79    1
   100   110   109    1
   101   108   107    2
   102   154   152    1
   103   106   109    1
   104   106   107    1
   105    80    79   ar
   106   153   152    1
   107    79    81   ar
   108   165   164   ar
   109   152   151    1
   110   131   130    2
   111    64    62    1
   112   132   129    1
   113   132   133    1
   114   158   157    2
   115   134   133    1
   116   134   135    1
   117   151   148    1
   118   164   163    1
   119   164   166   ar
   120   129   130    1
   121   129   128    1
   122   130   139   am
   123   148   149    1
   124   148   147    1
   125   163   160    1
   126   145   144    2
   127    62    63    1
   128    62    59    1
   129   149   150    2
   130   157   156    1
   131   157   159   am
   132   137   136    1
   133   135   136    2
   134   160   159    1
   135   160   161    1
   136   156   155    1
   137   136   138    1
   138   139   140    1
   139    60    59    1
   140    60    61    2
   141   140   141    1
   142   140   143    1
   143    59    58    1
   144   144   146   am
   145   144   143    1
   146   141   142    2
   147   127   125   ar
   148   161   162    2
   149   125   126   ar
   150   125   124    1
   151   124   121    1
   152   123   122    2
   153   121   122    1
   154   121   120    1
