@<TRIPOS>MOLECULE
tmp/4ivcA00.pdb
 162 150 0 0 0
SMALL
GASTEIGER

@<TRIPOS>ATOM
      1  N          5.2540   57.9850  -11.1700 N.3    27  ARG27      -0.1245
      2  CA         6.1660   56.8700  -10.8570 C.3    27  ARG27       0.1563
      3  C          5.8450   56.2000   -9.5090 C.2    27  ARG27       0.2260
      4  O          5.0930   56.7240   -8.7060 O.2    27  ARG27      -0.2867
      5  CB         7.6270   57.3480  -10.8210 C.3    27  ARG27       0.0307
      6  CG         7.9250   58.3940   -9.7500 C.3    27  ARG27       0.0489
      7  CD         9.4160   58.7090   -9.6610 C.3    27  ARG27       0.2205
      8  NE         9.6790   59.8980   -8.8540 N.pl3  27  ARG27      -0.0865
      9  CZ        10.2410   59.9060   -7.6430 C.cat  27  ARG27       0.5346
     10  NH1       10.6460   58.7840   -7.0550 N.pl3  27  ARG27       0.1354
     11  NH2       10.4130   61.0600   -7.0120 N.pl3  27  ARG27       0.1354
     12  N          6.7070   54.9540   -5.7060 N.3    29  LEU29      -0.1231
     13  CA         7.4080   55.4290   -4.5190 C.3    29  LEU29       0.1693
     14  C          7.7930   54.2740   -3.5710 C.2    29  LEU29       0.2593
     15  O          8.8460   54.3080   -2.9290 O.2    29  LEU29      -0.2718
     16  CB         6.5400   56.4770   -3.7980 C.3    29  LEU29       0.0284
     17  CG         6.3790   57.8020   -4.5580 C.3    29  LEU29       0.0019
     18  CD1        5.4830   58.7980   -3.8410 C.3    29  LEU29       0.0001
     19  CD2        7.7310   58.4470   -4.8470 C.3    29  LEU29       0.0001
     20  N          6.9450   53.2540   -3.4880 N.am   30  GLY30      -0.1942
     21  CA         7.2270   52.0970   -2.6550 C.3    30  GLY30       0.2014
     22  C          5.9910   51.2410   -2.4390 C.2    30  GLY30       0.2639
     23  O          4.9140   51.5520   -2.9560 O.2    30  GLY30      -0.2714
     24  N          6.1620   50.1500   -1.6910 N.am   31  GLU31      -0.1963
     25  CA         5.0820   49.1980   -1.4370 C.3    31  GLU31       0.1733
     26  C          5.1280   48.5920   -0.0390 C.2    31  GLU31       0.2616
     27  O          6.1250   48.7200    0.6720 O.2    31  GLU31      -0.2715
     28  CB         5.1500   48.0470   -2.4300 C.3    31  GLU31       0.0429
     29  CG         5.7120   48.4100   -3.7890 C.3    31  GLU31       0.1163
     30  CD         5.7870   47.2210   -4.7170 C.2    31  GLU31       0.3649
     31  OE1        5.4670   46.0950   -4.2710 O.co2  31  GLU31      -0.2457
     32  OE2        6.1740   47.4210   -5.8890 O.co2  31  GLU31      -0.2457
     33  N          4.0190   47.9510    0.3330 N.am   32  GLY32      -0.1955
     34  CA         3.9580   46.9810    1.4300 C.3    32  GLY32       0.1869
     35  C          3.6940   45.6370    0.7760 C.2    32  GLY32       0.2309
     36  O          4.0710   45.4320   -0.3820 O.2    32  GLY32      -0.2863
     37  N         -0.2630   46.7870   -0.2210 N.3    35  GLY35      -0.1225
     38  CA        -0.3690   48.1760   -0.6360 C.3    35  GLY35       0.1811
     39  C          0.8350   48.6520   -1.4320 C.2    35  GLY35       0.2280
     40  O          1.9300   48.1140   -1.3080 O.2    35  GLY35      -0.2866
     41  N          2.4180   52.6300   -3.1940 N.3    37  VAL37      -0.1245
     42  CA         2.2620   54.0580   -3.2460 C.3    37  VAL37       0.1561
     43  C          2.9630   54.5900   -4.4730 C.2    37  VAL37       0.2260
     44  O          4.1080   54.2380   -4.7330 O.2    37  VAL37      -0.2867
     45  CB         2.8150   54.7360   -1.9870 C.3    37  VAL37       0.0252
     46  CG1        2.7570   56.2630   -2.1220 C.3    37  VAL37       0.0019
     47  CG2        2.0360   54.2770   -0.7670 C.3    37  VAL37       0.0019
     48  N          1.1030   61.7190   -3.1410 N.3    54  ALA54      -0.1245
     49  CA         1.3680   60.3020   -2.9900 C.3    54  ALA54       0.1562
     50  C          0.0260   59.5580   -2.9590 C.2    54  ALA54       0.2260
     51  O         -0.8280   59.8230   -2.0960 O.2    54  ALA54      -0.2867
     52  CB         2.1560   60.0260   -1.7070 C.3    54  ALA54       0.0290
     53  N         -1.8670   56.0180   -2.5110 N.3    56  LYS56      -0.1245
     54  CA        -1.7760   54.6400   -2.0320 C.3    56  LYS56       0.1561
     55  C         -2.9630   53.7930   -2.4720 C.2    56  LYS56       0.2260
     56  O         -4.1210   54.1330   -2.2170 O.2    56  LYS56      -0.2867
     57  CB        -1.6170   54.5940   -0.5160 C.3    56  LYS56       0.0271
     58  CG        -1.3860   53.2090    0.0390 C.3    56  LYS56       0.0035
     59  CD        -1.0240   53.2730    1.5110 C.3    56  LYS56       0.0206
     60  CE        -0.6660   51.9000    2.0530 C.3    56  LYS56       0.1093
     61  NZ         0.0030   52.0170    3.3800 N.3    56  LYS56      -0.1314
     62  N          2.4590   62.3880    8.3400 N.3    81  VAL81      -0.1245
     63  CA         2.1840   62.6920    6.9360 C.3    81  VAL81       0.1561
     64  C          0.7220   63.0940    6.7630 C.2    81  VAL81       0.2260
     65  O         -0.1590   62.4930    7.3810 O.2    81  VAL81      -0.2867
     66  CB         2.4830   61.4850    6.0270 C.3    81  VAL81       0.0252
     67  CG1        1.5670   60.3080    6.3730 C.3    81  VAL81       0.0019
     68  CG2        2.3430   61.8770    4.5660 C.3    81  VAL81       0.0019
     69  N         -2.2010   61.2750   -0.1920 N.3    95  MET95      -0.1230
     70  CA        -1.4440   61.9420    0.8430 C.3    95  MET95       0.1702
     71  C         -0.5320   62.9870    0.2500 C.2    95  MET95       0.2592
     72  O         -0.3440   63.0350   -0.9510 O.2    95  MET95      -0.2718
     73  CB        -0.6060   60.9480    1.5940 C.3    95  MET95       0.0401
     74  CG        -1.3750   59.8700    2.3480 C.3    95  MET95       0.0596
     75  SD        -0.2560   58.5240    2.8380 S.3    95  MET95      -0.1393
     76  CE        -0.0830   57.7310    1.2410 C.3    95  MET95       0.0692
     77  N          0.0220   63.8350    1.1020 N.am   96  GLU96      -0.1966
     78  CA         1.0270   64.7430    0.6580 C.3    96  GLU96       0.1733
     79  C          2.2660   63.9750    0.1820 C.2    96  GLU96       0.2616
     80  O          2.6020   62.9050    0.7010 O.2    96  GLU96      -0.2715
     81  CB         1.3990   65.7450    1.7310 C.3    96  GLU96       0.0429
     82  CG         1.8470   65.1490    3.0480 C.3    96  GLU96       0.1163
     83  CD         2.5240   66.1800    3.9590 C.2    96  GLU96       0.3649
     84  OE1        2.6810   67.3530    3.5550 O.co2  96  GLU96      -0.2457
     85  OE2        2.9110   65.8230    5.0840 O.co2  96  GLU96      -0.2457
     86  N          2.9070   64.5170   -0.8450 N.am   97  PHE97      -0.1960
     87  CA         4.1340   63.9470   -1.3830 C.3    97  PHE97       0.1771
     88  C          5.3230   64.6680   -0.7690 C.2    97  PHE97       0.2619
     89  O          5.3900   65.8910   -0.8120 O.2    97  PHE97      -0.2715
     90  CB         4.1500   64.0740   -2.9090 C.3    97  PHE97       0.0574
     91  CG         5.4660   63.7170   -3.5330 C.ar   97  PHE97      -0.0200
     92  CD1        6.0850   62.5210   -3.2320 C.ar   97  PHE97      -0.0042
     93  CD2        6.0860   64.5850   -4.4150 C.ar   97  PHE97      -0.0042
     94  CE1        7.3120   62.1810   -3.8020 C.ar   97  PHE97      -0.0003
     95  CE2        7.3110   64.2600   -4.9940 C.ar   97  PHE97      -0.0003
     96  CZ         7.9240   63.0500   -4.6910 C.ar   97  PHE97      -0.0000
     97  N          6.2400   63.9140   -0.1710 N.am   98  LEU98      -0.1977
     98  CA         7.4720   64.5070    0.3600 C.3    98  LEU98       0.1596
     99  C          8.6460   64.1010   -0.5470 C.2    98  LEU98       0.2287
    100  O          9.0880   62.9570   -0.5340 O.2    98  LEU98      -0.2864
    101  CB         7.7000   64.0830    1.7960 C.3    98  LEU98       0.0297
    102  CG         6.9790   64.9070    2.8630 C.3    98  LEU98       0.0022
    103  CD1        5.4610   64.9290    2.6630 C.3    98  LEU98       0.0001
    104  CD2        7.3310   64.3630    4.2450 C.3    98  LEU98       0.0001
    105  N         11.6000   61.9090    0.2220 N.3   101  GLY101     -0.1210
    106  CA        11.2900   60.5180    0.4420 C.3   101  GLY101      0.1956
    107  C         11.5990   60.1210    1.8580 C.2   101  GLY101      0.2612
    108  O         11.6150   60.9660    2.7700 O.2   101  GLY101     -0.2717
    109  N         11.8470   58.8340    2.0660 N.am  102  SER102     -0.1952
    110  CA        12.0500   58.3570    3.4250 C.3   102  SER102      0.1924
    111  C         13.4910   58.5820    3.8790 C.2   102  SER102      0.2314
    112  O         14.3450   59.0390    3.1160 O.2   102  SER102     -0.2863
    113  CB        11.6330   56.8820    3.5680 C.3   102  SER102      0.2116
    114  OG        12.5870   55.9950    3.0170 O.3   102  SER102     -0.2180
    115  N         16.1780   56.9100    1.8200 N.3   105  GLU105     -0.1245
    116  CA        16.6140   57.5890    0.6040 C.3   105  GLU105      0.1567
    117  C         17.4540   58.8170    0.9600 C.2   105  GLU105      0.2260
    118  O         18.4700   59.0950    0.3500 O.2   105  GLU105     -0.2867
    119  CB        15.4170   58.0290   -0.2410 C.3   105  GLU105      0.0388
    120  CG        14.7030   56.8980   -0.9810 C.3   105  GLU105      0.1160
    121  CD        13.8560   56.0310   -0.0720 C.2   105  GLU105      0.3649
    122  OE1       13.1340   56.5920    0.7840 O.co2 105  GLU105     -0.2457
    123  OE2       13.9110   54.7920   -0.2170 O.co2 105  GLU105     -0.2457
    124  N         12.3190   53.3460    6.5890 N.3   146  ARG146     -0.1231
    125  CA        11.5740   53.4160    5.3470 C.3   146  ARG146      0.1694
    126  C         10.1830   54.0400    5.4820 C.2   146  ARG146      0.2592
    127  O          9.6060   54.4630    4.4890 O.2   146  ARG146     -0.2718
    128  CB        11.4410   52.0310    4.7210 C.3   146  ARG146      0.0321
    129  CG        10.6260   51.0630    5.5320 C.3   146  ARG146      0.0489
    130  CD        10.7980   49.6250    5.0500 C.3   146  ARG146      0.2205
    131  NE        10.4100   48.7400    6.1360 N.pl3 146  ARG146     -0.0865
    132  CZ         9.1520   48.4960    6.5050 C.cat 146  ARG146      0.5346
    133  NH1        8.1280   49.0390    5.8580 N.pl3 146  ARG146      0.1354
    134  NH2        8.9160   47.7020    7.5430 N.pl3 146  ARG146      0.1354
    135  N          9.6360   54.0820    6.6940 N.am  147  ASN147     -0.1974
    136  CA         8.3470   54.7350    6.9290 C.3   147  ASN147      0.1688
    137  C          8.4390   56.0980    7.5990 C.2   147  ASN147      0.2292
    138  O          7.4170   56.6590    7.9920 O.2   147  ASN147     -0.2864
    139  CB         7.4490   53.8280    7.7400 C.3   147  ASN147      0.1181
    140  CG         6.9910   52.6220    6.9480 C.2   147  ASN147      0.2629
    141  OD1        6.9080   52.6650    5.7270 O.2   147  ASN147     -0.2716
    142  ND2        6.6940   51.5370    7.6420 N.am  147  ASN147     -0.0877
    143  N          9.2640   59.7890    6.7800 N.3   149  LEU149     -0.1245
    144  CA         9.3990   60.6470    5.6250 C.3   149  LEU149      0.1561
    145  C         10.1270   61.9200    5.9870 C.2   149  LEU149      0.2260
    146  O          9.9310   62.4410    7.0780 O.2   149  LEU149     -0.2867
    147  CB         8.0230   61.0010    5.0810 C.3   149  LEU149      0.0270
    148  CG         7.2340   59.8940    4.3970 C.3   149  LEU149      0.0019
    149  CD1        5.9200   60.4850    3.8890 C.3   149  LEU149      0.0001
    150  CD2        8.0500   59.3020    3.2680 C.3   149  LEU149      0.0001
    151  N          5.1780   58.3660    7.8430 N.3   159  GLY159     -0.1210
    152  CA         4.6070   58.4530    6.5140 C.3   159  GLY159      0.1956
    153  C          3.8500   57.2430    6.0340 C.2   159  GLY159      0.2611
    154  O          3.4900   57.1720    4.8520 O.2   159  GLY159     -0.2717
    155  N          3.5970   56.2890    6.9260 N.am  160  ASP160     -0.1973
    156  CA         2.7590   55.1570    6.5550 C.3   160  ASP160      0.1709
    157  C          2.1190   54.4710    7.7340 C.2   160  ASP160      0.2293
    158  O          2.7330   54.3530    8.7690 O.2   160  ASP160     -0.2864
    159  CB         3.5620   54.1250    5.7850 C.3   160  ASP160      0.1436
    160  CG         2.6790   53.1000    5.1740 C.2   160  ASP160      0.3671
    161  OD1        2.2590   53.2970    4.0070 O.co2 160  ASP160     -0.2456
    162  OD2        2.3400   52.1470    5.9000 O.co2 160  ASP160     -0.2456
@<TRIPOS>BOND
     1     1     2    1
     2     2     5    1
     3     2     3    1
     4     5     6    1
     5     6     7    1
     6     7     8    1
     7     3     4    2
     8     8     9    2
     9     9    10    1
    10     9    11    1
    11    32    30   ar
    12    12    13    1
    13    95    96   ar
    14    95    93   ar
    15    19    17    1
    16    44    43    2
    17    30    31   ar
    18    30    29    1
    19    96    94   ar
    20    17    18    1
    21    17    16    1
    22    13    16    1
    23    13    14    1
    24    43    42    1
    25    93    91   ar
    26    94    92   ar
    27    29    28    1
    28    14    20   am
    29    14    15    2
    30    91    92   ar
    31    91    90    1
    32    20    21    1
    33    42    41    1
    34    42    45    1
    35    48    49    1
    36    49    50    1
    37    49    52    1
    38    50    51    2
    39    23    22    2
    40    90    87    1
    41    21    22    1
    42    53    54    1
    43    55    56    2
    44    55    54    1
    45    22    24   am
    46    28    25    1
    47    46    45    1
    48    54    57    1
    49    45    47    1
    50    24    25    1
    51    25    26    1
    52    39    40    2
    53    39    38    1
    54    87    86    1
    55    87    88    1
    56   120   119    1
    57   120   121    1
    58    72    71    2
    59    86    79   am
    60    89    88    2
    61    88    97   am
    62    38    37    1
    63    99   100    2
    64    99    98    1
    65    57    58    1
    66    36    35    2
    67   119   116    1
    68   123   121   ar
    69    69    70    1
    70    97    98    1
    71   121   122   ar
    72    26    33   am
    73    26    27    2
    74    58    59    1
    75    79    78    1
    76    79    80    2
    77   105   106    1
    78    71    70    1
    79    71    77   am
    80    33    34    1
    81   118   117    2
    82    98   101    1
    83   106   107    1
    84   116   117    1
    85   116   115    1
    86    78    77    1
    87    78    81    1
    88    35    34    1
    89    70    73    1
    90    76    75    1
    91    59    60    1
    92    73    74    1
    93    81    82    1
    94   101   102    1
    95   107   109   am
    96   107   108    2
    97    60    61    1
    98   109   110    1
    99    74    75    1
   100   103   102    1
   101   102   104    1
   102   114   113    1
   103    82    83    1
   104   112   111    2
   105   150   148    1
   106   110   113    1
   107   110   111    1
   108    84    83   ar
   109   149   148    1
   110    83    85   ar
   111   161   160   ar
   112   148   147    1
   113   127   126    2
   114    68    66    1
   115   128   125    1
   116   128   129    1
   117   154   153    2
   118   130   129    1
   119   130   131    1
   120   147   144    1
   121   160   159    1
   122   160   162   ar
   123   125   126    1
   124   125   124    1
   125   126   135   am
   126   144   145    1
   127   144   143    1
   128   141   140    2
   129   159   156    1
   130   133   132    1
   131   145   146    2
   132    66    67    1
   133    66    63    1
   134   153   152    1
   135   153   155   am
   136   131   132    2
   137   132   134    1
   138   152   151    1
   139   156   155    1
   140   156   157    1
   141   135   136    1
   142    64    63    1
   143    64    65    2
   144   136   137    1
   145   136   139    1
   146    63    62    1
   147   140   142   am
   148   140   139    1
   149   137   138    2
   150   157   158    2
