@<TRIPOS>MOLECULE
tmp/4ivdA00.pdb
 171 160 0 0 0
SMALL
GASTEIGER

@<TRIPOS>ATOM
      1  N          5.4240   58.0030  -11.2220 N.3    27  ARG27      -0.1245
      2  CA         6.3140   56.8650  -10.9430 C.3    27  ARG27       0.1563
      3  C          6.0230   56.2090   -9.6070 C.2    27  ARG27       0.2260
      4  O          5.3190   56.7760   -8.7780 O.2    27  ARG27      -0.2867
      5  CB         7.7910   57.3060  -10.9740 C.3    27  ARG27       0.0307
      6  CG         8.1870   58.3200   -9.9020 C.3    27  ARG27       0.0489
      7  CD         9.6480   58.7340  -10.0400 C.3    27  ARG27       0.2205
      8  NE         9.9570   59.8820   -9.1930 N.pl3  27  ARG27      -0.0865
      9  CZ        10.4710   59.8170   -7.9640 C.cat  27  ARG27       0.5346
     10  NH1       10.7780   58.6460   -7.3970 N.pl3  27  ARG27       0.1354
     11  NH2       10.6980   60.9400   -7.2940 N.pl3  27  ARG27       0.1354
     12  N          6.8680   55.0220   -5.8360 N.3    29  LEU29      -0.1231
     13  CA         7.6490   55.4860   -4.6740 C.3    29  LEU29       0.1693
     14  C          8.0620   54.3350   -3.7540 C.2    29  LEU29       0.2593
     15  O          9.1280   54.3680   -3.1470 O.2    29  LEU29      -0.2718
     16  CB         6.8530   56.5530   -3.8970 C.3    29  LEU29       0.0284
     17  CG         6.6800   57.8810   -4.6340 C.3    29  LEU29       0.0019
     18  CD1        5.7400   58.8360   -3.8960 C.3    29  LEU29       0.0001
     19  CD2        8.0280   58.5330   -4.9150 C.3    29  LEU29       0.0001
     20  N          7.2150   53.3200   -3.6500 N.am   30  GLY30      -0.1942
     21  CA         7.4710   52.1770   -2.7920 C.3    30  GLY30       0.2014
     22  C          6.2900   51.2300   -2.8150 C.2    30  GLY30       0.2639
     23  O          5.2610   51.5220   -3.4370 O.2    30  GLY30      -0.2714
     24  N          6.4370   50.0910   -2.1460 N.am   31  GLU31      -0.1963
     25  CA         5.3700   49.0970   -2.0910 C.3    31  GLU31       0.1733
     26  C          5.5290   48.1090   -0.9370 C.2    31  GLU31       0.2616
     27  O          6.5480   48.0950   -0.2480 O.2    31  GLU31      -0.2715
     28  CB         5.2700   48.3470   -3.4250 C.3    31  GLU31       0.0429
     29  CG         6.5230   47.5960   -3.8420 C.3    31  GLU31       0.1163
     30  CD         6.4310   47.0310   -5.2540 C.2    31  GLU31       0.3649
     31  OE1        5.4870   47.3840   -5.9960 O.co2  31  GLU31      -0.2457
     32  OE2        7.3150   46.2310   -5.6270 O.co2  31  GLU31      -0.2457
     33  N          4.4750   47.3280   -0.7170 N.am   32  GLY32      -0.1955
     34  CA         4.5060   46.1430    0.1370 C.3    32  GLY32       0.1869
     35  C          4.0370   44.9580   -0.6920 C.2    32  GLY32       0.2309
     36  O          4.2060   44.9480   -1.9150 O.2    32  GLY32      -0.2863
     37  N         -0.0390   46.5460   -0.8560 N.3    35  GLY35      -0.1210
     38  CA        -0.1810   47.9590   -1.2190 C.3    35  GLY35       0.1956
     39  C          1.0330   48.5490   -1.9130 C.2    35  GLY35       0.2612
     40  O          2.1300   48.0010   -1.8520 O.2    35  GLY35      -0.2717
     41  N          0.8220   49.6690   -2.5950 N.am   36  LYS36      -0.1965
     42  CA         1.9090   50.4180   -3.1920 C.3    36  LYS36       0.1728
     43  C          1.6060   51.9080   -3.2250 C.2    36  LYS36       0.2616
     44  O          0.4440   52.3290   -3.2060 O.2    36  LYS36      -0.2715
     45  CB         2.2180   49.9150   -4.5980 C.3    36  LYS36       0.0311
     46  CG         1.1770   50.2520   -5.6570 C.3    36  LYS36       0.0038
     47  CD         1.5960   49.7940   -7.0550 C.3    36  LYS36       0.0206
     48  CE         3.0140   50.2210   -7.4260 C.3    36  LYS36       0.1093
     49  NZ         3.3630   49.8890   -8.8370 N.3    36  LYS36      -0.1314
     50  N          2.6660   52.7010   -3.2780 N.am   37  VAL37      -0.1977
     51  CA         2.5210   54.1320   -3.3100 C.3    37  VAL37       0.1596
     52  C          3.1720   54.6600   -4.5730 C.2    37  VAL37       0.2287
     53  O          4.3010   54.2850   -4.9110 O.2    37  VAL37      -0.2864
     54  CB         3.1460   54.7830   -2.0640 C.3    37  VAL37       0.0276
     55  CG1        3.0820   56.3100   -2.1660 C.3    37  VAL37       0.0022
     56  CG2        2.4550   54.2770   -0.8000 C.3    37  VAL37       0.0022
     57  N          1.3070   61.8160   -3.2630 N.3    54  ALA54      -0.1245
     58  CA         1.5670   60.4040   -3.0890 C.3    54  ALA54       0.1562
     59  C          0.2190   59.6600   -3.0130 C.2    54  ALA54       0.2260
     60  O         -0.6600   60.0020   -2.2150 O.2    54  ALA54      -0.2867
     61  CB         2.3980   60.1480   -1.8410 C.3    54  ALA54       0.0290
     62  N         -1.6120   56.0180   -2.4730 N.3    56  LYS56      -0.1245
     63  CA        -1.5560   54.6360   -1.9970 C.3    56  LYS56       0.1561
     64  C         -2.7630   53.8300   -2.4820 C.2    56  LYS56       0.2260
     65  O         -3.9250   54.1950   -2.2390 O.2    56  LYS56      -0.2867
     66  CB        -1.4800   54.5550   -0.4780 C.3    56  LYS56       0.0271
     67  CG        -1.2640   53.1390    0.0420 C.3    56  LYS56       0.0035
     68  CD        -0.9060   53.1260    1.5080 C.3    56  LYS56       0.0206
     69  CE        -0.2470   51.8180    1.9190 C.3    56  LYS56       0.1093
     70  NZ        -0.0250   51.7500    3.3910 N.3    56  LYS56      -0.1314
     71  N          2.6020   62.4480    8.3180 N.3    81  VAL81      -0.1245
     72  CA         2.3510   62.8270    6.9340 C.3    81  VAL81       0.1561
     73  C          0.8840   63.2430    6.7290 C.2    81  VAL81       0.2260
     74  O         -0.0260   62.6190    7.2720 O.2    81  VAL81      -0.2867
     75  CB         2.6980   61.6970    5.9490 C.3    81  VAL81       0.0252
     76  CG1        1.7140   60.5320    6.0790 C.3    81  VAL81       0.0019
     77  CG2        2.7220   62.2470    4.5270 C.3    81  VAL81       0.0019
     78  N         -2.0730   61.4020   -0.2650 N.3    94  MET94      -0.1230
     79  CA        -1.2740   62.0640    0.7710 C.3    94  MET94       0.1702
     80  C         -0.3470   63.1120    0.1640 C.2    94  MET94       0.2592
     81  O         -0.1030   63.1120   -1.0420 O.2    94  MET94      -0.2718
     82  CB        -0.4000   61.0540    1.4850 C.3    94  MET94       0.0401
     83  CG        -1.1490   59.9280    2.1700 C.3    94  MET94       0.0596
     84  SD        -0.0260   58.6100    2.6600 S.3    94  MET94      -0.1393
     85  CE         0.2000   57.8340    1.0660 C.3    94  MET94       0.0692
     86  N          0.1970   63.9860    1.0110 N.am   95  GLU95      -0.1966
     87  CA         1.2420   64.8800    0.5630 C.3    95  GLU95       0.1733
     88  C          2.4510   64.0780    0.0950 C.2    95  GLU95       0.2616
     89  O          2.7310   62.9890    0.6000 O.2    95  GLU95      -0.2715
     90  CB         1.6470   65.8880    1.6430 C.3    95  GLU95       0.0429
     91  CG         2.2110   65.2580    2.9020 C.3    95  GLU95       0.1163
     92  CD         2.7060   66.2810    3.9180 C.2    95  GLU95       0.3649
     93  OE1        2.8710   67.4630    3.5530 O.co2  95  GLU95      -0.2457
     94  OE2        2.9140   65.9010    5.0840 O.co2  95  GLU95      -0.2457
     95  N          3.1610   64.6460   -0.8700 N.am   96  PHE96      -0.1960
     96  CA         4.3620   64.0510   -1.4130 C.3    96  PHE96       0.1771
     97  C          5.5630   64.7890   -0.8480 C.2    96  PHE96       0.2619
     98  O          5.6220   66.0130   -0.9360 O.2    96  PHE96      -0.2715
     99  CB         4.3660   64.1750   -2.9370 C.3    96  PHE96       0.0574
    100  CG         5.6860   63.8370   -3.5680 C.ar   96  PHE96      -0.0200
    101  CD1        6.2530   62.5780   -3.4010 C.ar   96  PHE96      -0.0042
    102  CD2        6.3460   64.7670   -4.3670 C.ar   96  PHE96      -0.0042
    103  CE1        7.4640   62.2590   -3.9910 C.ar   96  PHE96      -0.0003
    104  CE2        7.5640   64.4540   -4.9550 C.ar   96  PHE96      -0.0003
    105  CZ         8.1260   63.2050   -4.7610 C.ar   96  PHE96      -0.0000
    106  N          6.5000   64.0430   -0.2720 N.am   97  LEU97      -0.1977
    107  CA         7.7480   64.5980    0.2520 C.3    97  LEU97       0.1596
    108  C          8.9150   64.1850   -0.6550 C.2    97  LEU97       0.2287
    109  O          9.3880   63.0440   -0.5920 O.2    97  LEU97      -0.2864
    110  CB         7.9870   64.1440    1.6980 C.3    97  LEU97       0.0297
    111  CG         7.3110   65.0000    2.7740 C.3    97  LEU97       0.0022
    112  CD1        5.8160   65.1440    2.5390 C.3    97  LEU97       0.0001
    113  CD2        7.5640   64.4150    4.1640 C.3    97  LEU97       0.0001
    114  N         11.9220   61.9370    0.1150 N.3   100  GLY100     -0.1210
    115  CA        11.6900   60.5350    0.3700 C.3   100  GLY100      0.1956
    116  C         11.8970   60.1950    1.8350 C.2   100  GLY100      0.2612
    117  O         11.8260   61.0710    2.6960 O.2   100  GLY100     -0.2717
    118  N         12.1580   58.9240    2.1070 N.am  101  SER101     -0.1952
    119  CA        12.3940   58.4540    3.4730 C.3   101  SER101      0.1924
    120  C         13.8440   58.6410    3.9120 C.2   101  SER101      0.2314
    121  O         14.7160   58.9840    3.1150 O.2   101  SER101     -0.2863
    122  CB        12.0090   56.9900    3.6170 C.3   101  SER101      0.2116
    123  OG        13.0280   56.1100    3.1680 O.3   101  SER101     -0.2180
    124  N         16.4430   56.9100    1.8000 N.3   104  GLU104     -0.1245
    125  CA        16.8910   57.6210    0.5960 C.3   104  GLU104      0.1567
    126  C         17.7460   58.8430    0.9580 C.2   104  GLU104      0.2260
    127  O         18.7850   59.0970    0.3570 O.2   104  GLU104     -0.2867
    128  CB        15.6900   58.1130   -0.2230 C.3   104  GLU104      0.0388
    129  CG        14.9490   57.0340   -1.0000 C.3   104  GLU104      0.1160
    130  CD        14.1560   56.0930   -0.1180 C.2   104  GLU104      0.3649
    131  OE1       13.2860   56.5610    0.6570 O.co2 104  GLU104     -0.2457
    132  OE2       14.3990   54.8770   -0.2040 O.co2 104  GLU104     -0.2457
    133  N         12.6020   53.4060    6.7770 N.3   145  ARG145     -0.1231
    134  CA        11.8750   53.4530    5.4920 C.3   145  ARG145      0.1694
    135  C         10.4840   54.1220    5.5770 C.2   145  ARG145      0.2592
    136  O          9.9780   54.5950    4.5790 O.2   145  ARG145     -0.2718
    137  CB        11.7470   52.0410    4.8900 C.3   145  ARG145      0.0321
    138  CG        10.9710   51.0480    5.7490 C.3   145  ARG145      0.0489
    139  CD        10.9480   49.6220    5.1800 C.3   145  ARG145      0.2205
    140  NE        10.7120   48.6980    6.2820 N.pl3 145  ARG145     -0.0865
    141  CZ         9.5250   48.3980    6.8070 C.cat 145  ARG145      0.5346
    142  NH1        8.3950   48.9030    6.3120 N.pl3 145  ARG145      0.1354
    143  NH2        9.4630   47.5710    7.8440 N.pl3 145  ARG145      0.1354
    144  N          9.8940   54.1660    6.7700 N.am  146  ASN146     -0.1974
    145  CA         8.5760   54.7700    6.9820 C.3   146  ASN146      0.1688
    146  C          8.6670   56.1660    7.6340 C.2   146  ASN146      0.2292
    147  O          7.6590   56.7380    8.0200 O.2   146  ASN146     -0.2864
    148  CB         7.6950   53.8550    7.8420 C.3   146  ASN146      0.1181
    149  CG         7.1940   52.6360    7.0830 C.2   146  ASN146      0.2629
    150  OD1        7.0350   52.6690    5.8660 O.2   146  ASN146     -0.2716
    151  ND2        6.9360   51.5530    7.8080 N.am  146  ASN146     -0.0877
    152  N          9.5630   59.8820    6.7290 N.3   148  LEU148     -0.1245
    153  CA         9.7590   60.7610    5.5850 C.3   148  LEU148      0.1561
    154  C         10.4720   62.0470    6.0140 C.2   148  LEU148      0.2260
    155  O         10.3310   62.4870    7.1400 O.2   148  LEU148     -0.2867
    156  CB         8.4180   61.1090    4.9700 C.3   148  LEU148      0.0270
    157  CG         7.6070   59.9850    4.3230 C.3   148  LEU148      0.0019
    158  CD1        6.2480   60.5040    3.8550 C.3   148  LEU148      0.0001
    159  CD2        8.3560   59.3720    3.1520 C.3   148  LEU148      0.0001
    160  N          5.3860   58.4240    7.8660 N.3   158  GLY158     -0.1210
    161  CA         4.7850   58.5090    6.5350 C.3   158  GLY158      0.1956
    162  C          4.0080   57.3130    6.0250 C.2   158  GLY158      0.2611
    163  O          3.6110   57.2830    4.8570 O.2   158  GLY158     -0.2717
    164  N          3.7740   56.3270    6.8760 N.am  159  ASP159     -0.1973
    165  CA         2.9250   55.2000    6.4830 C.3   159  ASP159      0.1709
    166  C          2.3050   54.5830    7.6920 C.2   159  ASP159      0.2293
    167  O          2.8920   54.6180    8.7490 O.2   159  ASP159     -0.2864
    168  CB         3.7090   54.1440    5.7290 C.3   159  ASP159      0.1436
    169  CG         2.8040   53.0650    5.1660 C.2   159  ASP159      0.3671
    170  OD1        2.1690   53.3100    4.1140 O.co2 159  ASP159     -0.2456
    171  OD2        2.7080   51.9910    5.7930 O.co2 159  ASP159     -0.2456
@<TRIPOS>BOND
     1     1     2    1
     2     5     2    1
     3     5     6    1
     4     2     3    1
     5     7     6    1
     6     7     8    1
     7     3     4    2
     8     8     9    2
     9    49    48    1
    10     9    10    1
    11     9    11    1
    12    48    47    1
    13    47    46    1
    14    31    30   ar
    15    12    13    1
    16    46    45    1
    17    32    30   ar
    18    30    29    1
    19   104   105   ar
    20   104   102   ar
    21    19    17    1
    22    53    52    2
    23   105   103   ar
    24    13    16    1
    25    13    14    1
    26    17    16    1
    27    17    18    1
    28    45    42    1
    29    52    51    1
    30   102   100   ar
    31   103   101   ar
    32    29    28    1
    33    14    20   am
    34    14    15    2
    35    20    21    1
    36   100   101   ar
    37   100    99    1
    38    23    22    2
    39    28    25    1
    40    51    50    1
    41    51    54    1
    42    50    43   am
    43    57    58    1
    44    43    44    2
    45    43    42    1
    46    42    41    1
    47    58    59    1
    48    58    61    1
    49    59    60    2
    50    99    96    1
    51    22    21    1
    52    22    24   am
    53    41    39   am
    54    64    65    2
    55    64    63    1
    56    62    63    1
    57    55    54    1
    58    24    25    1
    59    25    26    1
    60    54    56    1
    61    63    66    1
    62    36    35    2
    63    39    40    2
    64    39    38    1
    65    96    95    1
    66    96    97    1
    67    38    37    1
    68    81    80    2
    69   129   128    1
    70   129   130    1
    71    26    33   am
    72    26    27    2
    73    98    97    2
    74    95    88   am
    75    97   106   am
    76    33    34    1
    77    35    34    1
    78   108   109    2
    79   108   107    1
    80    66    67    1
    81   106   107    1
    82    78    79    1
    83   128   125    1
    84   132   130   ar
    85   130   131   ar
    86    67    68    1
    87    88    87    1
    88    88    89    2
    89   114   115    1
    90    80    79    1
    91    80    86   am
    92   107   110    1
    93   127   126    2
    94   115   116    1
    95    87    86    1
    96    87    90    1
    97   125   126    1
    98   125   124    1
    99    79    82    1
   100    85    84    1
   101    82    83    1
   102    68    69    1
   103    90    91    1
   104   110   111    1
   105   116   118   am
   106   116   117    2
   107    69    70    1
   108   118   119    1
   109    83    84    1
   110   112   111    1
   111   111   113    1
   112    91    92    1
   113   121   120    2
   114   159   157    1
   115   123   122    1
   116   119   122    1
   117   119   120    1
   118    93    92   ar
   119   158   157    1
   120    92    94   ar
   121   170   169   ar
   122   157   156    1
   123    77    75    1
   124   136   135    2
   125   163   162    2
   126   137   134    1
   127   137   138    1
   128   156   153    1
   129   169   168    1
   130   169   171   ar
   131   139   138    1
   132   139   140    1
   133   134   135    1
   134   134   133    1
   135   135   144   am
   136   153   154    1
   137   153   152    1
   138   168   165    1
   139   150   149    2
   140    75    76    1
   141    75    72    1
   142   154   155    2
   143   162   161    1
   144   162   164   am
   145   140   141    2
   146   142   141    1
   147   165   164    1
   148   165   166    1
   149   161   160    1
   150    73    72    1
   151    73    74    2
   152   144   145    1
   153   141   143    1
   154    72    71    1
   155   145   146    1
   156   145   148    1
   157   149   151   am
   158   149   148    1
   159   146   147    2
   160   166   167    2
