@<TRIPOS>MOLECULE
tmp/4ivfB00.pdb
 118 113 0 0 0
SMALL
GASTEIGER

@<TRIPOS>ATOM
      1  N         67.9310   63.9740   66.8630 N.3    11  THR11      -0.1204
      2  CA        67.9650   62.6030   67.3540 C.3    11  THR11       0.1979
      3  C         67.3830   61.7190   66.2480 C.2    11  THR11       0.2460
      4  O         66.8010   62.2360   65.2980 O.2    11  THR11      -0.2732
      5  CB        67.1250   62.4320   68.6650 C.3    11  THR11       0.1783
      6  OG1       65.7340   62.6460   68.3940 O.3    11  THR11      -0.2211
      7  CG2       67.5820   63.3790   69.7570 C.3    11  THR11       0.0376
      8  N         67.5530   60.3900   66.3560 N.am   12  PRO12      -0.2717
      9  CA        66.9570   59.4610   65.3850 C.3    12  PRO12       0.1535
     10  C         65.4630   59.7100   65.1630 C.2    12  PRO12       0.2598
     11  O         65.0090   59.7310   64.0210 O.2    12  PRO12      -0.2715
     12  CB        67.1330   58.0990   66.0570 C.3    12  PRO12       0.0310
     13  CG        68.2940   58.2510   66.9340 C.3    12  PRO12       0.0237
     14  CD        68.4140   59.6910   67.3270 C.3    12  PRO12       0.0939
     15  N         64.7180   59.9030   66.2470 N.am   13  ASN13      -0.1973
     16  CA        63.2710   60.1040   66.1550 C.3    13  ASN13       0.1688
     17  C         62.8980   61.4360   65.5170 C.2    13  ASN13       0.2292
     18  O         61.8910   61.5260   64.8270 O.2    13  ASN13      -0.2864
     19  CB        62.6190   59.9840   67.5320 C.3    13  ASN13       0.1181
     20  CG        62.6890   58.5850   68.0820 C.2    13  ASN13       0.2629
     21  OD1       62.3660   57.6250   67.3890 O.2    13  ASN13      -0.2716
     22  ND2       63.1230   58.4560   69.3340 N.am   13  ASN13      -0.0877
     23  N         63.4580   60.9780   61.6270 N.3    16  LYS16      -0.1245
     24  CA        62.3330   60.2780   61.0000 C.3    16  LYS16       0.1561
     25  C         61.3420   61.2570   60.3760 C.2    16  LYS16       0.2260
     26  O         60.9420   61.1070   59.2190 O.2    16  LYS16      -0.2867
     27  CB        61.5750   59.4600   62.0380 C.3    16  LYS16       0.0271
     28  CG        62.2020   58.1450   62.4540 C.3    16  LYS16       0.0035
     29  CD        61.3550   57.5460   63.5810 C.3    16  LYS16       0.0206
     30  CE        62.0100   56.3480   64.2330 C.3    16  LYS16       0.1093
     31  NZ        61.2040   55.8620   65.3910 N.3    16  LYS16      -0.1314
     32  N         67.6840   68.7970   74.9120 N.3    35  LEU35      -0.1245
     33  CA        67.3640   67.6760   75.7860 C.3    35  LEU35       0.1561
     34  C         68.2050   67.6530   77.0650 C.2    35  LEU35       0.2260
     35  O         67.7880   67.0940   78.0830 O.2    35  LEU35      -0.2867
     36  CB        67.4930   66.3520   75.0230 C.3    35  LEU35       0.0270
     37  CG        66.1990   65.7980   74.4130 C.3    35  LEU35       0.0019
     38  CD1       65.4750   66.8280   73.5740 C.3    35  LEU35       0.0001
     39  CD2       66.4920   64.5600   73.5870 C.3    35  LEU35       0.0001
     40  N         58.0020   64.4170   75.4420 N.3    53  ARG53      -0.1245
     41  CA        59.0930   63.9490   74.5870 C.3    53  ARG53       0.1563
     42  C         58.8730   64.4610   73.1590 C.2    53  ARG53       0.2260
     43  O         57.7300   64.6730   72.7420 O.2    53  ARG53      -0.2867
     44  CB        59.1510   62.4220   74.5740 C.3    53  ARG53       0.0307
     45  CG        59.1460   61.7670   75.9480 C.3    53  ARG53       0.0489
     46  CD        59.4430   60.2840   75.8690 C.3    53  ARG53       0.2205
     47  NE        60.8760   59.9960   75.8320 N.pl3  53  ARG53      -0.0865
     48  CZ        61.3840   58.7770   75.6890 C.cat  53  ARG53       0.5346
     49  NH1       60.5730   57.7380   75.5580 N.pl3  53  ARG53       0.1354
     50  NH2       62.6990   58.5940   75.6660 N.pl3  53  ARG53       0.1354
     51  N         58.9970   51.1060   65.8310 N.3   111  VAL111     -0.1245
     52  CA        58.7790   51.9840   66.9800 C.3   111  VAL111      0.1561
     53  C         58.6030   51.2060   68.2740 C.2   111  VAL111      0.2260
     54  O         58.7500   51.7610   69.3510 O.2   111  VAL111     -0.2867
     55  CB        57.6010   52.9660   66.7850 C.3   111  VAL111      0.0252
     56  CG1       57.8210   53.8420   65.5450 C.3   111  VAL111      0.0019
     57  CG2       56.2580   52.2230   66.7340 C.3   111  VAL111      0.0019
     58  N         63.5900   50.9730   67.9030 N.3   115  GLY115     -0.1210
     59  CA        63.7430   52.2220   68.6290 C.3   115  GLY115      0.1940
     60  C         64.0130   52.0750   70.1210 C.2   115  GLY115      0.2453
     61  O         65.0510   52.5390   70.6160 O.2   115  GLY115     -0.2732
     62  N         63.0750   51.4450   70.8530 N.am  116  PRO116     -0.2728
     63  CA        63.2250   51.2690   72.3020 C.3   116  PRO116      0.1401
     64  C         64.4930   50.5140   72.6980 C.2   116  PRO116      0.2269
     65  O         65.1460   50.9050   73.6660 O.2   116  PRO116     -0.2865
     66  CB        61.9890   50.4600   72.6770 C.3   116  PRO116      0.0296
     67  CG        60.9640   50.8940   71.6890 C.3   116  PRO116      0.0237
     68  CD        61.7290   51.0520   70.3960 C.3   116  PRO116      0.0939
     69  N         67.7830   52.4330   71.7830 N.3   119  GLY119     -0.1210
     70  CA        67.7860   53.5450   72.7160 C.3   119  GLY119      0.1956
     71  C         68.3530   53.1370   74.0660 C.2   119  GLY119      0.2611
     72  O         69.0940   53.8940   74.6980 O.2   119  GLY119     -0.2717
     73  N         68.0020   51.9350   74.5140 N.am  120  GLN120     -0.1979
     74  CA        68.5220   51.4310   75.7740 C.3   120  GLN120      0.1601
     75  C         70.0230   51.1910   75.6490 C.2   120  GLN120      0.2287
     76  O         70.7800   51.5320   76.5530 O.2   120  GLN120     -0.2864
     77  CB        67.8130   50.1460   76.2050 C.3   120  GLN120      0.0394
     78  CG        66.3050   50.2750   76.3910 C.3   120  GLN120      0.0908
     79  CD        65.8850   51.6160   76.9790 C.2   120  GLN120      0.2608
     80  OE1       66.2170   51.9490   78.1150 O.2   120  GLN120     -0.2717
     81  NE2       65.1390   52.3860   76.2020 N.am  120  GLN120     -0.0878
     82  N         72.0630   52.7950   73.6740 N.3   122  ASN122     -0.1225
     83  CA        72.6870   54.1160   73.7150 C.3   122  ASN122      0.1785
     84  C         72.7730   54.6520   75.1400 C.2   122  ASN122      0.2597
     85  O         73.7540   55.3000   75.5030 O.2   122  ASN122     -0.2718
     86  CB        71.9650   55.1280   72.8210 C.3   122  ASN122      0.1169
     87  CG        72.0280   54.7690   71.3510 C.2   122  ASN122      0.2627
     88  OD1       72.9040   54.0250   70.9180 O.2   122  ASN122     -0.2716
     89  ND2       71.0900   55.3030   70.5710 N.am  122  ASN122     -0.0877
     90  N         71.7450   54.3860   75.9460 N.am  123  HIS123     -0.1975
     91  CA        71.7690   54.8330   77.3330 C.3   123  HIS123      0.1656
     92  C         72.8260   54.1140   78.1770 C.2   123  HIS123      0.2291
     93  O         73.4850   54.7340   79.0040 O.2   123  HIS123     -0.2864
     94  CB        70.4140   54.6890   78.0270 C.3   123  HIS123      0.0771
     95  CG        70.4880   54.9640   79.4970 C.ar  123  HIS123      0.0820
     96  ND1       70.4160   56.2360   80.0180 N.ar  123  HIS123     -0.2267
     97  CD2       70.6960   54.1360   80.5500 C.ar  123  HIS123      0.1154
     98  CE1       70.5450   56.1790   81.3320 C.ar  123  HIS123      0.1986
     99  NE2       70.7230   54.9160   81.6800 N.ar  123  HIS123     -0.2212
    100  N         74.9750   57.3210   78.2760 N.3   127  ALA127     -0.1245
    101  CA        74.3690   58.2950   79.1780 C.3   127  ALA127      0.1562
    102  C         74.4070   57.9200   80.6560 C.2   127  ALA127      0.2260
    103  O         74.3390   58.7990   81.5190 O.2   127  ALA127     -0.2867
    104  CB        72.9310   58.5860   78.7410 C.3   127  ALA127      0.0290
    105  N         67.1660   55.4680   62.9230 N.3   180  TRP180     -0.1241
    106  CA        67.9890   54.7650   63.9040 C.3   180  TRP180      0.1605
    107  C         69.2180   54.0710   63.2870 C.2   180  TRP180      0.2264
    108  O         70.2630   53.9650   63.9330 O.2   180  TRP180     -0.2867
    109  CB        67.1430   53.7940   64.7330 C.3   180  TRP180      0.0550
    110  CG        66.3480   54.5110   65.7590 C.ar  180  TRP180      0.0003
    111  CD1       65.1100   55.0670   65.6010 C.ar  180  TRP180      0.0946
    112  CD2       66.7470   54.7940   67.1040 C.ar  180  TRP180      0.0152
    113  NE1       64.7070   55.6670   66.7700 N.ar  180  TRP180     -0.2442
    114  CE2       65.6910   55.5110   67.7110 C.ar  180  TRP180      0.0810
    115  CE3       67.8880   54.5020   67.8590 C.ar  180  TRP180      0.0012
    116  CZ2       65.7450   55.9420   69.0350 C.ar  180  TRP180      0.0191
    117  CZ3       67.9400   54.9330   69.1740 C.ar  180  TRP180      0.0001
    118  CH2       66.8750   55.6440   69.7470 C.ar  180  TRP180      0.0015
@<TRIPOS>BOND
     1    26    25    2
     2    25    24    1
     3    24    23    1
     4    24    27    1
     5    27    28    1
     6    28    29    1
     7   105   106    1
     8   107   106    1
     9   107   108    2
    10    29    30    1
    11   106   109    1
    12    11    10    2
    13    30    31    1
    14   109   110    1
    15    18    17    2
    16    10     9    1
    17    10    15   am
    18     4     3    2
    19     9    12    1
    20     9     8    1
    21    17    16    1
    22    56    55    1
    23   111   110   ar
    24   111   113   ar
    25   110   112   ar
    26    51    52    1
    27    12    13    1
    28    16    15    1
    29    16    19    1
    30     3     8   am
    31     3     2    1
    32     8    14    1
    33    57    55    1
    34   113   114   ar
    35    55    52    1
    36     1     2    1
    37    13    14    1
    38    52    53    1
    39   112   114   ar
    40   112   115   ar
    41     2     5    1
    42    21    20    2
    43    19    20    1
    44   114   116   ar
    45   115   117   ar
    46    58    59    1
    47    20    22   am
    48    53    54    2
    49     6     5    1
    50    59    60    1
    51     5     7    1
    52   116   118   ar
    53   117   118   ar
    54    60    61    2
    55    60    62   am
    56    68    62    1
    57    68    67    1
    58    89    87   am
    59    62    63    1
    60    88    87    2
    61    87    86    1
    62    67    66    1
    63    69    70    1
    64    63    66    1
    65    63    64    1
    66    64    65    2
    67    70    71    1
    68    43    42    2
    69    86    83    1
    70    42    41    1
    71    38    37    1
    72    39    37    1
    73    82    83    1
    74    83    84    1
    75    71    73   am
    76    71    72    2
    77    37    36    1
    78    73    74    1
    79    44    41    1
    80    44    45    1
    81    41    40    1
    82    32    33    1
    83    36    33    1
    84    84    85    2
    85    84    90   am
    86    49    48    1
    87    75    74    1
    88    75    76    2
    89    50    48    1
    90    48    47    2
    91    74    77    1
    92    33    34    1
    93    47    46    1
    94    46    45    1
    95    90    91    1
    96    81    79   am
    97    77    78    1
    98    78    79    1
    99    79    80    2
   100    34    35    2
   101    91    94    1
   102    91    92    1
   103    94    95    1
   104    92    93    2
   105   100   101    1
   106   104   101    1
   107   101   102    1
   108    95    96   ar
   109    95    97   ar
   110    96    98   ar
   111    97    99   ar
   112   102   103    2
   113    98    99   ar
