@<TRIPOS>MOLECULE
tmp/4ivfE00.pdb
 139 135 0 0 0
SMALL
GASTEIGER

@<TRIPOS>ATOM
      1  N         36.0150   31.7550   19.9820 N.3    10  PRO10      -0.2102
      2  CA        36.7530   32.6000   19.0270 C.3    10  PRO10       0.1504
      3  C         35.9310   33.8030   18.5530 C.2    10  PRO10       0.2576
      4  O         35.3840   33.8220   17.4450 O.2    10  PRO10      -0.2718
      5  CB        37.0630   31.6320   17.8690 C.3    10  PRO10       0.0282
      6  CG        35.9390   30.6670   17.8840 C.3    10  PRO10       0.0208
      7  CD        35.5250   30.5130   19.3460 C.3    10  PRO10       0.0893
      8  N         35.8560   34.8100   19.4140 N.am   11  THR11      -0.1940
      9  CA        35.0470   35.9950   19.1860 C.3    11  THR11       0.2013
     10  C         35.8750   37.1860   19.6720 C.2    11  THR11       0.2484
     11  O         36.8450   36.9920   20.4120 O.2    11  THR11      -0.2729
     12  CB        33.7140   35.9030   20.0000 C.3    11  THR11       0.1807
     13  OG1       34.0100   35.7150   21.3850 O.3    11  THR11      -0.2208
     14  CG2       32.8920   34.7270   19.5560 C.3    11  THR11       0.0379
     15  N         35.5060   38.4150   19.2620 N.am   12  PRO12      -0.2726
     16  CA        36.1340   39.6450   19.7580 C.3    12  PRO12       0.1402
     17  C         36.4070   39.6590   21.2600 C.2    12  PRO12       0.2269
     18  O         37.5280   39.9830   21.6720 O.2    12  PRO12      -0.2865
     19  CB        35.1040   40.7120   19.4100 C.3    12  PRO12       0.0296
     20  CG        34.4870   40.2160   18.1540 C.3    12  PRO12       0.0237
     21  CD        34.4810   38.7100   18.2410 C.3    12  PRO12       0.0939
     22  N         29.0140   28.3350   20.9240 N.3    35  LEU35      -0.1245
     23  CA        27.8950   29.2530   21.1490 C.3    35  LEU35       0.1561
     24  C         26.6250   28.8320   20.4010 C.2    35  LEU35       0.2260
     25  O         25.5190   29.1770   20.8210 O.2    35  LEU35      -0.2867
     26  CB        28.2680   30.6900   20.7800 C.3    35  LEU35       0.0270
     27  CG        29.3550   31.3720   21.6100 C.3    35  LEU35       0.0019
     28  CD1       29.4170   32.8650   21.3010 C.3    35  LEU35       0.0001
     29  CD2       29.1470   31.1420   23.0970 C.3    35  LEU35       0.0001
     30  N         28.3090   44.7880   18.3820 N.3   119  GLY119     -0.1225
     31  CA        27.6520   43.5100   18.5450 C.3   119  GLY119      0.1811
     32  C         26.2200   43.5360   18.0170 C.2   119  GLY119      0.2280
     33  O         25.7680   42.5590   17.4370 O.2   119  GLY119     -0.2866
     34  N         26.4580   43.4220   14.1300 N.3   122  ASN122     -0.1225
     35  CA        26.6570   42.0350   13.7400 C.3   122  ASN122      0.1785
     36  C         25.3300   41.2650   13.7720 C.2   122  ASN122      0.2597
     37  O         25.0050   40.5380   12.8320 O.2   122  ASN122     -0.2718
     38  CB        27.6620   41.3410   14.6640 C.3   122  ASN122      0.1169
     39  CG        29.0760   41.8970   14.5410 C.2   122  ASN122      0.2627
     40  OD1       29.4160   42.5970   13.5850 O.2   122  ASN122     -0.2716
     41  ND2       29.9070   41.5670   15.5130 N.am  122  ASN122     -0.0877
     42  N         24.5680   41.4330   14.8500 N.am  123  HIS123     -0.1975
     43  CA        23.3010   40.7200   14.9510 C.3   123  HIS123      0.1656
     44  C         22.3830   41.0010   13.7630 C.2   123  HIS123      0.2291
     45  O         21.9410   40.0750   13.1040 O.2   123  HIS123     -0.2864
     46  CB        22.5340   41.0090   16.2380 C.3   123  HIS123      0.0771
     47  CG        21.2180   40.3030   16.2800 C.ar  123  HIS123      0.0820
     48  ND1       21.1090   38.9620   16.5770 N.ar  123  HIS123     -0.2267
     49  CD2       19.9680   40.7200   15.9600 C.ar  123  HIS123      0.1154
     50  CE1       19.8440   38.5930   16.4840 C.ar  123  HIS123      0.1986
     51  NE2       19.1340   39.6420   16.1090 N.ar  123  HIS123     -0.2212
     52  N         24.1380   39.9450   10.1150 N.3   126  PHE126     -0.1227
     53  CA        24.2740   38.5370    9.7240 C.3   126  PHE126      0.1736
     54  C         23.7680   37.4290   10.6610 C.2   126  PHE126      0.2595
     55  O         23.8340   36.2670   10.2970 O.2   126  PHE126     -0.2718
     56  CB        25.7070   38.2160    9.2800 C.3   126  PHE126      0.0547
     57  CG        26.7550   38.6760   10.2410 C.ar  126  PHE126     -0.0202
     58  CD1       27.4970   39.8150    9.9790 C.ar  126  PHE126     -0.0042
     59  CD2       26.9960   37.9770   11.4060 C.ar  126  PHE126     -0.0042
     60  CE1       28.4660   40.2410   10.8530 C.ar  126  PHE126     -0.0003
     61  CE2       27.9630   38.4020   12.2940 C.ar  126  PHE126     -0.0003
     62  CZ        28.7020   39.5350   12.0140 C.ar  126  PHE126     -0.0000
     63  N         23.2560   37.7560   11.8400 N.am  127  ALA127     -0.1980
     64  CA        22.7180   36.7120   12.7240 C.3   127  ALA127      0.1597
     65  C         21.1870   36.6310   12.6950 C.2   127  ALA127      0.2287
     66  O         20.6020   35.5430   12.7390 O.2   127  ALA127     -0.2864
     67  CB        23.2020   36.9200   14.1500 C.3   127  ALA127      0.0319
     68  N         37.5620   43.7930   18.7270 N.3   180  TRP180     -0.1241
     69  CA        36.3870   44.1300   17.9240 C.3   180  TRP180      0.1605
     70  C         36.7720   44.7420   16.5850 C.2   180  TRP180      0.2264
     71  O         36.0850   44.5480   15.5880 O.2   180  TRP180     -0.2867
     72  CB        35.4190   45.0430   18.6960 C.3   180  TRP180      0.0550
     73  CG        34.5610   44.2810   19.6520 C.ar  180  TRP180      0.0003
     74  CD1       34.8510   43.9700   20.9520 C.ar  180  TRP180      0.0946
     75  CD2       33.2800   43.6990   19.3790 C.ar  180  TRP180      0.0152
     76  NE1       33.8290   43.2360   21.5060 N.ar  180  TRP180     -0.2442
     77  CE2       32.8520   43.0560   20.5620 C.ar  180  TRP180      0.0810
     78  CE3       32.4580   43.6570   18.2520 C.ar  180  TRP180      0.0012
     79  CZ2       31.6330   42.3870   20.6500 C.ar  180  TRP180      0.0191
     80  CZ3       31.2410   42.9910   18.3370 C.ar  180  TRP180      0.0001
     81  CH2       30.8430   42.3640   19.5280 C.ar  180  TRP180      0.0015
     82  N         37.1110   42.2900   13.6520 N.3   183  ARG183     -0.1245
     83  CA        35.9530   41.7730   12.9330 C.3   183  ARG183      0.1563
     84  C         35.1520   42.8840   12.2640 C.2   183  ARG183      0.2260
     85  O         34.0620   42.6520   11.7580 O.2   183  ARG183     -0.2867
     86  CB        35.0480   40.9580   13.8680 C.3   183  ARG183      0.0307
     87  CG        35.6910   39.6530   14.3650 C.3   183  ARG183      0.0489
     88  CD        36.2470   38.8460   13.1980 C.3   183  ARG183      0.2205
     89  NE        36.6790   37.5180   13.6110 N.pl3 183  ARG183     -0.0865
     90  CZ        37.4470   36.7170   12.8720 C.cat 183  ARG183      0.5346
     91  NH1       37.8770   37.1180   11.6780 N.pl3 183  ARG183      0.1354
     92  NH2       37.7960   35.5210   13.3320 N.pl3 183  ARG183      0.1354
     93  N         33.7010   42.4720    8.7050 N.3   186  ARG186     -0.1245
     94  CA        32.4850   41.6920    8.4640 C.3   186  ARG186      0.1563
     95  C         31.2240   42.5370    8.2740 C.2   186  ARG186      0.2260
     96  O         30.2510   42.0750    7.6880 O.2   186  ARG186     -0.2867
     97  CB        32.2780   40.6620    9.5640 C.3   186  ARG186      0.0307
     98  CG        33.0970   39.4320    9.3190 C.3   186  ARG186      0.0489
     99  CD        32.2800   38.3910    8.6410 C.3   186  ARG186      0.2205
    100  NE        31.5530   37.6700    9.6650 N.pl3 186  ARG186     -0.0865
    101  CZ        30.5640   36.8250    9.4400 C.cat 186  ARG186      0.5346
    102  NH1       30.1620   36.5790    8.1980 N.pl3 186  ARG186      0.1354
    103  NH2       29.9800   36.2330   10.4730 N.pl3 186  ARG186      0.1354
    104  N         39.0640   28.9520   15.0530 N.3   219  LYS219     -0.1245
    105  CA        37.7150   29.1320   14.5310 C.3   219  LYS219      0.1561
    106  C         37.5210   28.2950   13.2690 C.2   219  LYS219      0.2260
    107  O         38.2710   28.4510   12.3110 O.2   219  LYS219     -0.2867
    108  CB        37.4590   30.6030   14.2050 C.3   219  LYS219      0.0271
    109  CG        36.0050   30.8920   13.8500 C.3   219  LYS219      0.0035
    110  CD        35.7120   32.3830   13.7370 C.3   219  LYS219      0.0206
    111  CE        34.1990   32.6480   13.5530 C.3   219  LYS219      0.1093
    112  NZ        33.9370   34.0710   13.1810 N.3   219  LYS219     -0.1314
    113  N         31.6440   27.6700   12.0280 N.3   223  ASN223     -0.1225
    114  CA        31.2120   28.6450   13.0340 C.3   223  ASN223      0.1785
    115  C         30.6120   29.9170   12.4370 C.2   223  ASN223      0.2597
    116  O         30.1760   30.8110   13.1660 O.2   223  ASN223     -0.2718
    117  CB        32.3670   29.0120   13.9710 C.3   223  ASN223      0.1169
    118  CG        32.8540   27.8300   14.8010 C.2   223  ASN223      0.2627
    119  OD1       34.0570   27.6870   15.0600 O.2   223  ASN223     -0.2716
    120  ND2       31.9220   26.9740   15.2210 N.am  223  ASN223     -0.0877
    121  N         30.6050   30.0090   11.1110 N.am  224  LEU224     -0.1980
    122  CA        30.0640   31.1870   10.4360 C.3   224  LEU224      0.1596
    123  C         28.5760   31.0410   10.1170 C.2   224  LEU224      0.2287
    124  O         27.9210   32.0030    9.7210 O.2   224  LEU224     -0.2864
    125  CB        30.8460   31.4610    9.1540 C.3   224  LEU224      0.0297
    126  CG        32.2490   32.0610    9.2790 C.3   224  LEU224      0.0022
    127  CD1       32.8730   32.1980    7.9080 C.3   224  LEU224      0.0001
    128  CD2       32.1900   33.4120    9.9730 C.3   224  LEU224      0.0001
    129  N         24.7110   30.7590   10.8690 N.3   226  PHE226     -0.1241
    130  CA        23.7080   31.0990   11.8770 C.3   226  PHE226      0.1605
    131  C         22.3570   30.4610   11.5410 C.2   226  PHE226      0.2264
    132  O         21.9040   29.5400   12.2300 O.2   226  PHE226     -0.2867
    133  CB        23.5550   32.6200   11.9930 C.3   226  PHE226      0.0534
    134  CG        24.7430   33.3100   12.6090 C.ar  226  PHE226     -0.0203
    135  CD1       25.8610   33.6170   11.8470 C.ar  226  PHE226     -0.0042
    136  CD2       24.7360   33.6670   13.9550 C.ar  226  PHE226     -0.0042
    137  CE1       26.9520   34.2610   12.4170 C.ar  226  PHE226     -0.0003
    138  CE2       25.8190   34.3120   14.5260 C.ar  226  PHE226     -0.0003
    139  CZ        26.9300   34.6070   13.7640 C.ar  226  PHE226     -0.0000
@<TRIPOS>BOND
     1    96    95    2
     2   127   126    1
     3   102   101    1
     4    95    94    1
     5    94    93    1
     6    94    97    1
     7    99    98    1
     8    99   100    1
     9   125   126    1
    10   125   122    1
    11   126   128    1
    12    56    53    1
    13    56    57    1
    14    98    97    1
    15   101   100    2
    16   101   103    1
    17   124   123    2
    18    53    52    1
    19    53    54    1
    20    58    57   ar
    21    58    60   ar
    22   123   122    1
    23    57    59   ar
    24    55    54    2
    25   122   121    1
    26    54    63   am
    27    60    62   ar
    28   129   130    1
    29   121   115   am
    30    59    61   ar
    31   131   130    1
    32   131   132    2
    33    91    90    1
    34    85    84    2
    35    63    64    1
    36   135   137   ar
    37   135   134   ar
    38   130   133    1
    39   133   134    1
    40    62    61   ar
    41   113   114    1
    42    84    83    1
    43   107   106    2
    44   137   139   ar
    45   115   114    1
    46   115   116    2
    47   134   136   ar
    48    65    64    1
    49    65    66    2
    50    64    67    1
    51    37    36    2
    52    90    92    1
    53    90    89    2
    54    83    82    1
    55    83    86    1
    56   114   117    1
    57    45    44    2
    58   112   111    1
    59    88    89    1
    60    88    87    1
    61   106   105    1
    62   111   110    1
    63    40    39    2
    64   110   109    1
    65    35    36    1
    66    35    34    1
    67    35    38    1
    68    44    43    1
    69   139   138   ar
    70    36    42   am
    71   109   108    1
    72    86    87    1
    73   136   138   ar
    74   117   118    1
    75   108   105    1
    76   105   104    1
    77    39    38    1
    78    39    41   am
    79   118   119    2
    80   118   120   am
    81    42    43    1
    82    43    46    1
    83    71    70    2
    84    49    51   ar
    85    49    47   ar
    86    51    50   ar
    87    46    47    1
    88    47    48   ar
    89    50    48   ar
    90    70    69    1
    91    33    32    2
    92     4     3    2
    93     5     6    1
    94     5     2    1
    95     6     7    1
    96    69    72    1
    97    69    68    1
    98    32    31    1
    99    20    21    1
   100    20    19    1
   101    21    15    1
   102    78    80   ar
   103    78    75   ar
   104    80    81   ar
   105    30    31    1
   106     3     2    1
   107     3     8   am
   108    72    73    1
   109     2     1    1
   110     9     8    1
   111     9    10    1
   112     9    12    1
   113    15    10   am
   114    15    16    1
   115     7     1    1
   116    75    73   ar
   117    75    77   ar
   118    19    16    1
   119    81    79   ar
   120    14    12    1
   121    73    74   ar
   122    10    11    2
   123    16    17    1
   124    12    13    1
   125    24    25    2
   126    24    23    1
   127    77    79   ar
   128    77    76   ar
   129    26    23    1
   130    26    27    1
   131    22    23    1
   132    74    76   ar
   133    17    18    2
   134    28    27    1
   135    27    29    1
