@<TRIPOS>MOLECULE
tmp/4ivfF01.pdb
 145 139 0 0 0
SMALL
GASTEIGER

@<TRIPOS>ATOM
      1  N         19.5420   69.5790   91.2260 N.3    11  THR11      -0.1204
      2  CA        19.0340   70.9460   91.3340 C.3    11  THR11       0.1979
      3  C         17.7060   70.9930   90.5670 C.2    11  THR11       0.2460
      4  O         17.4750   70.1380   89.7050 O.2    11  THR11      -0.2732
      5  CB        20.0270   71.9620   90.6980 C.3    11  THR11       0.1783
      6  OG1       20.2280   71.6380   89.3190 O.3    11  THR11      -0.2211
      7  CG2       21.3930   71.9830   91.4290 C.3    11  THR11       0.0376
      8  N         16.8380   71.9850   90.8700 N.am   12  PRO12      -0.2717
      9  CA        15.5100   72.0740   90.2310 C.3    12  PRO12       0.1535
     10  C         15.6150   72.0440   88.7170 C.2    12  PRO12       0.2598
     11  O         14.7800   71.4440   88.0370 O.2    12  PRO12      -0.2715
     12  CB        14.9820   73.4550   90.6470 C.3    12  PRO12       0.0310
     13  CG        15.8960   73.9580   91.7140 C.3    12  PRO12       0.0237
     14  CD        17.1420   73.1480   91.7330 C.3    12  PRO12       0.0939
     15  N         16.6550   72.6920   88.1960 N.am   13  ASN13      -0.1973
     16  CA        16.8440   72.7730   86.7640 C.3    13  ASN13       0.1688
     17  C         17.2790   71.4510   86.1520 C.2    13  ASN13       0.2292
     18  O         16.7440   71.0390   85.1130 O.2    13  ASN13      -0.2864
     19  CB        17.8060   73.9030   86.4210 C.3    13  ASN13       0.1181
     20  CG        17.1260   75.2460   86.4580 C.2    13  ASN13       0.2629
     21  OD1       15.9450   75.3680   86.0940 O.2    13  ASN13      -0.2716
     22  ND2       17.8420   76.2560   86.9230 N.am   13  ASN13      -0.0877
     23  N         14.3090   68.9870   85.9330 N.3    16  LYS16      -0.1245
     24  CA        13.4090   69.2050   84.8030 C.3    16  LYS16       0.1561
     25  C         13.7610   68.2580   83.6740 C.2    16  LYS16       0.2260
     26  O         12.8940   67.6080   83.0890 O.2    16  LYS16      -0.2867
     27  CB        13.5240   70.6290   84.2710 C.3    16  LYS16       0.0271
     28  CG        12.9390   71.7210   85.1390 C.3    16  LYS16       0.0035
     29  CD        13.1010   73.0180   84.3830 C.3    16  LYS16       0.0206
     30  CE        13.0130   74.2590   85.2340 C.3    16  LYS16       0.1093
     31  NZ        13.3870   75.4440   84.3780 N.3    16  LYS16      -0.1314
     32  N         28.8320   72.1210   92.1540 N.3    35  LEU35      -0.1245
     33  CA        28.6930   73.5730   92.0290 C.3    35  LEU35       0.1561
     34  C         29.4780   74.3330   93.1110 C.2    35  LEU35       0.2260
     35  O         29.9070   75.4650   92.8860 O.2    35  LEU35      -0.2867
     36  CB        27.2040   73.9900   92.0210 C.3    35  LEU35       0.0270
     37  CG        26.4450   74.0230   90.6790 C.3    35  LEU35       0.0019
     38  CD1       26.9100   72.9370   89.7310 C.3    35  LEU35       0.0001
     39  CD2       24.9440   73.9120   90.8930 C.3    35  LEU35       0.0001
     40  N         32.6680   75.2930   91.6770 N.3    38  ASN38      -0.1240
     41  CA        32.6290   76.0830   90.4510 C.3    38  ASN38       0.1653
     42  C         32.9740   75.3020   89.1920 C.2    38  ASN38       0.2266
     43  O         33.6310   75.8310   88.2900 O.2    38  ASN38      -0.2867
     44  CB        33.5510   77.2960   90.5690 C.3    38  ASN38       0.1155
     45  CG        32.7840   78.5900   90.6480 C.2    38  ASN38       0.2627
     46  OD1       32.7370   79.3510   89.6850 O.2    38  ASN38      -0.2716
     47  ND2       32.1540   78.8380   91.7950 N.am   38  ASN38      -0.0877
     48  N         31.0680   74.2280   86.7220 N.3    40  THR40      -0.1203
     49  CA        30.4140   74.6280   85.4660 C.3    40  THR40       0.1994
     50  C         31.1220   75.8050   84.7930 C.2    40  THR40       0.2617
     51  O         30.7380   76.2220   83.6980 O.2    40  THR40      -0.2717
     52  CB        28.9260   75.0170   85.6420 C.3    40  THR40       0.1784
     53  OG1       28.8380   76.2330   86.3950 O.3    40  THR40      -0.2211
     54  CG2       28.1460   73.9120   86.3370 C.3    40  THR40       0.0376
     55  N         32.1470   76.3440   85.4500 N.am   41  LYS41      -0.1979
     56  CA        32.9130   77.4460   84.8790 C.3    41  LYS41       0.1596
     57  C         34.2670   77.0060   84.3110 C.2    41  LYS41       0.2287
     58  O         35.0610   77.8390   83.8650 O.2    41  LYS41      -0.2864
     59  CB        33.1030   78.5490   85.9140 C.3    41  LYS41       0.0298
     60  CG        31.8110   79.1210   86.4510 C.3    41  LYS41       0.0038
     61  CD        31.0310   79.8900   85.3870 C.3    41  LYS41       0.0206
     62  CE        29.7070   80.3800   85.9550 C.3    41  LYS41       0.1093
     63  NZ        28.7980   80.9390   84.9120 N.3    41  LYS41      -0.1314
     64  N         27.3940   79.9850   78.6040 N.3    51  ASN51      -0.1240
     65  CA        26.8080   80.4920   79.8430 C.3    51  ASN51       0.1653
     66  C         27.4300   79.8710   81.1090 C.2    51  ASN51       0.2266
     67  O         27.3520   80.4430   82.1910 O.2    51  ASN51      -0.2867
     68  CB        25.2850   80.2830   79.8270 C.3    51  ASN51       0.1155
     69  CG        24.5750   81.0460   80.9260 C.2    51  ASN51       0.2627
     70  OD1       25.0070   82.1210   81.3360 O.2    51  ASN51      -0.2716
     71  ND2       23.4710   80.4920   81.4040 N.am   51  ASN51      -0.0877
     72  N         26.6440   77.0450   82.8430 N.3    53  ARG53      -0.1231
     73  CA        25.6960   76.5140   83.8160 C.3    53  ARG53       0.1694
     74  C         25.1350   75.1790   83.3430 C.2    53  ARG53       0.2592
     75  O         25.1750   74.8660   82.1620 O.2    53  ARG53      -0.2718
     76  CB        24.5460   77.4940   84.0390 C.3    53  ARG53       0.0321
     77  CG        24.9850   78.8950   84.4310 C.3    53  ARG53       0.0489
     78  CD        23.7770   79.7450   84.7360 C.3    53  ARG53       0.2205
     79  NE        23.5620   79.8980   86.1660 N.pl3  53  ARG53      -0.0865
     80  CZ        22.6410   80.6910   86.7010 C.cat  53  ARG53       0.5346
     81  NH1       21.8330   81.4040   85.9180 N.pl3  53  ARG53       0.1354
     82  NH2       22.5270   80.7620   88.0220 N.pl3  53  ARG53       0.1354
     83  N         24.6220   74.3850   84.2720 N.am   54  ILE54      -0.1966
     84  CA        23.9510   73.1520   83.9100 C.3    54  ILE54       0.1712
     85  C         22.4550   73.4570   83.9610 C.2    54  ILE54       0.2458
     86  O         22.0540   74.4260   84.6020 O.2    54  ILE54      -0.2730
     87  CB        24.3580   71.9840   84.8640 C.3    54  ILE54       0.0289
     88  CG1       24.0010   72.3170   86.3180 C.3    54  ILE54       0.0022
     89  CG2       25.8680   71.6200   84.6820 C.3    54  ILE54       0.0023
     90  CD1       22.6530   71.7580   86.7720 C.3    54  ILE54       0.0001
     91  N         21.6210   72.6390   83.2970 N.am   55  PRO55      -0.2727
     92  CA        22.0110   71.4580   82.5310 C.3    55  PRO55       0.1402
     93  C         22.3240   71.7730   81.0800 C.2    55  PRO55       0.2269
     94  O         22.0080   72.8470   80.5630 O.2    55  PRO55      -0.2865
     95  CB        20.7620   70.5840   82.6170 C.3    55  PRO55       0.0296
     96  CG        19.6560   71.5690   82.5960 C.3    55  PRO55       0.0237
     97  CD        20.1500   72.7420   83.4050 C.3    55  PRO55       0.0939
     98  N         20.0550   75.4950   78.2380 N.3    73  GLN73      -0.1231
     99  CA        18.7890   76.1150   78.6780 C.3    73  GLN73       0.1698
    100  C         17.6640   75.1000   78.7870 C.2    73  GLN73       0.2593
    101  O         17.2060   74.5800   77.7760 O.2    73  GLN73      -0.2718
    102  CB        18.3500   77.2680   77.7700 C.3    73  GLN73       0.0381
    103  CG        19.2150   78.4870   77.8550 C.3    73  GLN73       0.0905
    104  CD        19.1310   79.1310   79.2080 C.2    73  GLN73       0.2608
    105  OE1       18.0820   79.1050   79.8590 O.2    73  GLN73      -0.2717
    106  NE2       20.2370   79.7020   79.6560 N.am   73  GLN73      -0.0878
    107  N         17.2090   74.8390   80.0130 N.am   74  THR74      -0.1939
    108  CA        16.1330   73.8660   80.2420 C.3    74  THR74       0.2028
    109  C         14.9360   74.0750   79.3260 C.2    74  THR74       0.2642
    110  O         14.3310   73.1090   78.8680 O.2    74  THR74      -0.2714
    111  CB        15.6300   73.8410   81.7150 C.3    74  THR74       0.1808
    112  OG1       15.0710   75.1090   82.0620 O.3    74  THR74      -0.2208
    113  CG2       16.7520   73.5080   82.6710 C.3    74  THR74       0.0379
    114  N         14.6160   75.3330   79.0370 N.am   75  GLY75      -0.1954
    115  CA        13.4880   75.6450   78.1740 C.3    75  GLY75       0.1869
    116  C         13.6860   75.1640   76.7460 C.2    75  GLY75       0.2309
    117  O         12.7650   74.6310   76.1110 O.2    75  GLY75      -0.2863
    118  N         10.4100   79.3310   82.9630 N.3   111  VAL111     -0.1245
    119  CA        11.8520   79.6030   82.8780 C.3   111  VAL111      0.1561
    120  C         12.1850   81.0910   82.9920 C.2   111  VAL111      0.2260
    121  O         13.3010   81.4620   83.3590 O.2   111  VAL111     -0.2867
    122  CB        12.5080   79.0180   81.5950 C.3   111  VAL111      0.0252
    123  CG1       12.2090   77.5170   81.4690 C.3   111  VAL111      0.0019
    124  CG2       12.0610   79.7800   80.3410 C.3   111  VAL111      0.0019
    125  N         13.9420   82.0360   87.7670 N.3   116  PRO116     -0.2116
    126  CA        14.7370   83.2000   88.1670 C.3   116  PRO116      0.1372
    127  C         14.3270   83.8100   89.5040 C.2   116  PRO116      0.2244
    128  O         15.2100   84.1230   90.2990 O.2   116  PRO116     -0.2868
    129  CB        14.5030   84.1930   87.0170 C.3   116  PRO116      0.0268
    130  CG        14.3160   83.2980   85.8160 C.3   116  PRO116      0.0207
    131  CD        13.5130   82.1230   86.3580 C.3   116  PRO116      0.0892
    132  N         10.9950   73.0390   90.2160 N.3   180  TRP180     -0.1241
    133  CA        11.0850   74.1260   91.1880 C.3   180  TRP180      0.1605
    134  C         10.0640   74.0490   92.3100 C.2   180  TRP180      0.2264
    135  O         10.3240   74.5210   93.4260 O.2   180  TRP180     -0.2867
    136  CB        10.9690   75.4770   90.4870 C.3   180  TRP180      0.0550
    137  CG        12.2790   75.9200   89.8860 C.ar  180  TRP180      0.0003
    138  CD1       12.7230   75.6930   88.6160 C.ar  180  TRP180      0.0946
    139  CD2       13.3130   76.6530   90.5500 C.ar  180  TRP180      0.0152
    140  NE1       13.9790   76.2410   88.4450 N.ar  180  TRP180     -0.2442
    141  CE2       14.3620   76.8370   89.6180 C.ar  180  TRP180      0.0810
    142  CE3       13.4510   77.1860   91.8390 C.ar  180  TRP180      0.0012
    143  CZ2       15.5330   77.5320   89.9350 C.ar  180  TRP180      0.0191
    144  CZ3       14.6270   77.8740   92.1590 C.ar  180  TRP180      0.0001
    145  CH2       15.6510   78.0360   91.2100 C.ar  180  TRP180      0.0015
@<TRIPOS>BOND
     1   117   116    2
     2   116   115    1
     3   102   103    1
     4   102    99    1
     5   101   100    2
     6   103   104    1
     7   115   114    1
     8    98    99    1
     9    64    65    1
    10    99   100    1
    11   100   107   am
    12   110   109    2
    13   114   109   am
    14   104   106   am
    15   104   105    2
    16   109   108    1
    17    68    65    1
    18    68    69    1
    19    65    66    1
    20   107   108    1
    21   108   111    1
    22   124   122    1
    23    94    93    2
    24    69    70    2
    25    69    71   am
    26    93    92    1
    27    66    67    2
    28   123   122    1
    29   122   119    1
    30   111   112    1
    31   111   113    1
    32    75    74    2
    33    92    95    1
    34    92    91    1
    35    96    95    1
    36    96    97    1
    37    72    73    1
    38   119   118    1
    39   119   120    1
    40   120   121    2
    41    26    25    2
    42    91    97    1
    43    91    85   am
    44    74    73    1
    45    74    83   am
    46    25    24    1
    47    51    50    2
    48    73    76    1
    49    58    57    2
    50    84    85    1
    51    84    83    1
    52    84    87    1
    53    85    86    2
    54    76    77    1
    55    27    24    1
    56    27    28    1
    57    57    56    1
    58    31    30    1
    59    29    28    1
    60    29    30    1
    61    77    78    1
    62    89    87    1
    63    78    79    1
    64    50    55   am
    65    50    49    1
    66    24    23    1
    67    87    88    1
    68    56    55    1
    69    56    59    1
    70    63    62    1
    71    18    17    2
    72    61    62    1
    73    61    60    1
    74    49    52    1
    75    49    48    1
    76    52    54    1
    77    52    53    1
    78   130   131    1
    79   130   129    1
    80    59    60    1
    81    81    80    1
    82    21    20    2
    83    17    16    1
    84    79    80    2
    85    88    90    1
    86   131   125    1
    87    19    20    1
    88    19    16    1
    89    20    22   am
    90    80    82    1
    91    16    15    1
    92   129   126    1
    93   125   126    1
    94    11    10    2
    95   126   127    1
    96    15    10   am
    97    43    42    2
    98   140   138   ar
    99   140   141   ar
   100   138   137   ar
   101    10     9    1
   102    42    41    1
   103     6     5    1
   104   127   128    2
   105   141   143   ar
   106   141   139   ar
   107    46    45    2
   108     4     3    2
   109    38    37    1
   110   137   136    1
   111   137   139   ar
   112   143   145   ar
   113   132   133    1
   114     9    12    1
   115     9     8    1
   116    41    44    1
   117    41    40    1
   118   136   133    1
   119   139   142   ar
   120     3     8   am
   121     3     2    1
   122    44    45    1
   123    12    13    1
   124    45    47   am
   125    37    39    1
   126    37    36    1
   127     5     2    1
   128     5     7    1
   129     8    14    1
   130   133   134    1
   131   145   144   ar
   132     1     2    1
   133    13    14    1
   134   142   144   ar
   135    36    33    1
   136    33    32    1
   137    33    34    1
   138   134   135    2
   139    35    34    2
