@<TRIPOS>MOLECULE
tmp/4ivkA00.pdb
 157 153 0 0 0
SMALL
GASTEIGER

@<TRIPOS>ATOM
      1  N        -31.8480  -17.6970  -30.7070 N.3    75  TYR75      -0.1227
      2  CA       -31.5340  -17.1500  -29.3890 C.3    75  TYR75       0.1736
      3  C        -30.6750  -15.8810  -29.4830 C.2    75  TYR75       0.2596
      4  O        -31.1200  -14.9080  -30.1020 O.2    75  TYR75      -0.2718
      5  CB       -30.9420  -18.2480  -28.4970 C.3    75  TYR75       0.0548
      6  CG       -31.9840  -19.2480  -28.0270 C.ar   75  TYR75      -0.0200
      7  CD1      -32.8520  -18.9240  -26.9940 C.ar   75  TYR75      -0.0009
      8  CD2      -32.1090  -20.5090  -28.6130 C.ar   75  TYR75      -0.0009
      9  CE1      -33.8100  -19.8180  -26.5470 C.ar   75  TYR75       0.0417
     10  CE2      -33.0700  -21.4130  -28.1710 C.ar   75  TYR75       0.0417
     11  CZ       -33.9170  -21.0590  -27.1340 C.ar   75  TYR75       0.1957
     12  OH       -34.8790  -21.9290  -26.6700 O.3    75  TYR75      -0.2866
     13  N        -29.4610  -15.8760  -28.9210 N.am   76  SER76      -0.1952
     14  CA       -28.6610  -14.6450  -28.8510 C.3    76  SER76       0.1924
     15  C        -28.1960  -14.0980  -30.2100 C.2    76  SER76       0.2314
     16  O        -27.7300  -12.9600  -30.2850 O.2    76  SER76      -0.2863
     17  CB       -27.4580  -14.8240  -27.9210 C.3    76  SER76       0.2116
     18  OG       -27.8600  -15.2220  -26.5970 O.3    76  SER76      -0.2180
     19  N        -27.9630  -11.4790  -16.7830 N.3   148  TYR148     -0.1241
     20  CA       -28.8080  -12.6640  -16.9410 C.3   148  TYR148      0.1605
     21  C        -28.7910  -13.4120  -15.6230 C.2   148  TYR148      0.2264
     22  O        -27.7180  -13.6400  -15.0580 O.2   148  TYR148     -0.2867
     23  CB       -28.2680  -13.6040  -18.0250 C.3   148  TYR148      0.0534
     24  CG       -28.6870  -13.2680  -19.4350 C.ar  148  TYR148     -0.0201
     25  CD1      -30.0320  -13.1390  -19.7770 C.ar  148  TYR148     -0.0009
     26  CD2      -27.7380  -13.1150  -20.4390 C.ar  148  TYR148     -0.0009
     27  CE1      -30.4120  -12.8370  -21.0770 C.ar  148  TYR148      0.0417
     28  CE2      -28.1110  -12.8130  -21.7380 C.ar  148  TYR148      0.0417
     29  CZ       -29.4420  -12.6780  -22.0520 C.ar  148  TYR148      0.1957
     30  OH       -29.7970  -12.3830  -23.3450 O.3   148  TYR148     -0.2866
     31  N        -29.4280  -16.5580  -15.0560 N.3   150  PHE150     -0.1227
     32  CA       -29.0170  -17.9610  -15.1910 C.3   150  PHE150      0.1736
     33  C        -27.5540  -18.1450  -15.6230 C.2   150  PHE150      0.2595
     34  O        -27.0680  -19.2730  -15.6740 O.2   150  PHE150     -0.2718
     35  CB       -29.9480  -18.6710  -16.1800 C.3   150  PHE150      0.0547
     36  CG       -30.0870  -17.9500  -17.4870 C.ar  150  PHE150     -0.0202
     37  CD1      -31.0520  -16.9590  -17.6540 C.ar  150  PHE150     -0.0042
     38  CD2      -29.2330  -18.2330  -18.5400 C.ar  150  PHE150     -0.0042
     39  CE1      -31.1670  -16.2790  -18.8520 C.ar  150  PHE150     -0.0003
     40  CE2      -29.3430  -17.5580  -19.7410 C.ar  150  PHE150     -0.0003
     41  CZ       -30.3100  -16.5810  -19.8980 C.ar  150  PHE150     -0.0000
     42  N        -26.8620  -17.0510  -15.9410 N.am  151  VAL151     -0.1980
     43  CA       -25.4390  -17.0980  -16.2880 C.3   151  VAL151      0.1595
     44  C        -24.6200  -16.9190  -15.0170 C.2   151  VAL151      0.2287
     45  O        -24.7000  -15.8730  -14.3760 O.2   151  VAL151     -0.2864
     46  CB       -25.0570  -15.9820  -17.2850 C.3   151  VAL151      0.0276
     47  CG1      -23.5470  -15.9270  -17.4950 C.3   151  VAL151      0.0022
     48  CG2      -25.7770  -16.1860  -18.6100 C.3   151  VAL151      0.0022
     49  N        -39.9960  -14.5050  -16.5430 N.3   166  PHE166     -0.1241
     50  CA       -40.5700  -15.0540  -17.7720 C.3   166  PHE166      0.1605
     51  C        -41.9680  -15.6480  -17.5950 C.2   166  PHE166      0.2264
     52  O        -42.4920  -16.2640  -18.5210 O.2   166  PHE166     -0.2867
     53  CB       -39.6190  -16.1020  -18.3470 C.3   166  PHE166      0.0534
     54  CG       -38.1880  -15.6490  -18.3860 C.ar  166  PHE166     -0.0203
     55  CD1      -37.8090  -14.5960  -19.2020 C.ar  166  PHE166     -0.0042
     56  CD2      -37.2280  -16.2540  -17.5870 C.ar  166  PHE166     -0.0042
     57  CE1      -36.4950  -14.1650  -19.2350 C.ar  166  PHE166     -0.0003
     58  CE2      -35.9110  -15.8270  -17.6150 C.ar  166  PHE166     -0.0003
     59  CZ       -35.5450  -14.7830  -18.4420 C.ar  166  PHE166     -0.0000
     60  N        -22.8400   -9.8140  -19.6130 N.3   194  TYR194     -0.1241
     61  CA       -23.8610  -10.2060  -20.5770 C.3   194  TYR194      0.1605
     62  C        -25.2060  -10.3180  -19.8910 C.2   194  TYR194      0.2264
     63  O        -25.2910  -10.7860  -18.7540 O.2   194  TYR194     -0.2867
     64  CB       -23.4700  -11.5490  -21.1810 C.3   194  TYR194      0.0534
     65  CG       -24.1710  -11.9320  -22.4610 C.ar  194  TYR194     -0.0201
     66  CD1      -24.2810  -11.0470  -23.5300 C.ar  194  TYR194     -0.0009
     67  CD2      -24.6720  -13.2100  -22.6180 C.ar  194  TYR194     -0.0009
     68  CE1      -24.9160  -11.4250  -24.7080 C.ar  194  TYR194      0.0417
     69  CE2      -25.2860  -13.5970  -23.7890 C.ar  194  TYR194      0.0417
     70  CZ       -25.4060  -12.7060  -24.8280 C.ar  194  TYR194      0.1957
     71  OH       -26.0140  -13.1220  -25.9900 O.3   194  TYR194     -0.2866
     72  N        -29.7770   -8.9390  -20.1830 N.3   196  HIS196     -0.1241
     73  CA       -31.0110   -8.5530  -20.8540 C.3   196  HIS196      0.1621
     74  C        -30.9940   -7.1550  -21.4890 C.2   196  HIS196      0.2264
     75  O        -32.0410   -6.6670  -21.9010 O.2   196  HIS196     -0.2867
     76  CB       -32.1820   -8.6570  -19.8690 C.3   196  HIS196      0.0745
     77  CG       -32.6250  -10.0630  -19.5950 C.ar  196  HIS196      0.0817
     78  ND1      -33.2770  -10.8320  -20.5360 N.ar  196  HIS196     -0.2268
     79  CD2      -32.5310  -10.8290  -18.4830 C.ar  196  HIS196      0.1154
     80  CE1      -33.5550  -12.0160  -20.0190 C.ar  196  HIS196      0.1986
     81  NE2      -33.1150  -12.0390  -18.7730 N.ar  196  HIS196     -0.2212
     82  N        -32.6550  -25.1430  -21.8180 N.3   253  ILE253     -0.1231
     83  CA       -31.8970  -23.9000  -21.7370 C.3   253  ILE253      0.1692
     84  C        -32.4670  -23.0710  -20.5930 C.2   253  ILE253      0.2592
     85  O        -33.6750  -22.8490  -20.5290 O.2   253  ILE253     -0.2718
     86  CB       -32.0010  -23.0810  -23.0370 C.3   253  ILE253      0.0266
     87  CG1      -31.3680  -23.8400  -24.2060 C.3   253  ILE253      0.0019
     88  CG2      -31.3160  -21.7340  -22.8690 C.3   253  ILE253      0.0020
     89  CD1      -31.6100  -23.2040  -25.5590 C.3   253  ILE253      0.0001
     90  N        -31.5990  -22.6010  -19.7030 N.am  254  GLY254     -0.1957
     91  CA       -32.0340  -21.8520  -18.5260 C.3   254  GLY254      0.1869
     92  C        -32.8630  -22.6980  -17.5760 C.2   254  GLY254      0.2309
     93  O        -33.7570  -22.1920  -16.9120 O.2   254  GLY254     -0.2863
     94  N        -33.1130   -9.8810  -27.4950 N.3   271  GLY271     -0.1210
     95  CA       -31.9280  -10.6030  -27.0470 C.3   271  GLY271      0.1956
     96  C        -31.9640  -12.1110  -27.2260 C.2   271  GLY271      0.2611
     97  O        -30.9210  -12.7550  -27.1640 O.2   271  GLY271     -0.2717
     98  N        -33.1460  -12.6860  -27.4570 N.am  272  GLN272     -0.1979
     99  CA       -33.2810  -14.1470  -27.4080 C.3   272  GLN272      0.1601
    100  C        -34.4140  -14.7770  -28.2180 C.2   272  GLN272      0.2287
    101  O        -34.4640  -15.9970  -28.3260 O.2   272  GLN272     -0.2864
    102  CB       -33.4380  -14.5890  -25.9450 C.3   272  GLN272      0.0394
    103  CG       -34.7050  -14.0800  -25.2720 C.3   272  GLN272      0.0908
    104  CD       -34.8390  -14.5470  -23.8350 C.2   272  GLN272      0.2608
    105  OE1      -34.1150  -14.0810  -22.9530 O.2   272  GLN272     -0.2717
    106  NE2      -35.7800  -15.4610  -23.5850 N.am  272  GLN272     -0.0878
    107  N        -17.3740  -13.4470  -21.2240 N.3   326  LEU326     -0.1245
    108  CA       -17.5740  -14.5700  -22.1430 C.3   326  LEU326      0.1561
    109  C        -16.6020  -14.6040  -23.3300 C.2   326  LEU326      0.2260
    110  O        -16.1450  -15.6830  -23.7010 O.2   326  LEU326     -0.2867
    111  CB       -19.0250  -14.6020  -22.6490 C.3   326  LEU326      0.0270
    112  CG       -20.1410  -14.6750  -21.5930 C.3   326  LEU326      0.0019
    113  CD1      -21.4990  -14.7540  -22.2700 C.3   326  LEU326      0.0001
    114  CD2      -19.9520  -15.8400  -20.6330 C.3   326  LEU326      0.0001
    115  N        -23.1520  -16.1140  -31.0730 N.3   358  GLY358     -0.1210
    116  CA       -23.8320  -17.3990  -31.1840 C.3   358  GLY358      0.1956
    117  C        -25.1340  -17.4070  -30.4160 C.2   358  GLY358      0.2612
    118  O        -25.5010  -16.4100  -29.7870 O.2   358  GLY358     -0.2717
    119  N        -25.8350  -18.5340  -30.4750 N.am  359  GLY359     -0.1942
    120  CA       -27.0810  -18.7180  -29.7410 C.3   359  GLY359      0.2014
    121  C        -27.0780  -20.0130  -28.9560 C.2   359  GLY359      0.2638
    122  O        -26.5050  -21.0110  -29.3930 O.2   359  GLY359     -0.2714
    123  N        -27.7560  -19.9980  -27.8100 N.am  360  ALA360     -0.1977
    124  CA       -27.7600  -21.1200  -26.8730 C.3   360  ALA360      0.1597
    125  C        -28.3730  -22.4010  -27.4420 C.2   360  ALA360      0.2287
    126  O        -28.2090  -23.4640  -26.8520 O.2   360  ALA360     -0.2864
    127  CB       -28.4970  -20.7270  -25.5950 C.3   360  ALA360      0.0319
    128  N        -22.3820  -27.0320  -27.7300 N.3   385  ARG385     -0.1231
    129  CA       -22.3540  -26.0200  -28.7950 C.3   385  ARG385      0.1694
    130  C        -21.0000  -25.3250  -28.9370 C.2   385  ARG385      0.2591
    131  O        -20.4990  -25.1680  -30.0540 O.2   385  ARG385     -0.2718
    132  CB       -23.4800  -24.9980  -28.6230 C.3   385  ARG385      0.0321
    133  CG       -23.3200  -24.0250  -27.4650 C.3   385  ARG385      0.0489
    134  CD       -24.6250  -23.2910  -27.1890 C.3   385  ARG385      0.2205
    135  NE       -24.4950  -22.3680  -26.0600 N.pl3 385  ARG385     -0.0865
    136  CZ       -24.4790  -22.7460  -24.7820 C.cat 385  ARG385      0.5346
    137  NH1      -24.5750  -24.0220  -24.4510 N.pl3 385  ARG385      0.1354
    138  NH2      -24.3540  -21.8430  -23.8170 N.pl3 385  ARG385      0.1354
    139  N        -20.4000  -24.9310  -27.8150 N.am  386  ALA386     -0.1980
    140  CA       -19.1670  -24.1430  -27.8510 C.3   386  ALA386      0.1597
    141  C        -18.0140  -24.9090  -28.4960 C.2   386  ALA386      0.2287
    142  O        -17.2780  -24.3540  -29.3170 O.2   386  ALA386     -0.2864
    143  CB       -18.7850  -23.6730  -26.4510 C.3   386  ALA386      0.0319
    144  N        -18.5960  -25.1050  -32.2790 N.3   389  TRP389     -0.1241
    145  CA       -18.3460  -23.8110  -32.9210 C.3   389  TRP389      0.1605
    146  C        -16.8530  -23.5030  -33.0500 C.2   389  TRP389      0.2264
    147  O        -16.3880  -23.0380  -34.0930 O.2   389  TRP389     -0.2867
    148  CB       -18.9890  -22.6750  -32.1370 C.3   389  TRP389      0.0550
    149  CG       -20.4710  -22.7300  -31.9800 C.ar  389  TRP389      0.0003
    150  CD1      -21.3660  -23.4430  -32.7230 C.ar  389  TRP389      0.0946
    151  CD2      -21.2340  -22.0090  -31.0140 C.ar  389  TRP389      0.0152
    152  NE1      -22.6410  -23.2140  -32.2710 N.ar  389  TRP389     -0.2442
    153  CE2      -22.5870  -22.3340  -31.2200 C.ar  389  TRP389      0.0810
    154  CE3      -20.8990  -21.1140  -29.9910 C.ar  389  TRP389      0.0012
    155  CZ2      -23.6080  -21.7960  -30.4390 C.ar  389  TRP389      0.0191
    156  CZ3      -21.9080  -20.5840  -29.2160 C.ar  389  TRP389      0.0001
    157  CH2      -23.2480  -20.9230  -29.4400 C.ar  389  TRP389      0.0015
@<TRIPOS>BOND
     1   147   146    2
     2   146   145    1
     3   145   144    1
     4   145   148    1
     5   150   152   ar
     6   150   149   ar
     7   152   153   ar
     8   148   149    1
     9   149   151   ar
    10   153   151   ar
    11   153   155   ar
    12   116   115    1
    13   116   117    1
    14   151   154   ar
    15     1     2    1
    16   119   117   am
    17   119   120    1
    18   155   157   ar
    19   117   118    2
    20    16    15    2
    21    15    14    1
    22     4     3    2
    23   131   130    2
    24   154   156   ar
    25   120   121    1
    26     3     2    1
    27     3    13   am
    28   157   156   ar
    29   122   121    2
    30     2     5    1
    31   142   141    2
    32   121   123   am
    33   130   129    1
    34   130   139   am
    35    13    14    1
    36    14    17    1
    37   129   132    1
    38   129   128    1
    39   132   133    1
    40     8    10   ar
    41     8     6   ar
    42     5     6    1
    43   141   140    1
    44   101   100    2
    45   100    99    1
    46    10    11   ar
    47     6     7   ar
    48    17    18    1
    49   140   139    1
    50   140   143    1
    51   123   124    1
    52    94    95    1
    53   133   134    1
    54    98    99    1
    55    98    96   am
    56   125   124    1
    57   125   126    2
    58    99   102    1
    59    96    97    2
    60    96    95    1
    61   134   135    1
    62    11    12    1
    63    11     9   ar
    64     7     9   ar
    65   124   127    1
    66   135   136    2
    67    71    70    1
    68   102   103    1
    69    89    87    1
    70   103   104    1
    71    70    68   ar
    72    70    69   ar
    73   136   137    1
    74   136   138    1
    75    68    66   ar
    76    87    86    1
    77   104   106   am
    78   104   105    2
    79    69    67   ar
    80   110   109    2
    81    66    65   ar
    82    30    29    1
    83   109   108    1
    84    86    88    1
    85    86    83    1
    86   111   108    1
    87   111   112    1
    88    67    65   ar
    89    65    64    1
    90   113   112    1
    91   108   107    1
    92    29    28   ar
    93    29    27   ar
    94    75    74    2
    95    82    83    1
    96    28    26   ar
    97    83    84    1
    98   112   114    1
    99    74    73    1
   100    64    61    1
   101    27    25   ar
   102    73    72    1
   103    73    76    1
   104    84    85    2
   105    84    90   am
   106    61    62    1
   107    61    60    1
   108    78    80   ar
   109    78    77   ar
   110    26    24   ar
   111    80    81   ar
   112    41    40   ar
   113    41    39   ar
   114    62    63    2
   115    76    77    1
   116    25    24   ar
   117    40    38   ar
   118    90    91    1
   119    77    79   ar
   120    24    23    1
   121    57    55   ar
   122    57    59   ar
   123    55    54   ar
   124    39    37   ar
   125    81    79   ar
   126    48    46    1
   127    38    36   ar
   128    91    92    1
   129    52    51    2
   130    59    58   ar
   131    54    53    1
   132    54    56   ar
   133    53    50    1
   134    23    20    1
   135    50    51    1
   136    50    49    1
   137    37    36   ar
   138    58    56   ar
   139    92    93    2
   140    47    46    1
   141    36    35    1
   142    46    43    1
   143    20    19    1
   144    20    21    1
   145    43    42    1
   146    43    44    1
   147    35    32    1
   148    42    33   am
   149    34    33    2
   150    21    22    2
   151    33    32    1
   152    32    31    1
   153    44    45    2
