@<TRIPOS>MOLECULE
tmp/4ivnA00.pdb
 109 102 0 0 0
SMALL
GASTEIGER

@<TRIPOS>ATOM
      1  N         23.3830   -7.4240   13.0240 N.3    66  ARG66      -0.1245
      2  CA        24.3160   -7.4460   11.9030 C.3    66  ARG66       0.1563
      3  C         25.3060   -8.6400   12.0820 C.2    66  ARG66       0.2260
      4  O         25.6640   -9.3060   11.1420 O.2    66  ARG66      -0.2867
      5  CB        25.0760   -6.1380   11.8310 C.3    66  ARG66       0.0307
      6  CG        25.7620   -5.9290   10.4640 C.3    66  ARG66       0.0489
      7  CD        26.5290   -4.6050   10.5370 C.3    66  ARG66       0.2205
      8  NE        27.7900   -4.8380   11.2620 N.pl3  66  ARG66      -0.0865
      9  CZ        28.9600   -4.2120   11.0340 C.cat  66  ARG66       0.5346
     10  NH1       29.0620   -3.2480   10.1250 N.pl3  66  ARG66       0.1354
     11  NH2       30.0490   -4.5240   11.7790 N.pl3  66  ARG66       0.1354
     12  N         40.4050    1.2760   20.0850 N.3   121  VAL121     -0.1231
     13  CA        40.5160   -0.0460   20.7220 C.3   121  VAL121      0.1692
     14  C         40.6550   -1.2050   19.8120 C.2   121  VAL121      0.2593
     15  O         40.4260   -1.1100   18.5730 O.2   121  VAL121     -0.2718
     16  CB        39.3160   -0.3240   21.6950 C.3   121  VAL121      0.0266
     17  CG1       39.1980    0.7730   22.8080 C.3   121  VAL121      0.0020
     18  CG2       38.0210   -0.4450   20.9040 C.3   121  VAL121      0.0020
     19  N         41.0860   -2.3570   20.3490 N.am  122  GLY122     -0.1942
     20  CA        41.2390   -3.5610   19.5010 C.3   122  GLY122      0.2014
     21  C         42.2320   -3.2380   18.3890 C.2   122  GLY122      0.2639
     22  O         43.3120   -2.6950   18.6610 O.2   122  GLY122     -0.2714
     23  N         41.9170   -3.5880   17.1430 N.am  123  ALA123     -0.1963
     24  CA        42.8580   -3.3640   16.0520 C.3   123  ALA123      0.1728
     25  C         43.0920   -1.8850   15.7890 C.2   123  ALA123      0.2616
     26  O         44.1410   -1.5050   15.2290 O.2   123  ALA123     -0.2715
     27  CB        42.3980   -3.9940   14.7640 C.3   123  ALA123      0.0334
     28  N         42.1150   -1.0600   16.1260 N.am  124  SER124     -0.1950
     29  CA        42.3190    0.4160   15.9510 C.3   124  SER124      0.1924
     30  C         43.3650    0.9540   16.9050 C.2   124  SER124      0.2314
     31  O         43.9030    2.0330   16.6530 O.2   124  SER124     -0.2863
     32  CB        40.9790    1.1960   16.1140 C.3   124  SER124      0.2116
     33  OG        40.2870    1.0950   14.8150 O.3   124  SER124     -0.2180
     34  N         40.0360    6.9890   16.4000 N.3   167  VAL167     -0.1231
     35  CA        40.3580    5.9430   15.4290 C.3   167  VAL167      0.1692
     36  C         39.4420    4.7480   15.5910 C.2   167  VAL167      0.2593
     37  O         39.4640    4.0520   16.6110 O.2   167  VAL167     -0.2718
     38  CB        41.8340    5.4400   15.5890 C.3   167  VAL167      0.0266
     39  CG1       42.2070    4.4570   14.4250 C.3   167  VAL167      0.0020
     40  CG2       42.7550    6.6950   15.6510 C.3   167  VAL167      0.0020
     41  N         38.6200    4.5000   14.5900 N.am  168  SER168     -0.1938
     42  CA        37.5540    3.4660   14.6680 C.3   168  SER168      0.2055
     43  C         37.1510    3.1710   13.2100 C.2   168  SER168      0.2644
     44  O         36.6890    4.0870   12.5490 O.2   168  SER168     -0.2714
     45  CB        36.3550    4.0400   15.4230 C.3   168  SER168      0.2130
     46  OG        35.2730    3.1110   15.4540 O.3   168  SER168     -0.2179
     47  N         37.2680    1.9320   12.7500 N.am  169  SER169     -0.1935
     48  CA        36.8500    1.6030   11.3660 C.3   169  SER169      0.2055
     49  C         35.3490    1.7770   11.2640 C.2   169  SER169      0.2643
     50  O         34.8520    2.2540   10.2430 O.2   169  SER169     -0.2714
     51  CB        37.1570    0.1270   11.0500 C.3   169  SER169      0.2130
     52  OG        38.5180    0.0000   10.6250 O.3   169  SER169     -0.2179
     53  N         34.6290    1.3400   12.3100 N.am  170  SER170     -0.1949
     54  CA        33.1990    1.3690   12.2650 C.3   170  SER170      0.1924
     55  C         32.5670    2.6960   12.6760 C.2   170  SER170      0.2314
     56  O         31.3440    2.8620   12.4680 O.2   170  SER170     -0.2863
     57  CB        32.6200    0.2810   13.1810 C.3   170  SER170      0.2116
     58  OG        32.8540    0.6650   14.5640 O.3   170  SER170     -0.2180
     59  N         32.0050    2.0230   17.9680 N.3   173  THR173     -0.1218
     60  CA        32.4720    1.4230   19.2300 C.3   173  THR173      0.1862
     61  C         32.1070    2.2990   20.4210 C.2   173  THR173      0.2287
     62  O         32.4750    3.4400   20.5090 O.2   173  THR173     -0.2866
     63  CB        33.9940    1.1830   19.1910 C.3   173  THR173      0.1770
     64  OG1       34.2550    0.2590   18.1150 O.3   173  THR173     -0.2211
     65  CG2       34.4430    0.5180   20.4980 C.3   173  THR173      0.0375
     66  N         34.6440    4.3270   22.6430 N.3   176  VAL176     -0.1245
     67  CA        35.4470    5.2460   21.8130 C.3   176  VAL176      0.1561
     68  C         34.6010    6.4670   21.4720 C.2   176  VAL176      0.2260
     69  O         35.1030    7.5980   21.6050 O.2   176  VAL176     -0.2867
     70  CB        35.9380    4.5500   20.5340 C.3   176  VAL176      0.0252
     71  CG1       36.5680    5.5330   19.5640 C.3   176  VAL176      0.0019
     72  CG2       37.0190    3.5400   20.9780 C.3   176  VAL176      0.0019
     73  N         34.8460   -2.4550    7.6520 N.3   215  GLU215     -0.1231
     74  CA        34.8970   -3.7790    8.3260 C.3   215  GLU215      0.1699
     75  C         33.5050   -4.3390    8.5170 C.2   215  GLU215      0.2593
     76  O         32.5710   -3.5690    8.6090 O.2   215  GLU215     -0.2718
     77  CB        35.5560   -3.5910    9.7340 C.3   215  GLU215      0.0402
     78  CG        37.0150   -3.2640    9.5090 C.3   215  GLU215      0.1161
     79  CD        37.8340   -3.3560   10.7350 C.2   215  GLU215      0.3649
     80  OE1       37.2890   -3.1910   11.8560 O.co2 215  GLU215     -0.2457
     81  OE2       39.0500   -3.5310   10.6000 O.co2 215  GLU215     -0.2457
     82  N         33.3580   -5.6600    8.6240 N.am  216  GLY216     -0.1943
     83  CA        32.0470   -6.3130    8.9170 C.3   216  GLY216      0.1998
     84  C         32.2660   -7.0900   10.2140 C.2   216  GLY216      0.2480
     85  O         33.4070   -7.1130   10.7270 O.2   216  GLY216     -0.2729
     86  N         31.2180   -7.7680   10.7160 N.am  217  PRO217     -0.2726
     87  CA        31.2630   -8.4170   11.9930 C.3   217  PRO217      0.1402
     88  C         32.3730   -9.4550   12.0620 C.2   217  PRO217      0.2269
     89  O         32.8510   -9.7420   13.1610 O.2   217  PRO217     -0.2865
     90  CB        29.8690   -9.1070   12.0820 C.3   217  PRO217      0.0296
     91  CG        28.9570   -8.1280   11.3030 C.3   217  PRO217      0.0237
     92  CD        29.8790   -7.9270   10.0870 C.3   217  PRO217      0.0939
     93  N         36.8650   -7.7630   11.4720 N.3   220  GLY220     -0.1210
     94  CA        37.4550   -6.6360   12.1310 C.3   220  GLY220      0.1956
     95  C         38.9550   -6.8710   12.0920 C.2   220  GLY220      0.2612
     96  O         39.4010   -8.0180   12.1020 O.2   220  GLY220     -0.2717
     97  N         39.7210   -5.8030   12.0380 N.am  221  GLY221     -0.1956
     98  CA        41.1770   -5.9980   12.0870 C.3   221  GLY221      0.1869
     99  C         41.8690   -6.4590   10.8270 C.2   221  GLY221      0.2309
    100  O         43.0980   -6.5010   10.8600 O.2   221  GLY221     -0.2863
    101  N         43.1230   -2.0920    7.8000 N.3   226  LYS226     -0.1245
    102  CA        44.0610   -1.3400    8.5970 C.3   226  LYS226      0.1561
    103  C         45.1320   -0.6670    7.7220 C.2   226  LYS226      0.2260
    104  O         45.6460    0.3860    8.0720 O.2   226  LYS226     -0.2867
    105  CB        44.7600   -2.2590    9.6110 C.3   226  LYS226      0.0271
    106  CG        43.8300   -2.9300   10.6610 C.3   226  LYS226      0.0035
    107  CD        43.0030   -1.9180   11.5290 C.3   226  LYS226      0.0206
    108  CE        41.5570   -1.8030   11.0710 C.3   226  LYS226      0.1093
    109  NZ        40.7210   -0.9890   12.0830 N.3   226  LYS226     -0.1314
@<TRIPOS>BOND
     1    73    74    1
     2   103   104    2
     3   103   102    1
     4   101   102    1
     5    74    75    1
     6    74    77    1
     7    75    76    2
     8    75    82   am
     9   102   105    1
    10    82    83    1
    11    83    84    1
    12    78    77    1
    13    78    79    1
    14   105   106    1
    15    92    86    1
    16    92    91    1
    17    10     9    1
    18    84    86   am
    19    84    85    2
    20    50    49    2
    21     6     7    1
    22     6     5    1
    23     7     8    1
    24    81    79   ar
    25    52    51    1
    26   106   107    1
    27    86    87    1
    28    79    80   ar
    29    99   100    2
    30    99    98    1
    31     9     8    2
    32     9    11    1
    33    51    48    1
    34   108   107    1
    35   108   109    1
    36     4     3    2
    37    49    48    1
    38    49    53   am
    39    91    90    1
    40    48    47    1
    41    93    94    1
    42     5     2    1
    43     2     3    1
    44     2     1    1
    45    87    88    1
    46    87    90    1
    47    97    98    1
    48    97    95   am
    49    88    89    2
    50    95    96    2
    51    95    94    1
    52    54    53    1
    53    54    55    1
    54    54    57    1
    55    56    55    2
    56    44    43    2
    57    47    43   am
    58    57    58    1
    59    43    42    1
    60    39    38    1
    61    41    42    1
    62    41    36   am
    63    42    45    1
    64    27    24    1
    65    33    32    1
    66    26    25    2
    67    45    46    1
    68    35    38    1
    69    35    36    1
    70    35    34    1
    71    38    40    1
    72    36    37    2
    73    25    24    1
    74    25    28   am
    75    29    32    1
    76    29    28    1
    77    29    30    1
    78    24    23    1
    79    31    30    2
    80    23    21   am
    81    59    60    1
    82    64    63    1
    83    21    22    2
    84    21    20    1
    85    15    14    2
    86    63    60    1
    87    63    65    1
    88    60    61    1
    89    20    19    1
    90    71    70    1
    91    14    19   am
    92    14    13    1
    93    12    13    1
    94    61    62    2
    95    70    72    1
    96    70    67    1
    97    13    16    1
    98    18    16    1
    99    68    69    2
   100    68    67    1
   101    16    17    1
   102    67    66    1
