@<TRIPOS>MOLECULE
tmp/4ivpB00.pdb
 160 151 0 0 0
SMALL
GASTEIGER

@<TRIPOS>ATOM
      1  N         16.8860   38.7570   38.7820 N.3    13  HIS13      -0.1241
      2  CA        15.8110   39.0310   39.7140 C.3    13  HIS13       0.1621
      3  C         14.9250   40.1500   39.1860 C.2    13  HIS13       0.2264
      4  O         15.3800   41.0070   38.4210 O.2    13  HIS13      -0.2867
      5  CB        16.3850   39.4330   41.0740 C.3    13  HIS13       0.0745
      6  CG        17.4440   40.4890   40.9930 C.ar   13  HIS13       0.0817
      7  ND1       18.7250   40.2280   40.5540 N.ar   13  HIS13      -0.2268
      8  CD2       17.4130   41.8090   41.2950 C.ar   13  HIS13       0.1154
      9  CE1       19.4370   41.3390   40.5950 C.ar   13  HIS13       0.1986
     10  NE2       18.6630   42.3150   41.0360 N.ar   13  HIS13      -0.2212
     11  N          9.6930   35.7290   37.8580 N.3    17  LYS17      -0.1245
     12  CA         9.9790   34.2920   37.8680 C.3    17  LYS17       0.1561
     13  C          9.1850   33.5300   38.9170 C.2    17  LYS17       0.2260
     14  O          8.5700   32.5000   38.6210 O.2    17  LYS17      -0.2867
     15  CB        11.4760   34.0450   38.1160 C.3    17  LYS17       0.0271
     16  CG        12.3650   34.5270   36.9780 C.3    17  LYS17       0.0035
     17  CD        13.8130   34.0520   37.1360 C.3    17  LYS17       0.0206
     18  CE        14.3430   34.2770   38.5440 C.3    17  LYS17       0.1093
     19  NZ        14.3280   35.7250   38.9090 N.3    17  LYS17      -0.1314
     20  N         12.7400   29.5390   46.2250 N.3    38  GLU38      -0.1245
     21  CA        13.8730   30.3410   46.6450 C.3    38  GLU38       0.1567
     22  C         14.1330   30.1040   48.1430 C.2    38  GLU38       0.2260
     23  O         13.2200   30.2450   48.9640 O.2    38  GLU38      -0.2867
     24  CB        13.4960   31.7900   46.3770 C.3    38  GLU38       0.0388
     25  CG        14.4880   32.8340   46.7630 C.3    38  GLU38       0.1160
     26  CD        13.9540   34.2200   46.4450 C.2    38  GLU38       0.3649
     27  OE1       13.2820   34.8060   47.3170 O.co2  38  GLU38      -0.2457
     28  OE2       14.1750   34.7060   45.3130 O.co2  38  GLU38      -0.2457
     29  N         14.9530   31.5550   50.7430 N.3    40  MET40      -0.1245
     30  CA        15.1170   32.8410   51.4180 C.3    40  MET40       0.1570
     31  C         15.3650   32.7060   52.9290 C.2    40  MET40       0.2261
     32  O         16.0570   33.5240   53.5290 O.2    40  MET40      -0.2867
     33  CB        13.8980   33.7370   51.1310 C.3    40  MET40       0.0387
     34  CG        13.9200   35.0910   51.8320 C.3    40  MET40       0.0595
     35  SD        15.3200   36.1270   51.3640 S.3    40  MET40      -0.1393
     36  CE        14.8590   36.5300   49.6690 C.3    40  MET40       0.0692
     37  N         19.0130   31.9940   53.4010 N.3    43  TRP43      -0.1241
     38  CA        19.7840   33.2080   53.1480 C.3    43  TRP43       0.1605
     39  C         19.6600   34.2440   54.2750 C.2    43  TRP43       0.2264
     40  O         20.5700   35.0320   54.5310 O.2    43  TRP43      -0.2867
     41  CB        19.2850   33.8500   51.8650 C.3    43  TRP43       0.0550
     42  CG        19.5460   33.0730   50.6140 C.ar   43  TRP43       0.0003
     43  CD1       20.4620   32.0730   50.4230 C.ar   43  TRP43       0.0946
     44  CD2       18.8920   33.2660   49.3610 C.ar   43  TRP43       0.0152
     45  NE1       20.4110   31.6310   49.1140 N.ar   43  TRP43      -0.2442
     46  CE2       19.4540   32.3490   48.4440 C.ar   43  TRP43       0.0810
     47  CE3       17.8860   34.1360   48.9200 C.ar   43  TRP43       0.0012
     48  CZ2       19.0370   32.2750   47.1110 C.ar   43  TRP43       0.0191
     49  CZ3       17.4810   34.0660   47.5960 C.ar   43  TRP43       0.0001
     50  CH2       18.0510   33.1400   46.7080 C.ar   43  TRP43       0.0015
     51  N         21.3710   38.8820   51.8200 N.3    52  ILE52      -0.1245
     52  CA        21.0350   39.8190   50.7470 C.3    52  ILE52       0.1561
     53  C         21.3690   41.2480   51.1570 C.2    52  ILE52       0.2260
     54  O         21.9810   41.9890   50.3910 O.2    52  ILE52      -0.2867
     55  CB        19.5290   39.7620   50.3860 C.3    52  ILE52       0.0252
     56  CG1       19.0950   38.3270   50.1150 C.3    52  ILE52       0.0019
     57  CG2       19.2230   40.6350   49.1680 C.3    52  ILE52       0.0019
     58  CD1       19.6830   37.7740   48.8850 C.3    52  ILE52       0.0001
     59  N         25.0690   41.8080   51.1080 N.3    55  ILE55      -0.1231
     60  CA        25.5440   41.9640   49.7360 C.3    55  ILE55       0.1692
     61  C         25.2900   43.3820   49.2250 C.2    55  ILE55       0.2592
     62  O         26.1930   44.0410   48.7190 O.2    55  ILE55      -0.2718
     63  CB        24.8750   40.9160   48.8010 C.3    55  ILE55       0.0266
     64  CG1       25.5040   39.5340   49.0230 C.3    55  ILE55       0.0019
     65  CG2       24.9750   41.3220   47.3230 C.3    55  ILE55       0.0020
     66  CD1       24.8310   38.3960   48.2450 C.3    55  ILE55       0.0001
     67  N         24.0610   43.8570   49.3760 N.am   56  TYR56      -0.1976
     68  CA        23.7010   45.1740   48.8660 C.3    56  TYR56       0.1639
     69  C         24.3440   46.3140   49.6530 C.2    56  TYR56       0.2290
     70  O         24.6540   47.3640   49.0910 O.2    56  TYR56      -0.2864
     71  CB        22.1780   45.3180   48.7430 C.3    56  TYR56       0.0560
     72  CG        21.6610   44.5820   47.5210 C.ar   56  TYR56      -0.0198
     73  CD1       21.6780   45.1870   46.2700 C.ar   56  TYR56      -0.0009
     74  CD2       21.2130   43.2650   47.6080 C.ar   56  TYR56      -0.0009
     75  CE1       21.2350   44.5170   45.1410 C.ar   56  TYR56       0.0417
     76  CE2       20.7670   42.5830   46.4810 C.ar   56  TYR56       0.0417
     77  CZ        20.7820   43.2180   45.2480 C.ar   56  TYR56       0.1957
     78  OH        20.3470   42.5640   44.1160 O.3    56  TYR56      -0.2866
     79  N         28.4230   34.6860   48.5470 N.3    80  GLN80      -0.1245
     80  CA        28.0580   33.8180   47.4330 C.3    80  GLN80       0.1566
     81  C         28.1120   32.3350   47.8180 C.2    80  GLN80       0.2260
     82  O         27.2730   31.5420   47.3860 O.2    80  GLN80      -0.2867
     83  CB        28.9290   34.1020   46.2020 C.3    80  GLN80       0.0367
     84  CG        28.4450   35.2910   45.3850 C.3    80  GLN80       0.0905
     85  CD        26.9650   35.2060   45.0630 C.2    80  GLN80       0.2608
     86  OE1       26.1970   36.1320   45.3330 O.2    80  GLN80      -0.2717
     87  NE2       26.5520   34.0830   44.4840 N.am   80  GLN80      -0.0878
     88  N         24.9490   31.9160   49.6390 N.3    83  MET83      -0.1245
     89  CA        23.8590   31.9710   48.6800 C.3    83  MET83       0.1570
     90  C         23.6780   30.6380   47.9500 C.2    83  MET83       0.2261
     91  O         22.5570   30.1820   47.7490 O.2    83  MET83      -0.2867
     92  CB        24.0700   33.1140   47.6790 C.3    83  MET83       0.0387
     93  CG        24.0360   34.5150   48.3050 C.3    83  MET83       0.0595
     94  SD        22.4340   34.9400   49.0220 S.3    83  MET83      -0.1393
     95  CE        21.3860   35.0390   47.5570 C.3    83  MET83       0.0692
     96  N         21.2920   25.2580   46.7470 N.3    87  TYR87      -0.1241
     97  CA        21.2580   24.7390   45.3820 C.3    87  TYR87       0.1605
     98  C         22.2110   23.5680   45.2560 C.2    87  TYR87       0.2264
     99  O         21.8840   22.5620   44.6290 O.2    87  TYR87      -0.2867
    100  CB        21.6760   25.8020   44.3640 C.3    87  TYR87       0.0534
    101  CG        20.8770   27.0830   44.4030 C.ar   87  TYR87      -0.0201
    102  CD1       19.5040   27.0750   44.5410 C.ar   87  TYR87      -0.0009
    103  CD2       21.5110   28.3100   44.2830 C.ar   87  TYR87      -0.0009
    104  CE1       18.7790   28.2570   44.5810 C.ar   87  TYR87       0.0417
    105  CE2       20.7970   29.4930   44.3070 C.ar   87  TYR87       0.0417
    106  CZ        19.4310   29.4610   44.4610 C.ar   87  TYR87       0.1957
    107  OH        18.7340   30.6480   44.4870 O.3    87  TYR87      -0.2866
    108  N         15.7080   28.7620   40.3350 N.3   114  ARG114     -0.1245
    109  CA        17.1470   28.8470   40.0440 C.3   114  ARG114      0.1563
    110  C         17.9130   27.5240   40.0270 C.2   114  ARG114      0.2260
    111  O         17.5480   26.5410   40.6870 O.2   114  ARG114     -0.2867
    112  CB        17.8730   29.8860   40.9110 C.3   114  ARG114      0.0307
    113  CG        17.2630   31.2600   40.8500 C.3   114  ARG114      0.0489
    114  CD        18.1090   32.2700   41.6030 C.3   114  ARG114      0.2205
    115  NE        17.5320   33.6040   41.4950 N.pl3 114  ARG114     -0.0865
    116  CZ        17.7520   34.4280   40.4780 C.cat 114  ARG114      0.5346
    117  NH1       18.5500   34.0560   39.4880 N.pl3 114  ARG114      0.1354
    118  NH2       17.1930   35.6340   40.4640 N.pl3 114  ARG114      0.1354
    119  N         23.3720   29.9470   39.0100 N.3   118  ALA118     -0.1231
    120  CA        23.0220   31.3050   39.4060 C.3   118  ALA118      0.1694
    121  C         24.0390   31.8140   40.4280 C.2   118  ALA118      0.2591
    122  O         24.5610   32.9190   40.3090 O.2   118  ALA118     -0.2718
    123  CB        21.5920   31.3590   39.9780 C.3   118  ALA118      0.0304
    124  N         24.3430   30.9720   41.4110 N.am  119  ALA119     -0.1980
    125  CA        25.1720   31.3680   42.5500 C.3   119  ALA119      0.1597
    126  C         26.6410   31.0110   42.3560 C.2   119  ALA119      0.2287
    127  O         27.5160   31.5940   42.9850 O.2   119  ALA119     -0.2864
    128  CB        24.6340   30.7370   43.8310 C.3   119  ALA119      0.0319
    129  N         25.7240   35.3710   39.3230 N.3   123  TYR123     -0.1241
    130  CA        25.8920   36.4680   40.2720 C.3   123  TYR123      0.1605
    131  C         27.3660   36.8180   40.5630 C.2   123  TYR123      0.2264
    132  O         27.6990   38.0000   40.6370 O.2   123  TYR123     -0.2867
    133  CB        25.0200   36.2930   41.5300 C.3   123  TYR123      0.0534
    134  CG        23.5870   36.6810   41.2230 C.ar  123  TYR123     -0.0201
    135  CD1       22.7250   35.7830   40.6230 C.ar  123  TYR123     -0.0009
    136  CD2       23.1250   37.9740   41.4670 C.ar  123  TYR123     -0.0009
    137  CE1       21.4150   36.1420   40.3050 C.ar  123  TYR123      0.0417
    138  CE2       21.8150   38.3420   41.1640 C.ar  123  TYR123      0.0417
    139  CZ        20.9710   37.4220   40.5760 C.ar  123  TYR123      0.1957
    140  OH        19.6800   37.7770   40.2470 O.3   123  TYR123     -0.2866
    141  N         28.9490   40.4670   39.9480 N.3   127  ARG127     -0.1245
    142  CA        29.7080   41.1750   40.9810 C.3   127  ARG127      0.1563
    143  C         31.1190   41.5110   40.4840 C.2   127  ARG127      0.2260
    144  O         31.6690   42.5570   40.8330 O.2   127  ARG127     -0.2867
    145  CB        29.7520   40.3970   42.3070 C.3   127  ARG127      0.0307
    146  CG        28.4200   40.3980   43.0920 C.3   127  ARG127      0.0489
    147  CD        27.9290   41.8130   43.4560 C.3   127  ARG127      0.2205
    148  NE        26.5030   41.8370   43.8010 N.pl3 127  ARG127     -0.0865
    149  CZ        25.8020   42.9520   43.9950 C.cat 127  ARG127      0.5346
    150  NH1       26.3960   44.1330   43.8840 N.pl3 127  ARG127      0.1354
    151  NH2       24.5040   42.8940   44.2880 N.pl3 127  ARG127      0.1354
    152  N         17.3950   44.3180   49.8500 N.3   174  GLU174     -0.1245
    153  CA        17.8680   44.7940   48.5570 C.3   174  GLU174      0.1567
    154  C         17.7960   46.3210   48.4290 C.2   174  GLU174      0.2260
    155  O         16.9630   46.9760   49.0610 O.2   174  GLU174     -0.2867
    156  CB        17.0660   44.1310   47.4340 C.3   174  GLU174      0.0388
    157  CG        17.6890   44.2830   46.0520 C.3   174  GLU174      0.1160
    158  CD        16.9730   43.4660   44.9940 C.2   174  GLU174      0.3649
    159  OE1       15.8060   43.0830   45.2180 O.co2 174  GLU174     -0.2457
    160  OE2       17.5830   43.2020   43.9370 O.co2 174  GLU174     -0.2457
@<TRIPOS>BOND
     1    16    17    1
     2    16    15    1
     3    17    18    1
     4    11    12    1
     5    12    15    1
     6    12    13    1
     7     4     3    2
     8    18    19    1
     9    14    13    2
    10     1     2    1
    11   119   120    1
    12     3     2    1
    13   129   130    1
    14   120   123    1
    15   120   121    1
    16   117   116    1
    17     2     5    1
    18   141   142    1
    19   110   109    1
    20   110   111    2
    21   109   108    1
    22   109   112    1
    23   140   139    1
    24   130   131    1
    25   130   133    1
    26   137   139   ar
    27   137   135   ar
    28   122   121    2
    29   121   124   am
    30   118   116    1
    31   116   115    2
    32   143   144    2
    33   143   142    1
    34     7     9   ar
    35     7     6   ar
    36   131   132    2
    37   139   138   ar
    38     9    10   ar
    39   135   134   ar
    40   113   112    1
    41   113   114    1
    42   142   145    1
    43     6     5    1
    44     6     8   ar
    45    10     8   ar
    46   138   136   ar
    47   134   136   ar
    48   134   133    1
    49   124   125    1
    50   115   114    1
    51   145   146    1
    52   126   125    1
    53   126   127    2
    54   125   128    1
    55   146   147    1
    56   147   148    1
    57   148   149    2
    58   150   149    1
    59   160   158   ar
    60   149   151    1
    61    78    77    1
    62   103   105   ar
    63   103   101   ar
    64   105   106   ar
    65   100   101    1
    66   100    97    1
    67   101   102   ar
    68   106   107    1
    69   106   104   ar
    70    87    85   am
    71   102   104   ar
    72    99    98    2
    73   158   159   ar
    74   158   157    1
    75    85    86    2
    76    85    84    1
    77    75    77   ar
    78    75    73   ar
    79    77    76   ar
    80    98    97    1
    81    28    26   ar
    82    97    96    1
    83    84    83    1
    84   157   156    1
    85    83    80    1
    86    20    21    1
    87    73    72   ar
    88    24    21    1
    89    24    25    1
    90    26    25    1
    91    26    27   ar
    92    76    74   ar
    93    21    22    1
    94    50    48   ar
    95    50    49   ar
    96    48    46   ar
    97    65    63    1
    98    82    81    2
    99    80    81    1
   100    80    79    1
   101   156   153    1
   102    72    74   ar
   103    72    71    1
   104    95    94    1
   105    49    47   ar
   106    92    93    1
   107    92    89    1
   108    91    90    2
   109    90    89    1
   110    22    23    2
   111    66    64    1
   112    93    94    1
   113   154   153    1
   114   154   155    2
   115    46    45   ar
   116    46    44   ar
   117   153   152    1
   118    89    88    1
   119    62    61    2
   120    71    68    1
   121    63    64    1
   122    63    60    1
   123    68    67    1
   124    68    69    1
   125    58    56    1
   126    47    44   ar
   127    70    69    2
   128    45    43   ar
   129    57    55    1
   130    61    67   am
   131    61    60    1
   132    44    42   ar
   133    36    35    1
   134    60    59    1
   135    56    55    1
   136    55    52    1
   137    54    53    2
   138    43    42   ar
   139    42    41    1
   140    29    30    1
   141    52    53    1
   142    52    51    1
   143    33    30    1
   144    33    34    1
   145    35    34    1
   146    30    31    1
   147    41    38    1
   148    31    32    2
   149    38    37    1
   150    38    39    1
   151    39    40    2
