@<TRIPOS>MOLECULE
tmp/4ivqB00.pdb
 170 161 0 0 0
SMALL
GASTEIGER

@<TRIPOS>ATOM
      1  N         49.5030   39.0480   50.6250 N.3    13  HIS13      -0.1241
      2  CA        50.7620   38.5980   51.2030 C.3    13  HIS13       0.1621
      3  C         51.8490   38.5840   50.1330 C.2    13  HIS13       0.2264
      4  O         51.5520   38.5710   48.9390 O.2    13  HIS13      -0.2867
      5  CB        50.6020   37.2100   51.7980 C.3    13  HIS13       0.0745
      6  CG        50.4100   36.1350   50.7780 C.ar   13  HIS13       0.0817
      7  ND1       49.2100   35.9210   50.1370 N.ar   13  HIS13      -0.2268
      8  CD2       51.2650   35.2000   50.3010 C.ar   13  HIS13       0.1154
      9  CE1       49.3350   34.9100   49.3010 C.ar   13  HIS13       0.1986
     10  NE2       50.5710   34.4510   49.3800 N.ar   13  HIS13      -0.2212
     11  N         52.3750   37.5900   62.6840 N.3    38  GLU38      -0.1245
     12  CA        51.6010   36.5750   61.9980 C.3    38  GLU38       0.1567
     13  C         51.5510   35.2860   62.8220 C.2    38  GLU38       0.2260
     14  O         52.5960   34.7600   63.2210 O.2    38  GLU38      -0.2867
     15  CB        52.2990   36.3430   60.6710 C.3    38  GLU38       0.0388
     16  CG        51.8680   35.1660   59.8830 C.3    38  GLU38       0.1160
     17  CD        52.5030   35.2030   58.5100 C.2    38  GLU38       0.3649
     18  OE1       53.5970   34.6330   58.3300 O.co2  38  GLU38      -0.2457
     19  OE2       51.9150   35.8450   57.6240 O.co2  38  GLU38      -0.2457
     20  N         48.6420   28.3030   62.7140 N.3    43  TRP43      -0.1241
     21  CA        48.2970   27.7300   61.4170 C.3    43  TRP43       0.1605
     22  C         48.9670   26.3870   61.1670 C.2    43  TRP43       0.2264
     23  O         48.3650   25.4870   60.5820 O.2    43  TRP43      -0.2867
     24  CB        48.7090   28.7000   60.3140 C.3    43  TRP43       0.0550
     25  CG        47.9690   30.0030   60.3930 C.ar   43  TRP43       0.0003
     26  CD1       46.7750   30.2400   61.0190 C.ar   43  TRP43       0.0946
     27  CD2       48.3870   31.2460   59.8370 C.ar   43  TRP43       0.0152
     28  NE1       46.4190   31.5670   60.8770 N.ar   43  TRP43      -0.2442
     29  CE2       47.3920   32.2040   60.1490 C.ar   43  TRP43       0.0810
     30  CE3       49.4910   31.6450   59.0800 C.ar   43  TRP43       0.0012
     31  CZ2       47.4820   33.5300   59.7390 C.ar   43  TRP43       0.0191
     32  CZ3       49.5830   32.9630   58.6850 C.ar   43  TRP43       0.0001
     33  CH2       48.5850   33.8910   59.0080 C.ar   43  TRP43       0.0015
     34  N         48.2240   25.9410   55.9220 N.3    52  ILE52      -0.1245
     35  CA        48.5990   26.5800   54.6680 C.3    52  ILE52       0.1561
     36  C         48.8310   25.5340   53.5790 C.2    52  ILE52       0.2260
     37  O         48.3030   25.6610   52.4690 O.2    52  ILE52      -0.2867
     38  CB        49.8010   27.5050   54.8510 C.3    52  ILE52       0.0252
     39  CG1       49.3760   28.7570   55.6250 C.3    52  ILE52       0.0019
     40  CG2       50.4020   27.8960   53.5020 C.3    52  ILE52       0.0019
     41  CD1       50.5250   29.7010   55.9400 C.3    52  ILE52       0.0001
     42  N         45.5640   24.2430   52.3480 N.3    55  ILE55      -0.1231
     43  CA        44.9140   25.2000   51.4660 C.3    55  ILE55       0.1692
     44  C         45.4870   25.1260   50.0500 C.2    55  ILE55       0.2592
     45  O         44.7580   24.9430   49.0750 O.2    55  ILE55      -0.2718
     46  CB        45.0580   26.6280   52.0280 C.3    55  ILE55       0.0266
     47  CG1       44.1230   26.8040   53.2380 C.3    55  ILE55       0.0019
     48  CG2       44.7490   27.6690   50.9540 C.3    55  ILE55       0.0020
     49  CD1       44.3770   28.0760   54.0300 C.3    55  ILE55       0.0001
     50  N         46.8010   25.2380   49.9360 N.am   56  TYR56      -0.1976
     51  CA        47.4000   25.2510   48.6030 C.3    56  TYR56       0.1639
     52  C         47.3510   23.8990   47.8730 C.2    56  TYR56       0.2290
     53  O         47.1930   23.8520   46.6440 O.2    56  TYR56      -0.2864
     54  CB        48.7980   25.8610   48.6530 C.3    56  TYR56       0.0560
     55  CG        48.7440   27.3690   48.7950 C.ar   56  TYR56      -0.0198
     56  CD1       48.5680   27.9670   50.0420 C.ar   56  TYR56      -0.0009
     57  CD2       48.8350   28.1930   47.6810 C.ar   56  TYR56      -0.0009
     58  CE1       48.5070   29.3430   50.1690 C.ar   56  TYR56       0.0417
     59  CE2       48.7840   29.5660   47.7960 C.ar   56  TYR56       0.0417
     60  CZ        48.6110   30.1400   49.0440 C.ar   56  TYR56       0.1957
     61  OH        48.5570   31.5060   49.1640 O.3    56  TYR56      -0.2866
     62  N         39.7520   28.2290   56.2580 N.3    80  GLN80      -0.1245
     63  CA        39.7240   29.6810   56.4830 C.3    80  GLN80       0.1566
     64  C         39.3240   29.9990   57.9140 C.2    80  GLN80       0.2260
     65  O         39.7390   31.0130   58.4820 O.2    80  GLN80      -0.2867
     66  CB        38.7560   30.3880   55.5310 C.3    80  GLN80       0.0367
     67  CG        39.0230   30.1400   54.0720 C.3    80  GLN80       0.0905
     68  CD        40.2580   30.8280   53.5650 C.2    80  GLN80       0.2608
     69  OE1       40.9220   31.5760   54.2900 O.2    80  GLN80      -0.2717
     70  NE2       40.5760   30.5870   52.3030 N.am   80  GLN80      -0.0878
     71  N         42.4500   29.6660   59.8940 N.3    83  MET83      -0.1245
     72  CA        43.3310   30.7810   59.5810 C.3    83  MET83       0.1570
     73  C         42.9500   32.0360   60.3600 C.2    83  MET83       0.2261
     74  O         43.8200   32.7950   60.7920 O.2    83  MET83      -0.2867
     75  CB        43.3040   31.0880   58.0770 C.3    83  MET83       0.0387
     76  CG        43.8800   29.9830   57.1860 C.3    83  MET83       0.0595
     77  SD        45.6130   29.6100   57.5160 S.3    83  MET83      -0.1393
     78  CE        46.4140   31.1050   56.9550 C.3    83  MET83       0.0692
     79  N         42.9420   36.1420   64.7990 N.3    87  TYR87      -0.1241
     80  CA        42.5120   37.5270   64.6280 C.3    87  TYR87       0.1605
     81  C         41.1990   37.7760   65.3250 C.2    87  TYR87       0.2264
     82  O         40.9760   38.8380   65.9080 O.2    87  TYR87      -0.2867
     83  CB        42.2910   37.8300   63.1590 C.3    87  TYR87       0.0534
     84  CG        43.4540   37.4630   62.2900 C.ar   87  TYR87      -0.0201
     85  CD1       44.7560   37.7860   62.6540 C.ar   87  TYR87      -0.0009
     86  CD2       43.2480   36.8010   61.0930 C.ar   87  TYR87      -0.0009
     87  CE1       45.8320   37.4520   61.8290 C.ar   87  TYR87       0.0417
     88  CE2       44.3090   36.4620   60.2730 C.ar   87  TYR87       0.0417
     89  CZ        45.5940   36.7900   60.6460 C.ar   87  TYR87       0.1957
     90  OH        46.6380   36.4500   59.8070 O.3    87  TYR87      -0.2866
     91  N         49.9740   42.3130   62.4760 N.3   112  ASP112     -0.1225
     92  CA        50.0690   41.6300   61.1990 C.3   112  ASP112      0.1805
     93  C         48.6430   41.1830   60.8570 C.2   112  ASP112      0.2597
     94  O         48.1490   40.1880   61.3830 O.2   112  ASP112     -0.2718
     95  CB        51.0000   40.4210   61.3450 C.3   112  ASP112      0.1424
     96  CG        51.6330   39.9930   60.0330 C.2   112  ASP112      0.3668
     97  OD1       50.9460   39.9980   58.9970 O.co2 112  ASP112     -0.2456
     98  OD2       52.8310   39.6380   60.0440 O.co2 112  ASP112     -0.2456
     99  N         47.9780   41.9750   60.0210 N.am  113  ARG113     -0.1979
    100  CA        46.6340   41.6920   59.4950 C.3   113  ARG113      0.1597
    101  C         45.4610   42.0350   60.4180 C.2   113  ARG113      0.2287
    102  O         45.5870   42.0770   61.6380 O.2   113  ARG113     -0.2864
    103  CB        46.4820   40.2510   58.9840 C.3   113  ARG113      0.0334
    104  CG        47.5060   39.8780   57.9230 C.3   113  ARG113      0.0492
    105  CD        47.0820   38.6730   57.1140 C.3   113  ARG113      0.2205
    106  NE        47.9830   38.5380   55.9710 N.pl3 113  ARG113     -0.0865
    107  CZ        47.8120   39.1590   54.8110 C.cat 113  ARG113      0.5346
    108  NH1       46.7510   39.9460   54.6210 N.pl3 113  ARG113      0.1354
    109  NH2       48.7040   38.9870   53.8410 N.pl3 113  ARG113      0.1354
    110  N         40.9930   40.1580   56.6980 N.3   117  ALA117     -0.1231
    111  CA        41.8260   39.3220   55.8160 C.3   117  ALA117      0.1694
    112  C         41.2610   37.9000   55.7390 C.2   117  ALA117      0.2591
    113  O         41.1340   37.3090   54.6630 O.2   117  ALA117     -0.2718
    114  CB        43.2680   39.2930   56.3100 C.3   117  ALA117      0.0304
    115  N         40.9010   37.3600   56.8990 N.am  118  ALA118     -0.1980
    116  CA        40.4070   35.9970   56.9760 C.3   118  ALA118      0.1597
    117  C         38.8900   35.8630   56.8210 C.2   118  ALA118      0.2287
    118  O         38.4010   34.7920   56.4520 O.2   118  ALA118     -0.2864
    119  CB        40.8710   35.3430   58.2870 C.3   118  ALA118      0.0319
    120  N         40.5410   36.8670   51.8000 N.3   122  TYR122     -0.1241
    121  CA        40.9630   35.5510   51.3320 C.3   122  TYR122      0.1605
    122  C         39.7960   34.6410   50.9280 C.2   122  TYR122      0.2264
    123  O         39.8720   33.9680   49.8900 O.2   122  TYR122     -0.2867
    124  CB        42.0020   34.9060   52.2820 C.3   122  TYR122      0.0534
    125  CG        43.3720   35.5030   52.0430 C.ar  122  TYR122     -0.0201
    126  CD1       43.7310   36.7170   52.6110 C.ar  122  TYR122     -0.0009
    127  CD2       44.2910   34.8720   51.2110 C.ar  122  TYR122     -0.0009
    128  CE1       44.9640   37.2820   52.3690 C.ar  122  TYR122      0.0417
    129  CE2       45.5380   35.4290   50.9640 C.ar  122  TYR122      0.0417
    130  CZ        45.8650   36.6330   51.5370 C.ar  122  TYR122      0.1957
    131  OH        47.0910   37.2040   51.2960 O.3   122  TYR122     -0.2866
    132  N         39.3420   33.1410   47.1840 N.3   126  ARG126     -0.1245
    133  CA        39.0950   31.7260   46.9140 C.3   126  ARG126      0.1563
    134  C         37.8060   31.5280   46.1100 C.2   126  ARG126      0.2260
    135  O         37.7260   30.6510   45.2320 O.2   126  ARG126     -0.2867
    136  CB        39.0830   30.9080   48.2110 C.3   126  ARG126      0.0307
    137  CG        40.4800   30.7850   48.8750 C.3   126  ARG126      0.0489
    138  CD        41.4970   30.0710   47.9430 C.3   126  ARG126      0.2205
    139  NE        42.8650   30.0820   48.4800 N.pl3 126  ARG126     -0.0865
    140  CZ        43.9350   29.6220   47.8190 C.cat 126  ARG126      0.5346
    141  NH1       43.7970   29.1040   46.6080 N.pl3 126  ARG126      0.1354
    142  NH2       45.1460   29.6740   48.3690 N.pl3 126  ARG126      0.1354
    143  N         55.6410   30.6850   52.1260 N.3   172  ARG172     -0.1245
    144  CA        55.4490   30.1970   53.4800 C.3   172  ARG172      0.1563
    145  C         55.4280   28.6660   53.4710 C.2   172  ARG172      0.2260
    146  O         55.3160   28.0700   52.4100 O.2   172  ARG172     -0.2867
    147  CB        54.1690   30.8170   54.0650 C.3   172  ARG172      0.0307
    148  CG        54.4600   32.1740   54.7070 C.3   172  ARG172      0.0489
    149  CD        53.3040   33.1400   54.6120 C.3   172  ARG172      0.2205
    150  NE        53.5400   34.3430   55.4080 N.pl3 172  ARG172     -0.0865
    151  CZ        53.8760   35.5250   54.9030 C.cat 172  ARG172      0.5346
    152  NH1       54.0220   35.6760   53.5930 N.pl3 172  ARG172      0.1354
    153  NH2       54.0610   36.5610   55.7100 N.pl3 172  ARG172      0.1354
    154  N         53.1320   26.5770   51.1620 N.3   175  GLU175     -0.1245
    155  CA        52.6100   27.4380   50.1040 C.3   175  GLU175      0.1567
    156  C         53.0780   26.9650   48.7280 C.2   175  GLU175      0.2260
    157  O         54.1880   26.4480   48.5910 O.2   175  GLU175     -0.2867
    158  CB        53.0420   28.8900   50.3290 C.3   175  GLU175      0.0388
    159  CG        52.4210   29.8760   49.3460 C.3   175  GLU175      0.1160
    160  CD        52.7200   31.3200   49.6800 C.2   175  GLU175      0.3649
    161  OE1       53.3990   31.5740   50.6970 O.co2 175  GLU175     -0.2457
    162  OE2       52.2640   32.2060   48.9250 O.co2 175  GLU175     -0.2457
    163  N         46.0930   32.7520   42.0540 N.3   181  MET181     -0.1245
    164  CA        45.7250   33.2140   43.3880 C.3   181  MET181      0.1570
    165  C         46.3100   34.6080   43.6240 C.2   181  MET181      0.2261
    166  O         45.6430   35.4880   44.1500 O.2   181  MET181     -0.2867
    167  CB        46.1940   32.2200   44.4490 C.3   181  MET181      0.0387
    168  CG        45.8310   32.6210   45.8590 C.3   181  MET181      0.0595
    169  SD        44.0500   32.7620   46.0650 S.3   181  MET181     -0.1393
    170  CE        43.9910   33.3110   47.7940 C.3   181  MET181      0.0692
@<TRIPOS>BOND
     1   163   164    1
     2   164   165    1
     3   164   167    1
     4   165   166    2
     5   167   168    1
     6   135   134    2
     7   168   169    1
     8   169   170    1
     9   134   133    1
    10   141   140    1
    11    53    52    2
    12   133   132    1
    13   133   136    1
    14    57    59   ar
    15    57    55   ar
    16    59    60   ar
    17   140   142    1
    18   140   139    2
    19    52    51    1
    20   138   139    1
    21   138   137    1
    22   136   137    1
    23   157   156    2
    24    51    54    1
    25    51    50    1
    26    54    55    1
    27   156   155    1
    28    55    56   ar
    29   162   160   ar
    30     4     3    2
    31    60    61    1
    32    60    58   ar
    33    45    44    2
    34     9    10   ar
    35     9     7   ar
    36   159   160    1
    37   159   158    1
    38    10     8   ar
    39   160   161   ar
    40   123   122    2
    41    50    44   am
    42    56    58   ar
    43    44    43    1
    44   155   158    1
    45   155   154    1
    46     3     2    1
    47     7     6   ar
    48     8     6   ar
    49     1     2    1
    50     6     5    1
    51   122   121    1
    52    48    46    1
    53   129   127   ar
    54   129   130   ar
    55     2     5    1
    56   127   125   ar
    57   131   130    1
    58   121   120    1
    59   121   124    1
    60    43    46    1
    61    43    42    1
    62   130   128   ar
    63    46    47    1
    64   125   124    1
    65   125   126   ar
    66   143   144    1
    67    70    68   am
    68   128   126   ar
    69   146   145    2
    70    37    36    2
    71    47    49    1
    72   145   144    1
    73   144   147    1
    74    40    38    1
    75    68    67    1
    76    68    69    2
    77    36    35    1
    78   152   151    1
    79   109   107    1
    80   147   148    1
    81    67    66    1
    82   149   148    1
    83   149   150    1
    84   108   107    1
    85   113   112    2
    86    35    38    1
    87    35    34    1
    88   107   106    2
    89    38    39    1
    90   151   150    2
    91   151   153    1
    92    66    63    1
    93    39    41    1
    94   112   111    1
    95   112   115   am
    96   111   114    1
    97   111   110    1
    98   106   105    1
    99    62    63    1
   100   118   117    2
   101    63    64    1
   102   117   116    1
   103   115   116    1
   104    78    77    1
   105   116   119    1
   106   105   104    1
   107    76    77    1
   108    76    75    1
   109    19    17   ar
   110    64    65    2
   111   104   103    1
   112    75    72    1
   113    18    17   ar
   114    17    16    1
   115    32    33   ar
   116    32    30   ar
   117   103   100    1
   118    97    96   ar
   119    33    31   ar
   120    30    27   ar
   121   100    99    1
   122   100   101    1
   123    72    71    1
   124    72    73    1
   125    31    29   ar
   126    90    89    1
   127    27    29   ar
   128    27    25   ar
   129    16    15    1
   130    99    93   am
   131    96    98   ar
   132    96    95    1
   133    29    28   ar
   134    88    89   ar
   135    88    86   ar
   136    24    25    1
   137    24    21    1
   138    73    74    2
   139    25    26   ar
   140   101   102    2
   141    23    22    2
   142    89    87   ar
   143    15    12    1
   144    93    92    1
   145    93    94    2
   146    28    26   ar
   147    86    84   ar
   148    22    21    1
   149    92    95    1
   150    92    91    1
   151    21    20    1
   152    87    85   ar
   153    12    11    1
   154    12    13    1
   155    84    85   ar
   156    84    83    1
   157    13    14    2
   158    83    80    1
   159    80    79    1
   160    80    81    1
   161    81    82    2
