@<TRIPOS>MOLECULE
tmp/4ivrB00.pdb
 179 169 0 0 0
SMALL
GASTEIGER

@<TRIPOS>ATOM
      1  N         49.8680   38.0920   51.1020 N.3    13  HIS13      -0.1241
      2  CA        51.1670   37.6310   51.5610 C.3    13  HIS13       0.1621
      3  C         52.1890   37.5990   50.4110 C.2    13  HIS13       0.2264
      4  O         51.8260   37.5790   49.2140 O.2    13  HIS13      -0.2867
      5  CB        51.0550   36.2620   52.2330 C.3    13  HIS13       0.0745
      6  CG        50.8330   35.1250   51.2850 C.ar   13  HIS13       0.0817
      7  ND1       49.6180   34.8840   50.6740 N.ar   13  HIS13      -0.2268
      8  CD2       51.6650   34.1390   50.8650 C.ar   13  HIS13       0.1154
      9  CE1       49.7130   33.8090   49.9130 C.ar   13  HIS13       0.1986
     10  NE2       50.9430   33.3350   50.0160 N.ar   13  HIS13      -0.2212
     11  N         55.5790   41.8220   54.0450 N.3    17  LYS17      -0.1245
     12  CA        54.8140   42.1180   55.2740 C.3    17  LYS17       0.1561
     13  C         55.5050   41.8400   56.6180 C.2    17  LYS17       0.2260
     14  O         55.3430   42.6040   57.5710 O.2    17  LYS17      -0.2867
     15  CB        53.4840   41.3530   55.2670 C.3    17  LYS17       0.0271
     16  CG        52.2670   42.1190   54.7550 C.3    17  LYS17       0.0035
     17  CD        51.0400   41.1980   54.7340 C.3    17  LYS17       0.0206
     18  CE        51.0210   40.2440   55.9470 C.3    17  LYS17       0.1093
     19  NZ        50.8460   40.9020   57.2770 N.3    17  LYS17      -0.1314
     20  N         52.6260   36.5150   63.2910 N.3    38  GLU38      -0.1245
     21  CA        52.0020   35.4010   62.6050 C.3    38  GLU38       0.1567
     22  C         51.9710   34.1470   63.4770 C.2    38  GLU38       0.2260
     23  O         52.9970   33.7120   63.9830 O.2    38  GLU38      -0.2867
     24  CB        52.8170   35.1320   61.3460 C.3    38  GLU38       0.0388
     25  CG        52.3930   33.9640   60.5100 C.3    38  GLU38       0.1160
     26  CD        53.0850   33.9820   59.1540 C.2    38  GLU38       0.3649
     27  OE1       53.0520   32.9490   58.4620 O.co2  38  GLU38      -0.2457
     28  OE2       53.6560   35.0360   58.7830 O.co2  38  GLU38      -0.2457
     29  N         48.9110   27.2840   63.1780 N.3    43  TRP43      -0.1241
     30  CA        48.5750   26.7310   61.8630 C.3    43  TRP43       0.1605
     31  C         49.2270   25.3640   61.6070 C.2    43  TRP43       0.2264
     32  O         48.6090   24.4710   61.0330 O.2    43  TRP43      -0.2867
     33  CB        48.9580   27.7170   60.7680 C.3    43  TRP43       0.0550
     34  CG        48.2540   29.0310   60.8630 C.ar   43  TRP43       0.0003
     35  CD1       47.0950   29.2940   61.5260 C.ar   43  TRP43       0.0946
     36  CD2       48.6670   30.2690   60.2700 C.ar   43  TRP43       0.0152
     37  NE1       46.7480   30.6170   61.3770 N.ar   43  TRP43      -0.2442
     38  CE2       47.6980   31.2400   60.6120 C.ar   43  TRP43       0.0810
     39  CE3       49.7520   30.6490   59.4730 C.ar   43  TRP43       0.0012
     40  CZ2       47.7880   32.5680   60.1960 C.ar   43  TRP43       0.0191
     41  CZ3       49.8390   31.9710   59.0540 C.ar   43  TRP43       0.0001
     42  CH2       48.8620   32.9120   59.4170 C.ar   43  TRP43       0.0015
     43  N         48.4230   24.9320   56.3070 N.3    52  ILE52      -0.1245
     44  CA        48.8460   25.5330   55.0440 C.3    52  ILE52       0.1561
     45  C         48.9730   24.4650   53.9680 C.2    52  ILE52       0.2260
     46  O         48.4120   24.5890   52.8850 O.2    52  ILE52      -0.2867
     47  CB        50.2110   26.2340   55.1790 C.3    52  ILE52       0.0252
     48  CG1       50.1350   27.3950   56.1750 C.3    52  ILE52       0.0019
     49  CG2       50.7100   26.7110   53.8020 C.3    52  ILE52       0.0019
     50  CD1       49.4690   28.6290   55.6340 C.3    52  ILE52       0.0001
     51  N         45.6830   23.1420   52.8040 N.3    55  ILE55      -0.1231
     52  CA        45.0220   24.0880   51.9140 C.3    55  ILE55       0.1692
     53  C         45.4890   23.9340   50.4670 C.2    55  ILE55       0.2592
     54  O         44.6750   23.7420   49.5620 O.2    55  ILE55      -0.2718
     55  CB        45.2330   25.5440   52.4030 C.3    55  ILE55       0.0266
     56  CG1       44.4390   25.7820   53.6960 C.3    55  ILE55       0.0019
     57  CG2       44.8430   26.5580   51.3330 C.3    55  ILE55       0.0020
     58  CD1       44.4150   27.2310   54.1430 C.3    55  ILE55       0.0001
     59  N         46.8010   23.9930   50.2640 N.am   56  TYR56      -0.1976
     60  CA        47.3980   23.9920   48.9290 C.3    56  TYR56       0.1639
     61  C         47.3640   22.6370   48.1990 C.2    56  TYR56       0.2290
     62  O         47.2520   22.5810   46.9690 O.2    56  TYR56      -0.2864
     63  CB        48.8370   24.5060   49.0030 C.3    56  TYR56       0.0560
     64  CG        48.9640   26.0100   49.1800 C.ar   56  TYR56      -0.0198
     65  CD1       48.9410   26.8610   48.0780 C.ar   56  TYR56      -0.0009
     66  CD2       49.1300   26.5800   50.4460 C.ar   56  TYR56      -0.0009
     67  CE1       49.0610   28.2400   48.2220 C.ar   56  TYR56       0.0417
     68  CE2       49.2570   27.9600   50.5980 C.ar   56  TYR56       0.0417
     69  CZ        49.2270   28.7830   49.4790 C.ar   56  TYR56       0.1957
     70  OH        49.3560   30.1510   49.6090 O.3    56  TYR56      -0.2866
     71  N         40.1470   26.9800   56.7780 N.3    80  GLN80      -0.1245
     72  CA        40.2320   28.4270   56.9330 C.3    80  GLN80       0.1566
     73  C         39.6930   28.9120   58.2810 C.2    80  GLN80       0.2260
     74  O         40.1270   29.9390   58.8000 O.2    80  GLN80      -0.2867
     75  CB        39.6050   29.1330   55.7280 C.3    80  GLN80       0.0367
     76  CG        40.4440   28.8670   54.4580 C.3    80  GLN80       0.0905
     77  CD        40.0100   29.6670   53.2720 C.2    80  GLN80       0.2608
     78  OE1       39.1040   29.2680   52.5590 O.2    80  GLN80      -0.2717
     79  NE2       40.6590   30.7970   53.0370 N.am   80  GLN80      -0.0878
     80  N         42.7590   28.5770   60.2840 N.3    83  MET83      -0.1245
     81  CA        43.6720   29.6890   60.0190 C.3    83  MET83       0.1570
     82  C         43.2680   30.9700   60.7550 C.2    83  MET83       0.2261
     83  O         44.1220   31.7650   61.1270 O.2    83  MET83      -0.2867
     84  CB        43.7640   29.9820   58.5110 C.3    83  MET83       0.0387
     85  CG        44.3080   28.8310   57.6610 C.3    83  MET83       0.0595
     86  SD        46.0490   28.4950   57.9440 S.3    83  MET83      -0.1393
     87  CE        46.7670   30.0520   57.4060 C.3    83  MET83       0.0692
     88  N         43.3990   34.9900   65.1940 N.3    87  TYR87      -0.1241
     89  CA        43.0060   36.3690   64.8870 C.3    87  TYR87       0.1605
     90  C         41.6990   36.7210   65.5890 C.2    87  TYR87       0.2264
     91  O         41.5590   37.7890   66.1990 O.2    87  TYR87      -0.2867
     92  CB        42.8000   36.5480   63.3790 C.3    87  TYR87       0.0534
     93  CG        44.0300   36.3100   62.5270 C.ar   87  TYR87      -0.0201
     94  CD1       45.3000   36.6120   63.0020 C.ar   87  TYR87      -0.0009
     95  CD2       43.9150   35.7940   61.2390 C.ar   87  TYR87      -0.0009
     96  CE1       46.4190   36.4060   62.2290 C.ar   87  TYR87       0.0417
     97  CE2       45.0440   35.5740   60.4460 C.ar   87  TYR87       0.0417
     98  CZ        46.2950   35.8800   60.9570 C.ar   87  TYR87       0.1957
     99  OH        47.4220   35.6810   60.1950 O.3    87  TYR87      -0.2866
    100  N         50.2880   41.1860   62.9030 N.3   112  ASP112     -0.1225
    101  CA        50.3990   40.5180   61.6250 C.3   112  ASP112      0.1805
    102  C         48.9980   40.0830   61.2160 C.2   112  ASP112      0.2597
    103  O         48.5260   39.0420   61.6620 O.2   112  ASP112     -0.2718
    104  CB        51.2980   39.2900   61.7380 C.3   112  ASP112      0.1424
    105  CG        51.7810   38.7930   60.3850 C.2   112  ASP112      0.3668
    106  OD1       51.0730   38.9850   59.3700 O.co2 112  ASP112     -0.2456
    107  OD2       52.8800   38.2120   60.3360 O.co2 112  ASP112     -0.2456
    108  N         48.3540   40.8840   60.3670 N.am  113  ARG113     -0.1979
    109  CA        46.9950   40.6470   59.8660 C.3   113  ARG113      0.1597
    110  C         45.8710   41.0300   60.8200 C.2   113  ARG113      0.2287
    111  O         46.0270   41.0250   62.0340 O.2   113  ARG113     -0.2864
    112  CB        46.7910   39.2130   59.3490 C.3   113  ARG113      0.0334
    113  CG        47.8310   38.8140   58.3440 C.3   113  ARG113      0.0492
    114  CD        47.4510   37.6010   57.5370 C.3   113  ARG113      0.2205
    115  NE        48.3010   37.5930   56.3600 N.pl3 113  ARG113     -0.0865
    116  CZ        48.1090   38.3790   55.3070 C.cat 113  ARG113      0.5346
    117  NH1       47.0650   39.2070   55.2720 N.pl3 113  ARG113      0.1354
    118  NH2       48.9540   38.3320   54.2820 N.pl3 113  ARG113      0.1354
    119  N         41.2090   39.2180   57.0100 N.3   117  ALA117     -0.1231
    120  CA        42.0440   38.4070   56.1370 C.3   117  ALA117      0.1694
    121  C         41.5610   36.9610   56.0990 C.2   117  ALA117      0.2591
    122  O         41.5690   36.3100   55.0460 O.2   117  ALA117     -0.2718
    123  CB        43.5090   38.4580   56.5710 C.3   117  ALA117      0.0304
    124  N         41.1450   36.4390   57.2430 N.am  118  ALA118     -0.1980
    125  CA        40.7930   35.0360   57.2710 C.3   118  ALA118      0.1597
    126  C         39.3060   34.8210   57.1120 C.2   118  ALA118      0.2287
    127  O         38.8830   33.7270   56.7740 O.2   118  ALA118     -0.2864
    128  CB        41.3010   34.3800   58.5180 C.3   118  ALA118      0.0319
    129  N         40.9480   35.9220   52.1440 N.3   122  TYR122     -0.1241
    130  CA        41.3960   34.6050   51.7080 C.3   122  TYR122      0.1605
    131  C         40.2950   33.6760   51.2460 C.2   122  TYR122      0.2264
    132  O         40.4520   33.0340   50.2090 O.2   122  TYR122     -0.2867
    133  CB        42.3650   33.9370   52.6960 C.3   122  TYR122      0.0534
    134  CG        43.7750   34.4670   52.4970 C.ar  122  TYR122     -0.0201
    135  CD1       44.1350   35.7260   52.9750 C.ar  122  TYR122     -0.0009
    136  CD2       44.7210   33.7400   51.7810 C.ar  122  TYR122     -0.0009
    137  CE1       45.3910   36.2380   52.7710 C.ar  122  TYR122      0.0417
    138  CE2       45.9990   34.2430   51.5690 C.ar  122  TYR122      0.0417
    139  CZ        46.3260   35.4910   52.0630 C.ar  122  TYR122      0.1957
    140  OH        47.5790   35.9990   51.8680 O.3   122  TYR122     -0.2866
    141  N         39.7630   32.0920   47.4490 N.3   126  ARG126     -0.1245
    142  CA        39.5310   30.6640   47.2210 C.3   126  ARG126      0.1563
    143  C         38.2330   30.4290   46.4510 C.2   126  ARG126      0.2260
    144  O         38.1240   29.4700   45.6840 O.2   126  ARG126     -0.2867
    145  CB        39.5250   29.8940   48.5460 C.3   126  ARG126      0.0307
    146  CG        40.8890   29.8290   49.2230 C.3   126  ARG126      0.0489
    147  CD        41.8090   28.8730   48.4680 C.3   126  ARG126      0.2205
    148  NE        43.2130   29.0430   48.8430 N.pl3 126  ARG126     -0.0865
    149  CZ        44.2410   28.5290   48.1640 C.cat 126  ARG126      0.5346
    150  NH1       44.0310   27.8000   47.0680 N.pl3 126  ARG126      0.1354
    151  NH2       45.4790   28.7540   48.5680 N.pl3 126  ARG126      0.1354
    152  N         55.9860   29.4230   52.4470 N.3   172  ARG172     -0.1245
    153  CA        55.8000   28.9400   53.8110 C.3   172  ARG172      0.1563
    154  C         55.6510   27.4190   53.7810 C.2   172  ARG172      0.2260
    155  O         55.4750   26.8460   52.7140 O.2   172  ARG172     -0.2867
    156  CB        54.5500   29.5970   54.4150 C.3   172  ARG172      0.0307
    157  CG        54.7350   31.0730   54.6920 C.3   172  ARG172      0.0489
    158  CD        53.4130   31.7680   54.9850 C.3   172  ARG172      0.2205
    159  NE        53.6510   33.0060   55.7250 N.pl3 172  ARG172     -0.0865
    160  CZ        53.9130   34.1830   55.1650 C.cat 172  ARG172      0.5346
    161  NH1       53.9810   34.3100   53.8370 N.pl3 172  ARG172      0.1354
    162  NH2       54.1110   35.2400   55.9360 N.pl3 172  ARG172      0.1354
    163  N         53.2530   25.3190   51.4150 N.3   175  GLU175     -0.1245
    164  CA        52.7250   26.2120   50.3970 C.3   175  GLU175      0.1567
    165  C         53.1900   25.7610   49.0120 C.2   175  GLU175      0.2260
    166  O         54.3150   25.2880   48.8580 O.2   175  GLU175     -0.2867
    167  CB        53.1770   27.6570   50.6540 C.3   175  GLU175      0.0388
    168  CG        52.7380   28.6140   49.5420 C.3   175  GLU175      0.1160
    169  CD        53.0670   30.0620   49.8120 C.2   175  GLU175      0.3649
    170  OE1       53.9370   30.3400   50.6740 O.co2 175  GLU175     -0.2457
    171  OE2       52.4410   30.9230   49.1490 O.co2 175  GLU175     -0.2457
    172  N         46.2720   31.5710   42.3180 N.3   181  MET181     -0.1245
    173  CA        46.0000   32.0520   43.6680 C.3   181  MET181      0.1570
    174  C         46.5560   33.4530   43.8610 C.2   181  MET181      0.2261
    175  O         45.8750   34.3210   44.4070 O.2   181  MET181     -0.2867
    176  CB        46.5930   31.1290   44.7300 C.3   181  MET181      0.0387
    177  CG        46.4220   31.6620   46.1590 C.3   181  MET181      0.0595
    178  SD        44.6700   31.9510   46.5190 S.3   181  MET181     -0.1393
    179  CE        44.7340   32.9520   47.9970 C.3   181  MET181      0.0692
@<TRIPOS>BOND
     1   172   173    1
     2   173   174    1
     3   173   176    1
     4   174   175    2
     5   176   177    1
     6   144   143    2
     7   177   178    1
     8   143   142    1
     9   178   179    1
    10    62    61    2
    11   150   149    1
    12   142   141    1
    13   142   145    1
    14    65    67   ar
    15    65    64   ar
    16   149   151    1
    17   149   148    2
    18    61    60    1
    19    67    69   ar
    20   147   148    1
    21   147   146    1
    22   145   146    1
    23   166   165    2
    24    60    63    1
    25    60    59    1
    26    63    64    1
    27   165   164    1
    28   171   169   ar
    29    64    66   ar
    30     4     3    2
    31    69    70    1
    32    69    68   ar
    33   168   169    1
    34   168   167    1
    35    54    53    2
    36   169   170   ar
    37     9    10   ar
    38     9     7   ar
    39    10     8   ar
    40   132   131    2
    41    59    53   am
    42   164   167    1
    43   164   163    1
    44     3     2    1
    45    66    68   ar
    46    53    52    1
    47     7     6   ar
    48     8     6   ar
    49     1     2    1
    50   131   130    1
    51     6     5    1
    52    57    55    1
    53     2     5    1
    54   138   136   ar
    55   138   139   ar
    56   130   129    1
    57   130   133    1
    58   136   134   ar
    59   140   139    1
    60    52    55    1
    61    52    51    1
    62   139   137   ar
    63    55    56    1
    64   152   153    1
    65   134   133    1
    66   134   135   ar
    67    78    77    2
    68   155   154    2
    69   137   135   ar
    70    46    45    2
    71    79    77   am
    72    77    76    1
    73    56    58    1
    74   154   153    1
    75    49    47    1
    76   153   156    1
    77   161   160    1
    78    45    44    1
    79    11    12    1
    80   118   116    1
    81   156   157    1
    82    76    75    1
    83   157   158    1
    84    17    16    1
    85    17    18    1
    86    16    15    1
    87   158   159    1
    88    44    47    1
    89    44    43    1
    90   122   121    2
    91   160   159    2
    92   160   162    1
    93    47    48    1
    94    15    12    1
    95   117   116    1
    96    12    13    1
    97   116   115    2
    98    50    48    1
    99    75    72    1
   100    18    19    1
   101   121   120    1
   102   121   124   am
   103   120   123    1
   104   120   119    1
   105   115   114    1
   106    13    14    2
   107   127   126    2
   108    71    72    1
   109    72    73    1
   110   126   125    1
   111   124   125    1
   112   125   128    1
   113    87    86    1
   114   114   113    1
   115    85    86    1
   116    85    84    1
   117    73    74    2
   118   113   112    1
   119    27    26   ar
   120    84    81    1
   121    28    26   ar
   122    41    42   ar
   123    41    39   ar
   124    26    25    1
   125   112   109    1
   126   106   105   ar
   127    42    40   ar
   128    39    36   ar
   129   109   108    1
   130   109   110    1
   131    81    80    1
   132    81    82    1
   133    99    98    1
   134    40    38   ar
   135    36    38   ar
   136    36    34   ar
   137   107   105   ar
   138   108   102   am
   139   105   104    1
   140    97    98   ar
   141    97    95   ar
   142    25    24    1
   143    38    37   ar
   144    82    83    2
   145    33    34    1
   146    33    30    1
   147   110   111    2
   148    34    35   ar
   149    98    96   ar
   150    32    31    2
   151   102   101    1
   152   102   103    2
   153    95    93   ar
   154    24    21    1
   155    37    35   ar
   156    31    30    1
   157   101   104    1
   158   101   100    1
   159    30    29    1
   160    96    94   ar
   161    93    94   ar
   162    93    92    1
   163    21    20    1
   164    21    22    1
   165    92    89    1
   166    22    23    2
   167    89    88    1
   168    89    90    1
   169    90    91    2
