@<TRIPOS>MOLECULE
tmp/4ivtA00.pdb
 186 176 0 0 0
SMALL
GASTEIGER

@<TRIPOS>ATOM
      1  N         18.1150   14.8390    5.5630 N.3    17  GLN17      -0.1245
      2  CA        17.1130   15.5480    4.7770 C.3    17  GLN17       0.1566
      3  C         16.6430   16.8140    5.4630 C.2    17  GLN17       0.2260
      4  O         15.7960   17.5280    4.9360 O.2    17  GLN17      -0.2867
      5  CB        15.9280   14.6430    4.4540 C.3    17  GLN17       0.0367
      6  CG        16.3020   13.4610    3.5750 C.3    17  GLN17       0.0905
      7  CD        15.0930   12.7580    3.0040 C.2    17  GLN17       0.2608
      8  OE1       14.0690   12.6180    3.6710 O.2    17  GLN17      -0.2717
      9  NE2       15.2050   12.3070    1.7580 N.am   17  GLN17      -0.0878
     10  N         11.7290   23.6050    7.4930 N.3    35  LEU35      -0.1245
     11  CA        13.1520   23.3320    7.6850 C.3    35  LEU35       0.1561
     12  C         13.8150   24.4570    8.4860 C.2    35  LEU35       0.2260
     13  O         13.6950   25.6270    8.1350 O.2    35  LEU35      -0.2867
     14  CB        13.8290   23.2100    6.3110 C.3    35  LEU35       0.0270
     15  CG        15.3450   23.0150    6.3350 C.3    35  LEU35       0.0019
     16  CD1       15.6590   21.6100    6.7880 C.3    35  LEU35       0.0001
     17  CD2       15.9260   23.2930    4.9490 C.3    35  LEU35       0.0001
     18  N         16.8640   26.5060    9.2780 N.3    37  ASP37      -0.1239
     19  CA        18.0650   26.7980    8.5050 C.3    37  ASP37       0.1674
     20  C         18.8100   28.0380    8.9780 C.2    37  ASP37       0.2266
     21  O         18.4490   29.1690    8.6300 O.2    37  ASP37      -0.2867
     22  CB        17.7090   26.9550    7.0260 C.3    37  ASP37       0.1410
     23  CG        18.9370   27.1210    6.1730 C.2    37  ASP37       0.3668
     24  OD1       20.0370   26.8270    6.6850 O.co2  37  ASP37      -0.2456
     25  OD2       18.8110   27.5410    5.0160 O.co2  37  ASP37      -0.2456
     26  N         21.5790   28.8750    7.8880 N.3    39  GLY39      -0.1210
     27  CA        22.4070   29.3120    6.7720 C.3    39  GLY39       0.1956
     28  C         21.7150   30.1960    5.7460 C.2    39  GLY39       0.2612
     29  O         22.2870   30.4980    4.6960 O.2    39  GLY39      -0.2717
     30  N         20.4910   30.6180    6.0370 N.am   40  SER40      -0.1952
     31  CA        19.7750   31.5270    5.1460 C.3    40  SER40       0.1924
     32  C         18.8610   32.4250    5.9590 C.2    40  SER40       0.2314
     33  O         18.7750   32.2840    7.1750 O.2    40  SER40      -0.2863
     34  CB        18.9640   30.7510    4.1090 C.3    40  SER40       0.2116
     35  OG        17.9610   29.9720    4.7440 O.3    40  SER40      -0.2180
     36  N         20.5320   28.6670   -4.9470 N.3    76  TYR76      -0.1227
     37  CA        21.6220   28.0290   -4.2080 C.3    76  TYR76       0.1736
     38  C         22.4950   27.3100   -5.2220 C.2    76  TYR76       0.2596
     39  O         22.2380   27.3800   -6.4260 O.2    76  TYR76      -0.2718
     40  CB        21.0870   27.0370   -3.1780 C.3    76  TYR76       0.0548
     41  CG        19.9150   27.5380   -2.3520 C.ar   76  TYR76      -0.0200
     42  CD1       20.1080   28.2530   -1.1730 C.ar   76  TYR76      -0.0009
     43  CD2       18.6110   27.2790   -2.7550 C.ar   76  TYR76      -0.0009
     44  CE1       19.0120   28.7020   -0.4260 C.ar   76  TYR76       0.0417
     45  CE2       17.5280   27.7160   -2.0250 C.ar   76  TYR76       0.0417
     46  CZ        17.7260   28.4210   -0.8670 C.ar   76  TYR76       0.1957
     47  OH        16.6110   28.8360   -0.1620 O.3    76  TYR76      -0.2866
     48  N         23.5260   26.6140   -4.7570 N.am   77  THR77      -0.1939
     49  CA        24.3930   25.9000   -5.6940 C.3    77  THR77       0.2028
     50  C         23.6420   24.7260   -6.3110 C.2    77  THR77       0.2642
     51  O         23.8200   24.4030   -7.4830 O.2    77  THR77      -0.2714
     52  CB        25.6610   25.3620   -5.0030 C.3    77  THR77       0.1808
     53  OG1       26.3030   26.4230   -4.2930 O.3    77  THR77      -0.2208
     54  CG2       26.6260   24.7880   -6.0280 C.3    77  THR77       0.0379
     55  N         22.7780   24.1160   -5.5070 N.am   78  GLN78      -0.1963
     56  CA        22.1880   22.8190   -5.8150 C.3    78  GLN78       0.1733
     57  C         20.7090   22.8870   -6.1990 C.2    78  GLN78       0.2616
     58  O         20.1160   21.8760   -6.5850 O.2    78  GLN78      -0.2715
     59  CB        22.3530   21.8950   -4.6060 C.3    78  GLN78       0.0408
     60  CG        21.7090   22.4270   -3.3220 C.3    78  GLN78       0.0908
     61  CD        22.5400   23.4970   -2.6140 C.2    78  GLN78       0.2608
     62  OE1       23.4190   24.1100   -3.2080 O.2    78  GLN78      -0.2717
     63  NE2       22.2580   23.7160   -1.3370 N.am   78  GLN78      -0.0878
     64  N         20.1180   24.0720   -6.0860 N.am   79  GLY79      -0.1955
     65  CA        18.7130   24.2580   -6.4180 C.3    79  GLY79       0.1869
     66  C         18.2980   25.7150   -6.3330 C.2    79  GLY79       0.2309
     67  O         19.1230   26.5780   -6.0490 O.2    79  GLY79      -0.2863
     68  N         14.8010   21.5160   -7.7710 N.3   112  LYS112     -0.1231
     69  CA        15.6560   20.7410   -6.8710 C.3   112  LYS112      0.1693
     70  C         15.8090   21.3620   -5.4860 C.2   112  LYS112      0.2592
     71  O         16.8860   21.3130   -4.8870 O.2   112  LYS112     -0.2718
     72  CB        17.0330   20.5070   -7.5020 C.3   112  LYS112      0.0285
     73  CG        16.9750   19.6800   -8.7690 C.3   112  LYS112      0.0035
     74  CD        18.3700   19.3010   -9.2500 C.3   112  LYS112      0.0206
     75  CE        18.9790   20.3440  -10.1930 C.3   112  LYS112      0.1093
     76  NZ        18.4130   20.3210  -11.5910 N.3   112  LYS112     -0.1314
     77  N         14.7330   21.9630   -4.9890 N.am  113  PHE113     -0.1962
     78  CA        14.7460   22.5530   -3.6610 C.3   113  PHE113      0.1771
     79  C         14.0760   21.6270   -2.6590 C.2   113  PHE113      0.2620
     80  O         14.6780   21.2370   -1.6620 O.2   113  PHE113     -0.2715
     81  CB        14.0400   23.9110   -3.6680 C.3   113  PHE113      0.0574
     82  CG        13.9850   24.5520   -2.3200 C.ar  113  PHE113     -0.0200
     83  CD1       15.1450   24.9800   -1.7040 C.ar  113  PHE113     -0.0042
     84  CD2       12.7750   24.7170   -1.6630 C.ar  113  PHE113     -0.0042
     85  CE1       15.1100   25.5710   -0.4550 C.ar  113  PHE113     -0.0003
     86  CE2       12.7330   25.3130   -0.4040 C.ar  113  PHE113     -0.0003
     87  CZ        13.9070   25.7330    0.1930 C.ar  113  PHE113     -0.0000
     88  N         12.8250   21.2700   -2.9240 N.am  114  PHE114     -0.1960
     89  CA        12.1390   20.3230   -2.0600 C.3   114  PHE114      0.1771
     90  C         12.7540   18.9250   -2.1760 C.2   114  PHE114      0.2619
     91  O         13.3750   18.5790   -3.1930 O.2   114  PHE114     -0.2715
     92  CB        10.6340   20.3130   -2.3430 C.3   114  PHE114      0.0574
     93  CG         9.9650   21.6380   -2.0800 C.ar  114  PHE114     -0.0200
     94  CD1        9.3600   22.3490   -3.1050 C.ar  114  PHE114     -0.0042
     95  CD2        9.9590   22.1810   -0.8030 C.ar  114  PHE114     -0.0042
     96  CE1        8.7550   23.5670   -2.8570 C.ar  114  PHE114     -0.0003
     97  CE2        9.3550   23.4000   -0.5500 C.ar  114  PHE114     -0.0003
     98  CZ         8.7480   24.0930   -1.5790 C.ar  114  PHE114     -0.0000
     99  N         12.6080   18.1420   -1.1140 N.am  115  ILE115     -0.1977
    100  CA        13.2150   16.8170   -1.0330 C.3   115  ILE115      0.1596
    101  C         12.1290   15.7760   -0.8130 C.2   115  ILE115      0.2287
    102  O         11.3930   15.8340    0.1730 O.2   115  ILE115     -0.2864
    103  CB        14.2230   16.7400    0.1230 C.3   115  ILE115      0.0276
    104  CG1       15.3570   17.7400   -0.0980 C.3   115  ILE115      0.0022
    105  CG2       14.7690   15.3240    0.2680 C.3   115  ILE115      0.0022
    106  CD1       16.3660   17.7770    1.0350 C.3   115  ILE115      0.0001
    107  N          9.0630   18.0960    4.9210 N.3   120  TRP120     -0.1241
    108  CA         8.9730   19.5480    5.1100 C.3   120  TRP120      0.1605
    109  C          8.5380   20.2880    3.8450 C.2   120  TRP120      0.2264
    110  O          8.7440   19.8170    2.7260 O.2   120  TRP120     -0.2867
    111  CB        10.2350   20.1650    5.7590 C.3   120  TRP120      0.0550
    112  CG        11.5300   19.9140    5.0600 C.ar  120  TRP120      0.0003
    113  CD1       12.4600   18.9630    5.3840 C.ar  120  TRP120      0.0946
    114  CD2       12.0770   20.6480    3.9520 C.ar  120  TRP120      0.0152
    115  NE1       13.5350   19.0450    4.5350 N.ar  120  TRP120     -0.2442
    116  CE2       13.3230   20.0630    3.6390 C.ar  120  TRP120      0.0810
    117  CE3       11.6280   21.7300    3.1820 C.ar  120  TRP120      0.0012
    118  CZ2       14.1300   20.5330    2.5970 C.ar  120  TRP120      0.0191
    119  CZ3       12.4290   22.1950    2.1440 C.ar  120  TRP120      0.0001
    120  CH2       13.6680   21.5950    1.8610 C.ar  120  TRP120      0.0015
    121  N         10.9150   26.6840    4.5160 N.3   123  ILE123     -0.1245
    122  CA        12.2290   26.9200    5.1120 C.3   123  ILE123      0.1561
    123  C         12.1640   28.1560    6.0150 C.2   123  ILE123      0.2260
    124  O         11.5300   29.1570    5.6740 O.2   123  ILE123     -0.2867
    125  CB        13.3120   27.0700    4.0060 C.3   123  ILE123      0.0252
    126  CG1       14.7140   27.1940    4.6230 C.3   123  ILE123      0.0019
    127  CG2       12.9930   28.2540    3.0730 C.3   123  ILE123      0.0019
    128  CD1       15.8260   26.9660    3.5870 C.3   123  ILE123      0.0001
    129  N         31.0850   29.2420    8.5200 N.3   219  ILE219     -0.1245
    130  CA        29.7350   29.5000    9.0110 C.3   219  ILE219      0.1561
    131  C         29.1120   28.2880    9.6780 C.2   219  ILE219      0.2260
    132  O         29.5370   27.1410    9.4580 O.2   219  ILE219     -0.2867
    133  CB        28.7960   29.9700    7.8860 C.3   219  ILE219      0.0252
    134  CG1       28.4980   28.8290    6.9090 C.3   219  ILE219      0.0019
    135  CG2       29.3760   31.1800    7.1620 C.3   219  ILE219      0.0019
    136  CD1       27.4020   29.1800    5.9290 C.3   219  ILE219      0.0001
    137  N         25.7220   26.2390    9.8470 N.3   221  ASP221     -0.1239
    138  CA        24.6180   26.1210    8.8820 C.3   221  ASP221      0.1674
    139  C         23.7830   24.8570    9.0950 C.2   221  ASP221      0.2266
    140  O         24.1240   23.7860    8.5920 O.2   221  ASP221     -0.2867
    141  CB        25.2150   26.1200    7.4690 C.3   221  ASP221      0.1410
    142  CG        24.1660   26.1320    6.3670 C.2   221  ASP221      0.3668
    143  OD1       22.9610   26.0640    6.6610 O.co2 221  ASP221     -0.2456
    144  OD2       24.5740   26.1960    5.1950 O.co2 221  ASP221     -0.2456
    145  N         21.0450   24.0530    7.8390 N.3   223  GLY223     -0.1210
    146  CA        20.3170   23.6620    6.6470 C.3   223  GLY223      0.1956
    147  C         21.1330   22.8470    5.6740 C.2   223  GLY223      0.2612
    148  O         20.6880   22.5670    4.5610 O.2   223  GLY223     -0.2717
    149  N         22.3420   22.4680    6.0620 N.am  224  THR224     -0.1952
    150  CA        23.0760   21.5670    5.1920 C.3   224  THR224      0.1897
    151  C         23.6630   20.4270    5.9980 C.2   224  THR224      0.2313
    152  O         23.9430   20.5790    7.1860 O.2   224  THR224     -0.2863
    153  CB        24.1270   22.2910    4.3720 C.3   224  THR224      0.1794
    154  OG1       24.4120   21.5240    3.1960 O.3   224  THR224     -0.2208
    155  CG2       25.3840   22.5080    5.1750 C.3   224  THR224      0.0378
    156  N         31.5980   20.9730    5.2900 N.3   228  ARG228     -0.1245
    157  CA        32.2240   21.3180    4.0240 C.3   228  ARG228      0.1563
    158  C         33.4830   22.1360    4.3060 C.2   228  ARG228      0.2260
    159  O         33.4680   23.0430    5.1290 O.2   228  ARG228     -0.2867
    160  CB        31.2270   22.0590    3.1250 C.3   228  ARG228      0.0307
    161  CG        29.8240   21.4430    3.1920 C.3   228  ARG228      0.0489
    162  CD        28.8350   22.0600    2.2050 C.3   228  ARG228      0.2205
    163  NE        29.2300   21.8140    0.8230 N.pl3 228  ARG228     -0.0865
    164  CZ        28.8790   20.7460    0.1130 C.cat 228  ARG228      0.5346
    165  NH1       28.1100   19.7990    0.6450 N.pl3 228  ARG228      0.1354
    166  NH2       29.3050   20.6260   -1.1380 N.pl3 228  ARG228      0.1354
    167  N         34.4930   22.3650   -0.4980 N.3   316  SER316     -0.1217
    168  CA        33.7240   23.5990   -0.6370 C.3   316  SER316      0.1889
    169  C         34.5320   24.6440   -1.4050 C.2   316  SER316      0.2288
    170  O         35.7550   24.6810   -1.3100 O.2   316  SER316     -0.2866
    171  CB        33.4150   24.1510    0.7610 C.3   316  SER316      0.2089
    172  OG        32.7670   25.4150    0.7080 O.3   316  SER316     -0.2183
    173  N         33.1650   27.8360   -1.0830 N.3   318  THR318     -0.1218
    174  CA        32.5400   28.9900   -0.4490 C.3   318  THR318      0.1862
    175  C         32.8680   29.0410    1.0360 C.2   318  THR318      0.2287
    176  O         32.1020   29.5980    1.8260 O.2   318  THR318     -0.2866
    177  CB        31.0070   28.9740   -0.6220 C.3   318  THR318      0.1770
    178  OG1       30.4500   27.8100    0.0080 O.3   318  THR318     -0.2211
    179  CG2       30.6330   28.9930   -2.1030 C.3   318  THR318      0.0375
    180  N         31.7630   25.1620    5.9880 N.3   321  VAL321     -0.1245
    181  CA        30.3750   25.1120    6.4140 C.3   321  VAL321      0.1561
    182  C         30.2290   24.0460    7.4930 C.2   321  VAL321      0.2260
    183  O         30.4310   22.8570    7.2420 O.2   321  VAL321     -0.2867
    184  CB        29.4210   24.7940    5.2550 C.3   321  VAL321      0.0252
    185  CG1       27.9860   24.8360    5.7530 C.3   321  VAL321      0.0019
    186  CG2       29.6390   25.7760    4.0940 C.3   321  VAL321      0.0019
@<TRIPOS>BOND
     1    76    75    1
     2    75    74    1
     3    74    73    1
     4    73    72    1
     5    68    69    1
     6    72    69    1
     7    51    50    2
     8    69    70    1
     9    58    57    2
    10    39    38    2
    11    65    66    1
    12    65    64    1
    13    66    67    2
    14    50    49    1
    15    50    55   am
    16    57    64   am
    17    57    56    1
    18    54    52    1
    19    56    55    1
    20    56    59    1
    21    49    52    1
    22    49    48    1
    23    70    77   am
    24    70    71    2
    25    38    48   am
    26    38    37    1
    27    52    53    1
    28    77    78    1
    29    36    37    1
    30    59    60    1
    31    37    40    1
    32    81    78    1
    33    81    82    1
    34    78    79    1
    35    60    61    1
    36    62    61    2
    37    91    90    2
    38    40    41    1
    39    94    96   ar
    40    94    93   ar
    41    88    79   am
    42    88    89    1
    43    96    98   ar
    44    43    41   ar
    45    43    45   ar
    46    79    80    2
    47    61    63   am
    48    41    42   ar
    49    92    93    1
    50    92    89    1
    51    82    83   ar
    52    82    84   ar
    53    90    89    1
    54    90    99   am
    55   179   177    1
    56    93    95   ar
    57    45    46   ar
    58    83    85   ar
    59    84    86   ar
    60    98    97   ar
    61   169   170    2
    62   169   168    1
    63    42    44   ar
    64   166   164    1
    65    99   100    1
    66   173   174    1
    67   100   101    1
    68   100   103    1
    69    46    44   ar
    70    46    47    1
    71   101   102    2
    72    95    97   ar
    73   168   167    1
    74   168   171    1
    75   177   174    1
    76   177   178    1
    77    85    87   ar
    78   174   175    1
    79    86    87   ar
    80   104   103    1
    81   104   106    1
    82   164   165    1
    83   164   163    2
    84   103   105    1
    85   172   171    1
    86   163   162    1
    87   175   176    2
    88     9     7   am
    89   120   119   ar
    90   120   118   ar
    91   119   117   ar
    92   162   161    1
    93   118   116   ar
    94   110   109    2
    95     7     6    1
    96     7     8    2
    97   127   125    1
    98   160   161    1
    99   160   157    1
   100   117   114   ar
   101   154   153    1
   102     6     5    1
   103   128   126    1
   104   116   114   ar
   105   116   115   ar
   106   109   108    1
   107   114   112   ar
   108   125   126    1
   109   125   122    1
   110   157   158    1
   111   157   156    1
   112   186   184    1
   113    34    35    1
   114    34    31    1
   115   158   159    2
   116   153   155    1
   117   153   150    1
   118     5     2    1
   119   121   122    1
   120   115   113   ar
   121   148   147    2
   122    29    28    2
   123     2     3    1
   124     2     1    1
   125   107   108    1
   126     4     3    2
   127    17    15    1
   128    25    23   ar
   129   112   113   ar
   130   112   111    1
   131   108   111    1
   132   122   123    1
   133    31    32    1
   134    31    30    1
   135   150   151    1
   136   150   149    1
   137   144   142   ar
   138   184   185    1
   139   184   181    1
   140   124   123    2
   141   147   149   am
   142   147   146    1
   143    28    30   am
   144    28    27    1
   145   136   134    1
   146    32    33    2
   147   180   181    1
   148   151   152    2
   149    23    24   ar
   150    23    22    1
   151    14    15    1
   152    14    11    1
   153    15    16    1
   154   142   143   ar
   155   142   141    1
   156   181   182    1
   157   146   145    1
   158    27    26    1
   159   134   133    1
   160    22    19    1
   161   135   133    1
   162   183   182    2
   163   141   138    1
   164    10    11    1
   165    11    12    1
   166   133   130    1
   167    13    12    2
   168    19    20    1
   169    19    18    1
   170   129   130    1
   171   140   139    2
   172    21    20    2
   173   138   139    1
   174   138   137    1
   175   130   131    1
   176   132   131    2
