@<TRIPOS>MOLECULE
tmp/4ivwA01.pdb
 194 182 0 0 0
SMALL
GASTEIGER

@<TRIPOS>ATOM
      1  N         25.8680   -8.4900    3.6310 N.3    41  MET41      -0.1245
      2  CA        26.0790   -7.1150    4.0750 C.3    41  MET41       0.1570
      3  C         26.8780   -6.3290    3.0460 C.2    41  MET41       0.2261
      4  O         26.7100   -5.1180    2.9150 O.2    41  MET41      -0.2867
      5  CB        26.7770   -7.0820    5.4420 C.3    41  MET41       0.0387
      6  CG        25.9720   -7.7580    6.5510 C.3    41  MET41       0.0595
      7  SD        24.2180   -7.3290    6.5270 S.3    41  MET41      -0.1393
      8  CE        24.2990   -5.5460    6.6970 C.3    41  MET41       0.0692
      9  N         24.1660   -5.3670    0.6010 N.3    44  LEU44      -0.1231
     10  CA        23.2490   -4.4020    1.2230 C.3    44  LEU44       0.1693
     11  C         23.8800   -3.0220    1.3650 C.2    44  LEU44       0.2592
     12  O         23.2210   -2.0050    1.1390 O.2    44  LEU44      -0.2718
     13  CB        22.7570   -4.8900    2.5840 C.3    44  LEU44       0.0284
     14  CG        21.4150   -5.6220    2.5710 C.3    44  LEU44       0.0019
     15  CD1       21.4460   -6.7480    1.5530 C.3    44  LEU44       0.0001
     16  CD2       21.0490   -6.1370    3.9690 C.3    44  LEU44       0.0001
     17  N         25.1570   -2.9960    1.7370 N.am   45  THR45      -0.1953
     18  CA        25.8840   -1.7410    1.8930 C.3    45  THR45       0.1897
     19  C         26.0000   -0.9870    0.5720 C.2    45  THR45       0.2313
     20  O         25.7270    0.2070    0.5050 O.2    45  THR45      -0.2863
     21  CB        27.2940   -1.9840    2.4450 C.3    45  THR45       0.1794
     22  OG1       27.1950   -2.6180    3.7280 O.3    45  THR45      -0.2208
     23  CG2       28.0630   -0.6690    2.5770 C.3    45  THR45       0.0378
     24  N         24.2290   -1.2410   -2.1260 N.3    47  LEU47      -0.1231
     25  CA        22.9050   -0.8000   -2.5450 C.3    47  LEU47       0.1693
     26  C         22.4700    0.4270   -1.7480 C.2    47  LEU47       0.2591
     27  O         22.0130    1.4170   -2.3210 O.2    47  LEU47      -0.2718
     28  CB        21.8970   -1.9330   -2.3670 C.3    47  LEU47       0.0284
     29  CG        20.4760   -1.7210   -2.8820 C.3    47  LEU47       0.0019
     30  CD1       20.4680   -1.3460   -4.3720 C.3    47  LEU47       0.0001
     31  CD2       19.6180   -2.9690   -2.6120 C.3    47  LEU47       0.0001
     32  N         22.6270    0.3560   -0.4270 N.am   48  ALA48      -0.1980
     33  CA        22.2280    1.4490    0.4420 C.3    48  ALA48       0.1597
     34  C         23.0280    2.6950    0.0880 C.2    48  ALA48       0.2287
     35  O         22.4990    3.8080    0.0590 O.2    48  ALA48      -0.2864
     36  CB        22.4430    1.0720    1.9000 C.3    48  ALA48       0.0319
     37  N         21.5390    4.1230   -3.1050 N.3    51  GLU51      -0.1245
     38  CA        20.1870    4.6020   -2.8370 C.3    51  GLU51       0.1567
     39  C         20.2000    5.9320   -2.0930 C.2    51  GLU51       0.2260
     40  O         19.3670    6.7980   -2.3520 O.2    51  GLU51      -0.2867
     41  CB        19.4030    3.5620   -2.0480 C.3    51  GLU51       0.0388
     42  CG        18.9720    2.3960   -2.8800 C.3    51  GLU51       0.1160
     43  CD        18.1190    1.4550   -2.0940 C.2    51  GLU51       0.3649
     44  OE1       18.6880    0.6470   -1.3300 O.co2  51  GLU51      -0.2457
     45  OE2       16.8830    1.5440   -2.2130 O.co2  51  GLU51      -0.2457
     46  N         16.8360    8.3010    7.4110 N.3    81  TRP81      -0.1227
     47  CA        17.3170    7.5690    6.2340 C.3    81  TRP81       0.1737
     48  C         17.0240    6.0660    6.2650 C.2    81  TRP81       0.2595
     49  O         16.6650    5.4890    5.2410 O.2    81  TRP81      -0.2718
     50  CB        18.8090    7.8210    5.9730 C.3    81  TRP81       0.0564
     51  CG        19.6950    7.2590    7.0140 C.ar   81  TRP81       0.0003
     52  CD1       20.0030    7.8280    8.2170 C.ar   81  TRP81       0.0946
     53  CD2       20.4040    6.0120    6.9650 C.ar   81  TRP81       0.0152
     54  NE1       20.8550    7.0070    8.9170 N.ar   81  TRP81      -0.2442
     55  CE2       21.1130    5.8870    8.1720 C.ar   81  TRP81       0.0810
     56  CE3       20.4930    4.9810    6.0190 C.ar   81  TRP81       0.0012
     57  CZ2       21.9090    4.7780    8.4620 C.ar   81  TRP81       0.0191
     58  CZ3       21.2920    3.8810    6.3060 C.ar   81  TRP81       0.0001
     59  CH2       21.9850    3.7900    7.5140 C.ar   81  TRP81       0.0015
     60  N         17.1950    5.4260    7.4160 N.am   82  LEU82      -0.1980
     61  CA        16.9820    3.9830    7.4790 C.3    82  LEU82       0.1596
     62  C         15.4900    3.6370    7.3710 C.2    82  LEU82       0.2287
     63  O         15.1160    2.6910    6.6790 O.2    82  LEU82      -0.2864
     64  CB        17.6070    3.3740    8.7420 C.3    82  LEU82       0.0297
     65  CG        17.6870    1.8410    8.7350 C.3    82  LEU82       0.0022
     66  CD1       18.3050    1.3450    7.4180 C.3    82  LEU82       0.0001
     67  CD2       18.4440    1.2810    9.9380 C.3    82  LEU82       0.0001
     68  N         14.8160    3.8700    3.6800 N.3    85  LEU85      -0.1231
     69  CA        15.3080    2.7140    2.9290 C.3    85  LEU85       0.1693
     70  C         14.3910    1.5240    3.1830 C.2    85  LEU85       0.2591
     71  O         13.9990    0.8130    2.2600 O.2    85  LEU85      -0.2718
     72  CB        16.7350    2.3460    3.3360 C.3    85  LEU85       0.0284
     73  CG        17.8600    3.2620    2.8890 C.3    85  LEU85       0.0019
     74  CD1       19.1860    2.7080    3.4070 C.3    85  LEU85       0.0001
     75  CD2       17.8590    3.3750    1.3580 C.3    85  LEU85       0.0001
     76  N         14.0500    1.3210    4.4480 N.am   86  MET86      -0.1979
     77  CA        13.2370    0.1780    4.8400 C.3    86  MET86       0.1605
     78  C         11.8150    0.1920    4.2790 C.2    86  MET86       0.2287
     79  O         11.3480   -0.8310    3.7830 O.2    86  MET86      -0.2864
     80  CB        13.2220    0.0130    6.3670 C.3    86  MET86       0.0413
     81  CG        14.5160   -0.5720    6.9200 C.3    86  MET86       0.0598
     82  SD        14.4720   -0.7310    8.7140 S.3    86  MET86      -0.1393
     83  CE        15.8990   -1.7660    9.0230 C.3    86  MET86       0.0692
     84  N         12.0060   -0.7640    0.7700 N.3    89  LEU89      -0.1245
     85  CA        12.2060   -2.2070    0.6570 C.3    89  LEU89       0.1561
     86  C         10.8970   -2.9870    0.8340 C.2    89  LEU89       0.2260
     87  O         10.5860   -3.9070    0.0620 O.2    89  LEU89      -0.2867
     88  CB        13.2280   -2.6660    1.6990 C.3    89  LEU89       0.0270
     89  CG        13.3120   -4.1640    1.9520 C.3    89  LEU89       0.0019
     90  CD1       13.7440   -4.8960    0.6840 C.3    89  LEU89       0.0001
     91  CD2       14.3000   -4.4100    3.0600 C.3    89  LEU89       0.0001
     92  N          8.6480   -2.4550   -2.1920 N.3    92  ARG92      -0.1245
     93  CA         9.1140   -3.2380   -3.3420 C.3    92  ARG92       0.1563
     94  C          8.8120   -4.7220   -3.1920 C.2    92  ARG92       0.2260
     95  O          8.6780   -5.4350   -4.1870 O.2    92  ARG92      -0.2867
     96  CB        10.6220   -3.0790   -3.5350 C.3    92  ARG92       0.0307
     97  CG        11.0760   -1.6720   -3.8260 C.3    92  ARG92       0.0489
     98  CD        12.4510   -1.6780   -4.5010 C.3    92  ARG92       0.2205
     99  NE        13.5350   -2.1050   -3.6080 N.pl3  92  ARG92      -0.0865
    100  CZ        14.0610   -1.3430   -2.6520 C.cat  92  ARG92       0.5346
    101  NH1       13.5780   -0.1260   -2.4400 N.pl3  92  ARG92       0.1354
    102  NH2       15.0600   -1.7950   -1.8960 N.pl3  92  ARG92       0.1354
    103  N         15.3370   -6.6410   -2.2580 N.3   102  PHE102     -0.1241
    104  CA        16.3190   -5.5760   -2.1000 C.3   102  PHE102      0.1605
    105  C         16.5670   -4.9130   -3.4500 C.2   102  PHE102      0.2264
    106  O         16.7500   -3.6960   -3.5400 O.2   102  PHE102     -0.2867
    107  CB        17.6130   -6.1140   -1.4790 C.3   102  PHE102      0.0534
    108  CG        17.5330   -6.2720    0.0110 C.ar  102  PHE102     -0.0203
    109  CD1       17.9780   -5.2660    0.8490 C.ar  102  PHE102     -0.0042
    110  CD2       16.9700   -7.4120    0.5750 C.ar  102  PHE102     -0.0042
    111  CE1       17.8920   -5.3990    2.2250 C.ar  102  PHE102     -0.0003
    112  CE2       16.8840   -7.5550    1.9520 C.ar  102  PHE102     -0.0003
    113  CZ        17.3430   -6.5480    2.7810 C.ar  102  PHE102     -0.0000
    114  N         19.8880  -10.8070   12.4840 N.3   119  MET119     -0.1245
    115  CA        19.2630  -10.2850   11.2740 C.3   119  MET119      0.1570
    116  C         17.8620  -10.8500   11.0170 C.2   119  MET119      0.2261
    117  O         16.9520  -10.1220   10.6160 O.2   119  MET119     -0.2867
    118  CB        20.1500  -10.5490   10.0600 C.3   119  MET119      0.0387
    119  CG        19.5490  -10.0430    8.7650 C.3   119  MET119      0.0595
    120  SD        19.3550   -8.2550    8.7920 S.3   119  MET119     -0.1393
    121  CE        21.0560   -7.7410    9.0380 C.3   119  MET119      0.0692
    122  N         14.9020   -8.9640   12.2350 N.3   122  ILE122     -0.1231
    123  CA        14.5930   -7.7530   11.4910 C.3   122  ILE122      0.1692
    124  C         13.9820   -8.1190   10.1380 C.2   122  ILE122      0.2592
    125  O         13.0690   -7.4460    9.6610 O.2   122  ILE122     -0.2718
    126  CB        15.8430   -6.8600   11.3280 C.3   122  ILE122      0.0266
    127  CG1       16.4400   -6.5560   12.7120 C.3   122  ILE122      0.0019
    128  CG2       15.5020   -5.5840   10.5640 C.3   122  ILE122      0.0020
    129  CD1       17.4760   -5.4540   12.7180 C.3   122  ILE122      0.0001
    130  N         14.4790   -9.1930    9.5300 N.am  123  PHE123     -0.1976
    131  CA        13.8790   -9.6970    8.3030 C.3   123  PHE123      0.1639
    132  C         12.4110  -10.0270    8.5540 C.2   123  PHE123      0.2290
    133  O         11.5470   -9.6110    7.7970 O.2   123  PHE123     -0.2864
    134  CB        14.6140  -10.9370    7.7750 C.3   123  PHE123      0.0560
    135  CG        15.7430  -10.6290    6.8270 C.ar  123  PHE123     -0.0200
    136  CD1       16.1570  -11.5710    5.8970 C.ar  123  PHE123     -0.0042
    137  CD2       16.4000   -9.4090    6.8740 C.ar  123  PHE123     -0.0042
    138  CE1       17.1990  -11.3040    5.0200 C.ar  123  PHE123     -0.0003
    139  CE2       17.4450   -9.1290    6.0040 C.ar  123  PHE123     -0.0003
    140  CZ        17.8470  -10.0820    5.0720 C.ar  123  PHE123     -0.0000
    141  N         10.2990   -6.9510    8.7290 N.3   126  LEU126     -0.1245
    142  CA        10.1250   -6.3520    7.4160 C.3   126  LEU126      0.1561
    143  C          9.0960   -7.1200    6.5930 C.2   126  LEU126      0.2260
    144  O          8.2460   -6.5230    5.9330 O.2   126  LEU126     -0.2867
    145  CB        11.4700   -6.2970    6.6740 C.3   126  LEU126      0.0270
    146  CG        12.4880   -5.3020    7.2490 C.3   126  LEU126      0.0019
    147  CD1       13.9280   -5.6000    6.7860 C.3   126  LEU126      0.0001
    148  CD2       12.0790   -3.8640    6.9070 C.3   126  LEU126      0.0001
    149  N         17.5830   -1.8520   13.5480 N.3   207  GLY207     -0.1225
    150  CA        18.5440   -1.9760   12.4740 C.3   207  GLY207      0.1811
    151  C         19.7720   -1.1310   12.7560 C.2   207  GLY207      0.2280
    152  O         20.8980   -1.5670   12.5460 O.2   207  GLY207     -0.2866
    153  N         22.0530   -2.7510   14.9540 N.3   210  HIS210     -0.1226
    154  CA        22.7320   -3.8380   14.2740 C.3   210  HIS210      0.1752
    155  C         23.8820   -3.3100   13.4140 C.2   210  HIS210      0.2595
    156  O         24.9640   -3.9020   13.3840 O.2   210  HIS210     -0.2718
    157  CB        21.7440   -4.6390   13.4280 C.3   210  HIS210      0.0759
    158  CG        22.3230   -5.8930   12.8610 C.ar  210  HIS210      0.0818
    159  ND1       22.6790   -6.0160   11.5360 N.ar  210  HIS210     -0.2268
    160  CD2       22.6280   -7.0760   13.4450 C.ar  210  HIS210      0.1154
    161  CE1       23.1660   -7.2240   11.3240 C.ar  210  HIS210      0.1986
    162  NE2       23.1470   -7.8870   12.4670 N.ar  210  HIS210     -0.2212
    163  N         23.6540   -2.1840   12.7430 N.am  211  LEU211     -0.1980
    164  CA        24.6690   -1.6010   11.8680 C.3   211  LEU211      0.1596
    165  C         25.8500   -1.0540   12.6730 C.2   211  LEU211      0.2287
    166  O         27.0040   -1.1380   12.2450 O.2   211  LEU211     -0.2864
    167  CB        24.0640   -0.5060   10.9830 C.3   211  LEU211      0.0297
    168  CG        23.0720   -0.9600    9.8960 C.3   211  LEU211      0.0022
    169  CD1       22.3680    0.2430    9.2590 C.3   211  LEU211      0.0001
    170  CD2       23.7650   -1.7940    8.8290 C.3   211  LEU211      0.0001
    171  N         27.8930   -4.0180   13.4740 N.3   214  MET214     -0.1245
    172  CA        28.6490   -4.3950   12.2840 C.3   214  MET214      0.1570
    173  C         29.7810   -3.4080   12.0260 C.2   214  MET214      0.2261
    174  O         30.8740   -3.7850   11.6090 O.2   214  MET214     -0.2867
    175  CB        27.7180   -4.4290   11.0730 C.3   214  MET214      0.0387
    176  CG        28.3630   -4.8870    9.7840 C.3   214  MET214      0.0595
    177  SD        27.3050   -4.5350    8.3660 S.3   214  MET214     -0.1393
    178  CE        27.8180   -2.8700    7.9520 C.3   214  MET214      0.0692
    179  N         32.2930    0.2260    5.1200 N.3   222  LEU222     -0.1245
    180  CA        31.2580    1.2420    5.1790 C.3   222  LEU222      0.1561
    181  C         31.7890    2.5060    4.5250 C.2   222  LEU222      0.2260
    182  O         32.9090    2.9310    4.7960 O.2   222  LEU222     -0.2867
    183  CB        30.8710    1.5170    6.6310 C.3   222  LEU222      0.0270
    184  CG        29.4550    1.1390    7.0660 C.3   222  LEU222      0.0019
    185  CD1       28.9550   -0.0860    6.3170 C.3   222  LEU222      0.0001
    186  CD2       29.4100    0.9190    8.5680 C.3   222  LEU222      0.0001
    187  N         27.8620    6.5770    4.6210 N.3   226  LEU226     -0.1245
    188  CA        27.0800    5.7080    5.4890 C.3   226  LEU226      0.1561
    189  C         27.5300    5.8620    6.9430 C.2   226  LEU226      0.2260
    190  O         26.7020    5.8450    7.8600 O.2   226  LEU226     -0.2867
    191  CB        27.1590    4.2450    5.0300 C.3   226  LEU226      0.0270
    192  CG        26.2320    3.8220    3.8840 C.3   226  LEU226      0.0019
    193  CD1       26.6480    2.4680    3.2810 C.3   226  LEU226      0.0001
    194  CD2       24.7850    3.7740    4.3670 C.3   226  LEU226      0.0001
@<TRIPOS>BOND
     1    98    97    1
     2    98    99    1
     3    30    29    1
     4    95    94    2
     5    97    96    1
     6    99   100    2
     7   106   105    2
     8    96    93    1
     9   105   104    1
    10    93    94    1
    11    93    92    1
    12    37    38    1
    13    29    31    1
    14    29    28    1
    15    42    43    1
    16    42    41    1
    17    38    39    1
    18    38    41    1
    19   100   101    1
    20   100   102    1
    21    25    28    1
    22    25    24    1
    23    25    26    1
    24    40    39    2
    25    27    26    2
    26   103   104    1
    27    45    43   ar
    28   104   107    1
    29    43    44   ar
    30    26    32   am
    31   107   108    1
    32    32    33    1
    33   108   110   ar
    34   108   109   ar
    35    35    34    2
    36    87    86    2
    37    34    33    1
    38    33    36    1
    39    20    19    2
    40    19    18    1
    41   110   112   ar
    42     9    10    1
    43    85    84    1
    44    85    86    1
    45    85    88    1
    46    90    89    1
    47   109   111   ar
    48    12    11    2
    49    10    11    1
    50    10    13    1
    51    75    73    1
    52    11    17   am
    53    15    14    1
    54    88    89    1
    55    17    18    1
    56    18    21    1
    57    89    91    1
    58   112   113   ar
    59   111   113   ar
    60    71    70    2
    61    21    23    1
    62    21    22    1
    63    14    13    1
    64    14    16    1
    65    73    72    1
    66    73    74    1
    67     4     3    2
    68    69    70    1
    69    69    72    1
    70    69    68    1
    71     3     2    1
    72    70    76   am
    73   193   192    1
    74     1     2    1
    75    79    78    2
    76   192   194    1
    77   192   191    1
    78     2     5    1
    79    78    77    1
    80    76    77    1
    81   181   182    2
    82   181   180    1
    83   187   188    1
    84    77    80    1
    85   138   140   ar
    86   138   136   ar
    87   191   188    1
    88   140   139   ar
    89   179   180    1
    90   180   183    1
    91    49    48    2
    92     5     6    1
    93   188   189    1
    94   136   135   ar
    95   144   143    2
    96    50    47    1
    97    50    51    1
    98   139   137   ar
    99    56    58   ar
   100    56    53   ar
   101    47    48    1
   102    47    46    1
   103    48    60   am
   104    58    59   ar
   105   185   184    1
   106    80    81    1
   107     7     6    1
   108     7     8    1
   109   143   142    1
   110   183   184    1
   111   145   146    1
   112   145   142    1
   113    63    62    2
   114   147   146    1
   115   135   137   ar
   116   135   134    1
   117   148   146    1
   118    81    82    1
   119   189   190    2
   120    53    51   ar
   121    53    55   ar
   122    51    52   ar
   123   184   186    1
   124    62    61    1
   125   142   141    1
   126    60    61    1
   127    66    65    1
   128    61    64    1
   129    59    57   ar
   130   134   131    1
   131   133   132    2
   132   178   177    1
   133    55    57   ar
   134    55    54   ar
   135    52    54   ar
   136   131   132    1
   137   131   130    1
   138   177   176    1
   139    82    83    1
   140    65    64    1
   141    65    67    1
   142   119   120    1
   143   119   118    1
   144   120   121    1
   145   170   168    1
   146   169   168    1
   147   130   124   am
   148   125   124    2
   149   176   175    1
   150   168   167    1
   151   118   115    1
   152   124   123    1
   153   128   126    1
   154   117   116    2
   155   167   164    1
   156   116   115    1
   157   175   172    1
   158   115   114    1
   159   161   159   ar
   160   161   162   ar
   161   126   123    1
   162   126   127    1
   163   123   122    1
   164   159   158   ar
   165   174   173    2
   166   164   165    1
   167   164   163    1
   168   173   172    1
   169   166   165    2
   170   172   171    1
   171   162   160   ar
   172   150   151    1
   173   150   149    1
   174   152   151    2
   175   127   129    1
   176   163   155   am
   177   158   157    1
   178   158   160   ar
   179   156   155    2
   180   155   154    1
   181   157   154    1
   182   154   153    1
