@<TRIPOS>MOLECULE
tmp/4iw0A00.pdb
 172 164 0 0 0
SMALL
GASTEIGER

@<TRIPOS>ATOM
      1  N         88.7590   66.6200   -5.4190 N.3    16  LEU16      -0.1231
      2  CA        87.4060   67.1210   -5.2220 C.3    16  LEU16       0.1693
      3  C         86.4470   65.9770   -4.9110 C.2    16  LEU16       0.2593
      4  O         85.6540   66.0550   -3.9740 O.2    16  LEU16      -0.2718
      5  CB        86.9380   67.8940   -6.4560 C.3    16  LEU16       0.0284
      6  CG        87.8180   69.0860   -6.8460 C.3    16  LEU16       0.0019
      7  CD1       87.2800   69.7830   -8.0850 C.3    16  LEU16       0.0001
      8  CD2       87.9420   70.0640   -5.6870 C.3    16  LEU16       0.0001
      9  N         86.5310   64.9120   -5.7000 N.am   17  GLY17      -0.1942
     10  CA        85.6940   63.7460   -5.4930 C.3    17  GLY17       0.2014
     11  C         86.3900   62.4730   -5.9260 C.2    17  GLY17       0.2639
     12  O         87.3510   62.5110   -6.6960 O.2    17  GLY17      -0.2714
     13  N         85.9070   61.3410   -5.4280 N.am   18  GLN18      -0.1963
     14  CA        86.4860   60.0530   -5.7780 C.3    18  GLN18       0.1733
     15  C         85.4010   59.0670   -6.1870 C.2    18  GLN18       0.2616
     16  O         84.6110   58.6140   -5.3580 O.2    18  GLN18      -0.2715
     17  CB        87.2970   59.4920   -4.6110 C.3    18  GLN18       0.0408
     18  CG        88.0760   58.2330   -4.9480 C.3    18  GLN18       0.0908
     19  CD        88.9120   57.7460   -3.7840 C.2    18  GLN18       0.2608
     20  OE1       88.7180   58.1720   -2.6460 O.2    18  GLN18      -0.2717
     21  NE2       89.8530   56.8510   -4.0630 N.am   18  GLN18      -0.0878
     22  N         85.3700   58.7410   -7.4740 N.am   19  GLY19      -0.1955
     23  CA        84.3770   57.8290   -8.0080 C.3    19  GLY19       0.1869
     24  C         84.9600   56.4800   -8.3790 C.2    19  GLY19       0.2309
     25  O         86.1270   56.1970   -8.1070 O.2    19  GLY19      -0.2863
     26  N         85.0580   54.8650  -11.7100 N.3    21  THR21      -0.1203
     27  CA        85.8610   54.9000  -12.9270 C.3    21  THR21       0.1994
     28  C         86.9890   55.9210  -12.8380 C.2    21  THR21       0.2618
     29  O         88.1410   55.6160  -13.1450 O.2    21  THR21      -0.2717
     30  CB        84.9990   55.2230  -14.1630 C.3    21  THR21       0.1784
     31  OG1       84.5060   56.5650  -14.0690 O.3    21  THR21      -0.2211
     32  CG2       83.8250   54.2600  -14.2630 C.3    21  THR21       0.0376
     33  N         86.6540   57.1340  -12.4130 N.am   22  ALA22      -0.1965
     34  CA        87.6210   58.2240  -12.4030 C.3    22  ALA22       0.1728
     35  C         87.5750   59.0440  -11.1180 C.2    22  ALA22       0.2616
     36  O         86.6930   58.8600  -10.2790 O.2    22  ALA22      -0.2715
     37  CB        87.4020   59.1260  -13.6100 C.3    22  ALA22       0.0334
     38  N         88.5420   59.9440  -10.9730 N.am   23  ASN23      -0.1958
     39  CA        88.5700   60.8860   -9.8630 C.3    23  ASN23       0.1819
     40  C         88.5730   62.3100  -10.3990 C.2    23  ASN23       0.2621
     41  O         88.8710   62.5350  -11.5700 O.2    23  ASN23      -0.2715
     42  CB        89.8090   60.6640   -8.9970 C.3    23  ASN23       0.1195
     43  CG        89.9700   59.2210   -8.5670 C.2    23  ASN23       0.2630
     44  OD1       88.9870   58.5150   -8.3440 O.2    23  ASN23      -0.2716
     45  ND2       91.2150   58.7750   -8.4500 N.am   23  ASN23      -0.0877
     46  N         88.2430   63.2710   -9.5430 N.am   24  VAL24      -0.1977
     47  CA        88.2600   64.6740   -9.9420 C.3    24  VAL24       0.1596
     48  C         89.1880   65.4840   -9.0440 C.2    24  VAL24       0.2287
     49  O         89.0730   65.4480   -7.8180 O.2    24  VAL24      -0.2864
     50  CB        86.8480   65.2900   -9.9360 C.3    24  VAL24       0.0276
     51  CG1       86.9210   66.7880  -10.1790 C.3    24  VAL24       0.0022
     52  CG2       85.9790   64.6230  -10.9900 C.3    24  VAL24       0.0022
     53  N         88.3590   71.9890  -12.7290 N.3    37  ALA37      -0.1245
     54  CA        88.2500   70.6370  -12.1960 C.3    37  ALA37       0.1562
     55  C         88.7020   69.6100  -13.2270 C.2    37  ALA37       0.2260
     56  O         88.0770   69.4590  -14.2750 O.2    37  ALA37      -0.2867
     57  CB        86.8230   70.3570  -11.7640 C.3    37  ALA37       0.0290
     58  N         89.2150   65.8010  -14.4160 N.3    39  LYS39      -0.1245
     59  CA        88.7390   64.4390  -14.1970 C.3    39  LYS39       0.1561
     60  C         89.6340   63.4290  -14.9140 C.2    39  LYS39       0.2260
     61  O         89.6780   63.3910  -16.1450 O.2    39  LYS39      -0.2867
     62  CB        87.2930   64.3000  -14.6780 C.3    39  LYS39       0.0271
     63  CG        86.6470   62.9580  -14.3660 C.3    39  LYS39       0.0035
     64  CD        85.1900   62.9450  -14.7990 C.3    39  LYS39       0.0206
     65  CE        84.5200   61.6200  -14.4790 C.3    39  LYS39       0.1093
     66  NZ        83.0880   61.6330  -14.8820 N.3    39  LYS39      -0.1314
     67  N         77.3570   71.9520  -15.3070 N.3    69  VAL69      -0.1245
     68  CA        78.7730   72.2960  -15.2270 C.3    69  VAL69       0.1561
     69  C         79.4210   72.2840  -16.6080 C.2    69  VAL69       0.2260
     70  O         79.4770   71.2490  -17.2710 O.2    69  VAL69      -0.2867
     71  CB        79.5340   71.3340  -14.3050 C.3    69  VAL69       0.0252
     72  CG1       81.0100   71.6920  -14.2770 C.3    69  VAL69       0.0019
     73  CG2       78.9460   71.3680  -12.9010 C.3    69  VAL69       0.0019
     74  N         86.7920   70.6850  -16.2680 N.3    87  MET87      -0.1230
     75  CA        85.4620   71.0800  -15.8140 C.3    87  MET87       0.1702
     76  C         85.4680   72.4130  -15.0680 C.2    87  MET87       0.2592
     77  O         86.5190   72.8970  -14.6440 O.2    87  MET87      -0.2718
     78  CB        84.8630   69.9890  -14.9210 C.3    87  MET87       0.0401
     79  CG        84.7750   68.6160  -15.5760 C.3    87  MET87       0.0596
     80  SD        83.4000   68.4530  -16.7360 S.3    87  MET87      -0.1393
     81  CE        82.0050   68.3990  -15.6140 C.3    87  MET87       0.0692
     82  N         84.2840   73.0000  -14.9160 N.am   88  GLU88      -0.1966
     83  CA        84.1210   74.2390  -14.1630 C.3    88  GLU88       0.1733
     84  C         84.2420   73.9670  -12.6690 C.2    88  GLU88       0.2616
     85  O         83.5750   73.0790  -12.1400 O.2    88  GLU88      -0.2715
     86  CB        82.7580   74.8640  -14.4700 C.3    88  GLU88       0.0429
     87  CG        82.3840   76.0370  -13.5770 C.3    88  GLU88       0.1163
     88  CD        80.9330   76.4540  -13.7370 C.2    88  GLU88       0.3649
     89  OE1       80.1780   75.7350  -14.4240 O.co2  88  GLU88      -0.2457
     90  OE2       80.5470   77.5010  -13.1760 O.co2  88  GLU88      -0.2457
     91  N         85.0920   74.7310  -11.9900 N.am   89  PHE89      -0.1960
     92  CA        85.3090   74.5350  -10.5600 C.3    89  PHE89       0.1771
     93  C         84.2600   75.2510   -9.7100 C.2    89  PHE89       0.2620
     94  O         83.9250   76.4080   -9.9630 O.2    89  PHE89      -0.2715
     95  CB        86.7160   74.9830  -10.1640 C.3    89  PHE89       0.0574
     96  CG        87.0180   74.8140   -8.7030 C.ar   89  PHE89      -0.0200
     97  CD1       87.0340   73.5540   -8.1250 C.ar   89  PHE89      -0.0042
     98  CD2       87.2970   75.9130   -7.9080 C.ar   89  PHE89      -0.0042
     99  CE1       87.3140   73.3960   -6.7810 C.ar   89  PHE89      -0.0003
    100  CE2       87.5800   75.7600   -6.5640 C.ar   89  PHE89      -0.0003
    101  CZ        87.5880   74.5010   -6.0000 C.ar   89  PHE89      -0.0000
    102  N         83.7480   74.5530   -8.7010 N.am   90  CYS90      -0.1954
    103  CA        82.7220   75.1020   -7.8210 C.3    90  CYS90       0.1828
    104  C         83.1980   75.0830   -6.3730 C.2    90  CYS90       0.2467
    105  O         82.9250   74.1330   -5.6410 O.2    90  CYS90      -0.2730
    106  CB        81.4280   74.2980   -7.9530 C.3    90  CYS90       0.0996
    107  SG        80.8970   74.0130   -9.6570 S.3    90  CYS90      -0.0797
    108  N         83.9030   76.1440   -5.9520 N.am   91  PRO91      -0.2715
    109  CA        84.5400   76.2230   -4.6310 C.3    91  PRO91       0.1536
    110  C         83.5490   76.1650   -3.4720 C.2    91  PRO91       0.2599
    111  O         83.9390   75.8380   -2.3520 O.2    91  PRO91      -0.2715
    112  CB        85.2370   77.5890   -4.6600 C.3    91  PRO91       0.0310
    113  CG        84.4950   78.3750   -5.6850 C.3    91  PRO91       0.0237
    114  CD        84.0790   77.3850   -6.7260 C.3    91  PRO91       0.0939
    115  N         82.2830   76.4680   -3.7410 N.am   92  CYS92      -0.1954
    116  CA        81.2680   76.5160   -2.6940 C.3    92  CYS92       0.1843
    117  C         80.8270   75.1230   -2.2550 C.2    92  CYS92       0.2626
    118  O         80.0150   74.9770   -1.3400 O.2    92  CYS92      -0.2714
    119  CB        80.0650   77.3370   -3.1590 C.3    92  CYS92       0.0997
    120  SG        80.4900   79.0130   -3.6810 S.3    92  CYS92      -0.0797
    121  N         81.3700   74.1040   -2.9120 N.am   93  GLY93      -0.1940
    122  CA        81.0800   72.7280   -2.5620 C.3    93  GLY93       0.2014
    123  C         79.8790   72.1800   -3.3040 C.2    93  GLY93       0.2639
    124  O         79.4150   72.7680   -4.2810 O.2    93  GLY93      -0.2714
    125  N         79.3770   71.0430   -2.8400 N.am   94  SER94      -0.1949
    126  CA        78.2040   70.4310   -3.4430 C.3    94  SER94       0.1924
    127  C         76.9880   70.6680   -2.5620 C.2    94  SER94       0.2314
    128  O         77.0740   71.3590   -1.5460 O.2    94  SER94      -0.2863
    129  CB        78.4290   68.9330   -3.6360 C.3    94  SER94       0.2116
    130  OG        78.6920   68.2980   -2.3970 O.3    94  SER94      -0.2180
    131  N         77.6890   69.2300    0.7160 N.3    97  THR97      -0.1218
    132  CA        78.5050   70.0920    1.5640 C.3    97  THR97       0.1862
    133  C         77.6300   71.1050    2.2990 C.2    97  THR97       0.2287
    134  O         77.8920   71.4510    3.4520 O.2    97  THR97      -0.2866
    135  CB        79.5680   70.8400    0.7350 C.3    97  THR97       0.1770
    136  OG1       80.2990   69.9030   -0.0650 O.3    97  THR97      -0.2211
    137  CG2       80.5330   71.5880    1.6430 C.3    97  THR97       0.0375
    138  N         75.7000   64.9960   -3.8410 N.3   140  GLY140     -0.1210
    139  CA        77.1130   65.0790   -4.1520 C.3   140  GLY140      0.1956
    140  C         77.3400   65.4590   -5.6030 C.2   140  GLY140      0.2611
    141  O         78.3490   66.0760   -5.9410 O.2   140  GLY140     -0.2717
    142  N         76.3930   65.0930   -6.4640 N.am  141  ASN141     -0.1974
    143  CA        76.5070   65.3600   -7.8960 C.3   141  ASN141      0.1688
    144  C         75.8540   66.6690   -8.3270 C.2   141  ASN141      0.2292
    145  O         75.7910   66.9760   -9.5190 O.2   141  ASN141     -0.2864
    146  CB        75.9330   64.1980   -8.7130 C.3   141  ASN141      0.1181
    147  CG        76.8040   62.9600   -8.6580 C.2   141  ASN141      0.2629
    148  OD1       77.9730   63.0280   -8.2810 O.2   141  ASN141     -0.2716
    149  ND2       76.2400   61.8210   -9.0430 N.am  141  ASN141     -0.0877
    150  N         76.3900   70.5500   -7.8380 N.3   143  MET143     -0.1245
    151  CA        77.3230   71.5620   -7.3590 C.3   143  MET143      0.1570
    152  C         76.6280   72.8820   -7.0610 C.2   143  MET143      0.2261
    153  O         75.4910   73.1010   -7.4740 O.2   143  MET143     -0.2867
    154  CB        78.4400   71.7720   -8.3810 C.3   143  MET143      0.0387
    155  CG        79.1220   70.4840   -8.7910 C.3   143  MET143      0.0595
    156  SD        79.5820   69.4980   -7.3540 S.3   143  MET143     -0.1393
    157  CE        80.7050   70.6180   -6.5220 C.3   143  MET143      0.0692
    158  N         76.4540   67.5180  -12.5460 N.3   157  THR157     -0.1203
    159  CA        77.7430   67.0210  -13.0190 C.3   157  THR157      0.1994
    160  C         77.8730   65.5110  -12.8330 C.2   157  THR157      0.2617
    161  O         76.9040   64.8340  -12.4840 O.2   157  THR157     -0.2717
    162  CB        78.9160   67.7110  -12.2990 C.3   157  THR157      0.1784
    163  OG1       80.1550   67.2300  -12.8350 O.3   157  THR157     -0.2211
    164  CG2       78.8700   67.4240  -10.8070 C.3   157  THR157      0.0376
    165  N         79.0790   64.9980  -13.0710 N.am  158  ASP158     -0.1973
    166  CA        79.3700   63.5660  -12.9730 C.3   158  ASP158      0.1709
    167  C         78.4710   62.7350  -13.8870 C.2   158  ASP158      0.2293
    168  O         77.6170   61.9810  -13.4220 O.2   158  ASP158     -0.2864
    169  CB        79.2730   63.0870  -11.5210 C.3   158  ASP158      0.1436
    170  CG        79.7320   61.6510  -11.3430 C.2   158  ASP158      0.3671
    171  OD1       80.4670   61.1400  -12.2150 O.co2 158  ASP158     -0.2456
    172  OD2       79.3600   61.0350  -10.3230 O.co2 158  ASP158     -0.2456
@<TRIPOS>BOND
     1    70    69    2
     2    80    81    1
     3    80    79    1
     4    69    68    1
     5    74    75    1
     6    61    60    2
     7    75    76    1
     8    75    78    1
     9    79    78    1
    10    67    68    1
    11    68    71    1
    12    76    82   am
    13    76    77    2
    14    82    83    1
    15    60    59    1
    16    66    65    1
    17    64    65    1
    18    64    63    1
    19    62    63    1
    20    62    59    1
    21    86    83    1
    22    86    87    1
    23    89    88   ar
    24    58    59    1
    25    71    72    1
    26    71    73    1
    27    56    55    2
    28    32    30    1
    29    83    84    1
    30    30    31    1
    31    30    27    1
    32   167   168    2
    33   167   166    1
    34    88    87    1
    35    88    90   ar
    36    37    34    1
    37    55    54    1
    38    29    28    2
    39   165   166    1
    40   165   160   am
    41   159   160    1
    42   159   158    1
    43   159   162    1
    44   166   169    1
    45    27    28    1
    46    27    26    1
    47    28    33   am
    48   163   162    1
    49   160   161    2
    50    53    54    1
    51    84    85    2
    52    84    91   am
    53    33    34    1
    54    34    35    1
    55   162   164    1
    56   171   170   ar
    57    54    57    1
    58    91    92    1
    59    41    40    2
    60   169   170    1
    61   170   172   ar
    62    35    38   am
    63    35    36    2
    64    52    50    1
    65    38    39    1
    66    92    95    1
    67    92    93    1
    68    40    39    1
    69    40    46   am
    70    51    50    1
    71    95    96    1
    72    94    93    2
    73    47    50    1
    74    47    46    1
    75    47    48    1
    76    39    42    1
    77    93   102   am
    78   107   106    1
    79   145   144    2
    80    48    49    2
    81   149   147   am
    82    42    43    1
    83   155   154    1
    84   155   156    1
    85   146   147    1
    86   146   143    1
    87    96    97   ar
    88    96    98   ar
    89   102   103    1
    90   147   148    2
    91    43    45   am
    92    43    44    2
    93   154   151    1
    94    24    25    2
    95    24    23    1
    96   144   143    1
    97    97    99   ar
    98     7     6    1
    99    23    22    1
   100   106   103    1
   101    98   100   ar
   102   143   142    1
   103   150   151    1
   104   103   104    1
   105    22    15   am
   106   153   152    2
   107   151   152    1
   108   156   157    1
   109     6     5    1
   110     6     8    1
   111    99   101   ar
   112   114   108    1
   113   114   113    1
   114    12    11    2
   115   100   101   ar
   116   142   140   am
   117     5     2    1
   118   104   108   am
   119   104   105    2
   120    15    14    1
   121    15    16    2
   122   108   109    1
   123   141   140    2
   124    11    10    1
   125    11    13   am
   126    14    13    1
   127    14    17    1
   128     9    10    1
   129     9     3   am
   130   113   112    1
   131   140   139    1
   132     1     2    1
   133     2     3    1
   134    18    17    1
   135    18    19    1
   136     3     4    2
   137   112   109    1
   138   109   110    1
   139   124   123    2
   140   139   138    1
   141    21    19   am
   142    19    20    2
   143   115   110   am
   144   115   116    1
   145   120   119    1
   146   129   126    1
   147   129   130    1
   148   110   111    2
   149   126   125    1
   150   126   127    1
   151   123   125   am
   152   123   122    1
   153   119   116    1
   154   121   122    1
   155   121   117   am
   156   116   117    1
   157   127   128    2
   158   117   118    2
   159   136   135    1
   160   131   132    1
   161   135   132    1
   162   135   137    1
   163   132   133    1
   164   133   134    2
