@<TRIPOS>MOLECULE
tmp/4iw1A00.pdb
 128 119 0 0 0
SMALL
GASTEIGER

@<TRIPOS>ATOM
      1  N          2.8760   -2.7560   10.3000 N.3   134  TYR134     -0.1241
      2  CA         1.6670   -2.9030    9.4490 C.3   134  TYR134      0.1605
      3  C          2.0240   -2.5290    7.9890 C.2   134  TYR134      0.2264
      4  O          2.1090   -1.3490    7.6380 O.2   134  TYR134     -0.2867
      5  CB         0.5320   -2.0180    9.9920 C.3   134  TYR134      0.0534
      6  CG        -0.8850   -2.3250    9.5240 C.ar  134  TYR134     -0.0201
      7  CD1       -1.1950   -3.5010    8.7880 C.ar  134  TYR134     -0.0009
      8  CD2       -1.9540   -1.4720    9.8940 C.ar  134  TYR134     -0.0009
      9  CE1       -2.5080   -3.7720    8.3750 C.ar  134  TYR134      0.0417
     10  CE2       -3.2780   -1.7530    9.5050 C.ar  134  TYR134      0.0417
     11  CZ        -3.5430   -2.8970    8.7430 C.ar  134  TYR134      0.1957
     12  OH        -4.8470   -3.1510    8.3790 O.3   134  TYR134     -0.2866
     13  N         -1.3740   -5.8620   18.2190 N.3   183  LYS183     -0.1245
     14  CA        -2.2740   -6.7690   17.5010 C.3   183  LYS183      0.1561
     15  C         -1.5970   -8.1550   17.2390 C.2   183  LYS183      0.2260
     16  O         -2.2250   -9.2090   17.4080 O.2   183  LYS183     -0.2867
     17  CB        -2.6970   -6.1560   16.1610 C.3   183  LYS183      0.0271
     18  CG        -3.4570   -4.8650   16.3060 C.3   183  LYS183      0.0035
     19  CD        -3.9480   -4.3800   14.9630 C.3   183  LYS183      0.0206
     20  CE        -5.1220   -3.4240   15.1410 C.3   183  LYS183      0.1093
     21  NZ        -4.7370   -2.2540   15.9540 N.3   183  LYS183     -0.1314
     22  N        -14.6450   -1.8270   17.3510 N.3   203  LEU203     -0.1245
     23  CA       -15.5340   -1.4940   16.2730 C.3   203  LEU203      0.1561
     24  C        -16.8770   -0.9900   16.7640 C.2   203  LEU203      0.2260
     25  O        -17.4140   -0.0240   16.1780 O.2   203  LEU203     -0.2867
     26  CB       -15.7200   -2.6910   15.3470 C.3   203  LEU203      0.0270
     27  CG       -14.5320   -2.9730   14.4270 C.3   203  LEU203      0.0019
     28  CD1      -15.0290   -3.7270   13.2060 C.3   203  LEU203      0.0001
     29  CD2      -13.8550   -1.7150   13.9300 C.3   203  LEU203      0.0001
     30  N        -16.7560    2.4130   17.6900 N.3   206  ARG206     -0.1231
     31  CA       -16.6590    3.2610   16.5120 C.3   206  ARG206      0.1694
     32  C        -17.9800    3.3230   15.7480 C.2   206  ARG206      0.2592
     33  O        -18.3370    4.3330   15.1210 O.2   206  ARG206     -0.2718
     34  CB       -15.5410    2.7730   15.5800 C.3   206  ARG206      0.0321
     35  CG       -14.2060    3.4420   15.8020 C.3   206  ARG206      0.0489
     36  CD       -13.2330    3.2520   14.6400 C.3   206  ARG206      0.2205
     37  NE       -11.9230    2.8110   15.1340 N.pl3 206  ARG206     -0.0865
     38  CZ       -11.2870    1.6980   14.7460 C.cat 206  ARG206      0.5346
     39  NH1      -10.1170    1.3450   15.2840 N.pl3 206  ARG206      0.1354
     40  NH2      -11.8120    0.9320   13.8050 N.pl3 206  ARG206      0.1354
     41  N        -18.7070    2.2190   15.7720 N.am  207  PHE207     -0.1976
     42  CA       -19.8440    2.0780   14.8780 C.3   207  PHE207      0.1639
     43  C        -21.1310    1.7090   15.6480 C.2   207  PHE207      0.2290
     44  O        -21.7780    0.7120   15.3340 O.2   207  PHE207     -0.2864
     45  CB       -19.5160    1.0830   13.7500 C.3   207  PHE207      0.0560
     46  CG       -18.2580    1.4360   12.9420 C.ar  207  PHE207     -0.0200
     47  CD1      -17.9300    2.7390   12.6510 C.ar  207  PHE207     -0.0042
     48  CD2      -17.4270    0.4320   12.4210 C.ar  207  PHE207     -0.0042
     49  CE1      -16.8080    3.0510   11.8870 C.ar  207  PHE207     -0.0003
     50  CE2      -16.2890    0.7410   11.6660 C.ar  207  PHE207     -0.0003
     51  CZ       -15.9800    2.0590   11.4000 C.ar  207  PHE207     -0.0000
     52  N        -17.5110   -7.2850    9.8210 N.3   218  LEU218     -0.1245
     53  CA       -16.2790   -6.4400    9.8200 C.3   218  LEU218      0.1561
     54  C        -15.2050   -7.0440   10.6990 C.2   218  LEU218      0.2260
     55  O        -14.0330   -6.9550   10.3680 O.2   218  LEU218     -0.2867
     56  CB       -16.5600   -4.9910   10.2460 C.3   218  LEU218      0.0270
     57  CG       -17.6230   -4.2350    9.4140 C.3   218  LEU218      0.0019
     58  CD1      -17.9120   -2.8730   10.0320 C.3   218  LEU218      0.0001
     59  CD2      -17.3220   -4.1160    7.8920 C.3   218  LEU218      0.0001
     60  N        -11.5330   -7.9340    9.4920 N.3   222  LEU222     -0.1245
     61  CA       -10.4250   -7.2570   10.1850 C.3   222  LEU222      0.1561
     62  C         -9.3790   -8.2050   10.7830 C.2   222  LEU222      0.2260
     63  O         -8.1860   -8.0020   10.6070 O.2   222  LEU222     -0.2867
     64  CB       -10.9660   -6.2930   11.2480 C.3   222  LEU222      0.0270
     65  CG        -9.9490   -5.3050   11.8270 C.3   222  LEU222      0.0019
     66  CD1       -9.0220   -4.6380   10.7400 C.3   222  LEU222      0.0001
     67  CD2      -10.8060   -4.3660   12.6780 C.3   222  LEU222      0.0001
     68  N         -5.3890   -8.9190    9.8100 N.3   226  HIS226     -0.1241
     69  CA        -4.2660   -8.8850   10.7190 C.3   226  HIS226      0.1621
     70  C         -3.5680  -10.1990   10.8780 C.2   226  HIS226      0.2264
     71  O         -2.3180  -10.2330   10.9720 O.2   226  HIS226     -0.2867
     72  CB        -4.6450   -8.2490   12.0540 C.3   226  HIS226      0.0745
     73  CG        -4.6830   -6.7580   11.9970 C.ar  226  HIS226      0.0817
     74  ND1       -3.5360   -5.9950   11.9090 N.ar  226  HIS226     -0.2268
     75  CD2       -5.7200   -5.8890   11.9800 C.ar  226  HIS226      0.1154
     76  CE1       -3.8620   -4.7130   11.8540 C.ar  226  HIS226      0.1986
     77  NE2       -5.1810   -4.6210   11.9110 N.ar  226  HIS226     -0.2212
     78  N         -7.0380   -5.9840    2.9640 N.3   241  ARG241     -0.1245
     79  CA        -7.2420   -4.6320    3.5340 C.3   241  ARG241      0.1563
     80  C         -7.9150   -3.6260    2.5750 C.2   241  ARG241      0.2260
     81  O         -8.8070   -2.8970    2.9650 O.2   241  ARG241     -0.2867
     82  CB        -5.9560   -4.0270    4.0480 C.3   241  ARG241      0.0307
     83  CG        -6.2290   -2.9200    5.0170 C.3   241  ARG241      0.0489
     84  CD        -5.0200   -2.0440    5.1260 C.3   241  ARG241      0.2205
     85  NE        -5.1520   -1.1100    6.2420 N.pl3 241  ARG241     -0.0865
     86  CZ        -4.5450    0.0740    6.3030 C.cat 241  ARG241      0.5346
     87  NH1       -3.7950    0.5090    5.2850 N.pl3 241  ARG241      0.1354
     88  NH2       -4.7180    0.8220    7.3810 N.pl3 241  ARG241      0.1354
     89  N        -11.6630   -4.6170    2.3310 N.3   244  LEU244     -0.1231
     90  CA       -12.4280   -4.1420    3.4960 C.3   244  LEU244      0.1693
     91  C        -12.8160   -2.6880    3.2970 C.2   244  LEU244      0.2591
     92  O        -13.9650   -2.2950    3.6290 O.2   244  LEU244     -0.2718
     93  CB       -11.6030   -4.2780    4.7540 C.3   244  LEU244      0.0284
     94  CG       -12.1960   -3.9970    6.1310 C.3   244  LEU244      0.0019
     95  CD1      -13.5840   -4.5690    6.2830 C.3   244  LEU244      0.0001
     96  CD2      -11.2890   -4.6170    7.1710 C.3   244  LEU244      0.0001
     97  N        -11.8850   -1.9180    2.7220 N.am  245  ALA245     -0.1980
     98  CA       -12.1270   -0.5300    2.3970 C.3   245  ALA245      0.1597
     99  C        -13.1750   -0.4450    1.3130 C.2   245  ALA245      0.2287
    100  O        -14.2200    0.2440    1.5300 O.2   245  ALA245     -0.2864
    101  CB       -10.8530    0.1770    1.9630 C.3   245  ALA245      0.0319
    102  N        -16.3910   -1.1970    3.1910 N.3   248  ILE248     -0.1245
    103  CA       -16.9110   -0.2040    4.1130 C.3   248  ILE248      0.1561
    104  C        -17.4900    0.9540    3.3390 C.2   248  ILE248      0.2260
    105  O        -18.6040    1.3870    3.6440 O.2   248  ILE248     -0.2867
    106  CB       -15.8170    0.2980    5.0990 C.3   248  ILE248      0.0252
    107  CG1      -15.1120   -0.9200    5.7630 C.3   248  ILE248      0.0019
    108  CG2      -16.3750    1.3770    6.0320 C.3   248  ILE248      0.0019
    109  CD1      -14.6130   -0.7920    7.1750 C.3   248  ILE248      0.0001
    110  N         -7.7700    3.6970    3.7450 N.3   271  SER271     -0.1217
    111  CA        -7.6590    2.7170    4.7990 C.3   271  SER271      0.1889
    112  C         -7.1390    3.3180    6.0930 C.2   271  SER271      0.2288
    113  O         -7.8180    3.2410    7.1080 O.2   271  SER271     -0.2866
    114  CB        -6.8900    1.5170    4.3220 C.3   271  SER271      0.2089
    115  OG        -7.8280    0.6980    3.6470 O.3   271  SER271     -0.2183
    116  N         -9.9730    5.3480    7.4930 N.3   274  ILE274     -0.1231
    117  CA       -10.9950    4.5580    8.1620 C.3   274  ILE274      0.1692
    118  C        -10.5350    4.0740    9.5190 C.2   274  ILE274      0.2591
    119  O        -11.3020    4.1340   10.4640 O.2   274  ILE274     -0.2718
    120  CB       -11.4510    3.3500    7.3350 C.3   274  ILE274      0.0266
    121  CG1      -12.2410    3.8090    6.1200 C.3   274  ILE274      0.0019
    122  CG2      -12.2870    2.4020    8.1960 C.3   274  ILE274      0.0020
    123  CD1      -12.1970    2.7990    4.9790 C.3   274  ILE274      0.0001
    124  N         -9.2890    3.6200    9.6180 N.am  275  ALA275     -0.1980
    125  CA        -8.7700    3.0940   10.8800 C.3   275  ALA275      0.1597
    126  C         -8.6420    4.1520   11.9660 C.2   275  ALA275      0.2287
    127  O         -8.3090    3.8070   13.0890 O.2   275  ALA275     -0.2864
    128  CB        -7.4240    2.4290   10.6570 C.3   275  ALA275      0.0319
@<TRIPOS>BOND
     1    99   100    2
     2    99    98    1
     3   101    98    1
     4    89    90    1
     5    98    97    1
     6    80    81    2
     7    80    79    1
     8    97    91   am
     9    78    79    1
    10   102   103    1
    11    91    90    1
    12    91    92    2
    13   104   105    2
    14   104   103    1
    15    90    93    1
    16    79    82    1
    17   115   114    1
    18   110   111    1
    19    82    83    1
    20   103   106    1
    21   114   111    1
    22    93    94    1
    23   111   112    1
    24   123   121    1
    25    83    84    1
    26   106   107    1
    27   106   108    1
    28    84    85    1
    29    87    86    1
    30   107   109    1
    31   112   113    2
    32   121   120    1
    33    94    95    1
    34    94    96    1
    35    85    86    2
    36    86    88    1
    37   120   117    1
    38   120   122    1
    39   116   117    1
    40     4     3    2
    41    59    57    1
    42     3     2    1
    43   117   118    1
    44     9    11   ar
    45     9     7   ar
    46    12    11    1
    47    11    10   ar
    48     7     6   ar
    49    57    58    1
    50    57    56    1
    51     2     5    1
    52     2     1    1
    53    60    61    1
    54    10     8   ar
    55   118   124   am
    56   118   119    2
    57     6     8   ar
    58     6     5    1
    59   124   125    1
    60    68    69    1
    61    53    52    1
    62    53    56    1
    63    53    54    1
    64    61    62    1
    65    61    64    1
    66    55    54    2
    67    63    62    2
    68   128   125    1
    69    69    70    1
    70    69    72    1
    71    66    65    1
    72    70    71    2
    73   125   126    1
    74    64    65    1
    75    51    50   ar
    76    51    49   ar
    77    50    48   ar
    78    65    67    1
    79    76    74   ar
    80    76    77   ar
    81    49    47   ar
    82    74    73   ar
    83    77    75   ar
    84   126   127    2
    85    75    73   ar
    86    73    72    1
    87    48    46   ar
    88    47    46   ar
    89    46    45    1
    90    28    27    1
    91    45    42    1
    92    40    38    1
    93    29    27    1
    94    27    26    1
    95    36    37    1
    96    36    35    1
    97    38    37    2
    98    38    39    1
    99    42    43    1
   100    42    41    1
   101    19    20    1
   102    19    18    1
   103    33    32    2
   104    20    21    1
   105    44    43    2
   106    26    23    1
   107    34    35    1
   108    34    31    1
   109    32    41   am
   110    32    31    1
   111    17    18    1
   112    17    14    1
   113    25    24    2
   114    23    24    1
   115    23    22    1
   116    31    30    1
   117    15    16    2
   118    15    14    1
   119    14    13    1
