@<TRIPOS>MOLECULE
tmp/4iw2A01.pdb
 127 119 0 0 0
SMALL
GASTEIGER

@<TRIPOS>ATOM
      1  N          2.5030   -1.6700    9.9990 N.3   146  TYR146     -0.1241
      2  CA         1.2680   -1.8390    9.2210 C.3   146  TYR146      0.1605
      3  C          1.6120   -1.5510    7.7930 C.2   146  TYR146      0.2264
      4  O          1.6460   -0.3840    7.3780 O.2   146  TYR146     -0.2867
      5  CB         0.1710   -0.8560    9.7260 C.3   146  TYR146      0.0534
      6  CG        -1.2480   -1.1710    9.2600 C.ar  146  TYR146     -0.0201
      7  CD1       -1.5460   -2.3680    8.5890 C.ar  146  TYR146     -0.0009
      8  CD2       -2.3160   -0.2930    9.5290 C.ar  146  TYR146     -0.0009
      9  CE1       -2.8220   -2.6490    8.1600 C.ar  146  TYR146      0.0417
     10  CE2       -3.6120   -0.6040    9.1200 C.ar  146  TYR146      0.0417
     11  CZ        -3.8410   -1.7850    8.4290 C.ar  146  TYR146      0.1957
     12  OH        -5.1000   -2.1410    8.0090 O.3   146  TYR146     -0.2866
     13  N         -1.5830   -4.8210   17.9370 N.3   195  LYS195     -0.1245
     14  CA        -2.5260   -5.6570   17.1570 C.3   195  LYS195      0.1561
     15  C         -1.9340   -7.0540   16.8890 C.2   195  LYS195      0.2260
     16  O         -2.6200   -8.0780   17.0770 O.2   195  LYS195     -0.2867
     17  CB        -2.8440   -5.0210   15.8220 C.3   195  LYS195      0.0271
     18  CG        -3.6430   -3.7210   15.9040 C.3   195  LYS195      0.0035
     19  CD        -4.3410   -3.4110   14.5680 C.3   195  LYS195      0.0206
     20  CE        -4.8660   -1.9920   14.5110 C.3   195  LYS195      0.1093
     21  NZ        -4.7250   -1.2870   15.8170 N.3   195  LYS195     -0.1314
     22  N        -14.9490   -0.8530   17.1000 N.3   215  LEU215     -0.1245
     23  CA       -15.7900   -0.3760   15.9990 C.3   215  LEU215      0.1561
     24  C        -17.1870    0.1210   16.4270 C.2   215  LEU215      0.2260
     25  O        -17.7610    0.9790   15.7340 O.2   215  LEU215     -0.2867
     26  CB       -15.8360   -1.3300   14.8130 C.3   215  LEU215      0.0270
     27  CG       -14.4920   -1.5810   14.1110 C.3   215  LEU215      0.0019
     28  CD1      -14.7370   -2.4760   12.9070 C.3   215  LEU215      0.0001
     29  CD2      -13.8460   -0.2970   13.6530 C.3   215  LEU215      0.0001
     30  N        -16.9530    3.5510   17.4140 N.3   218  ARG218     -0.1231
     31  CA       -16.8100    4.4060   16.2830 C.3   218  ARG218      0.1694
     32  C        -18.0610    4.4410   15.4460 C.2   218  ARG218      0.2592
     33  O        -18.3910    5.4600   14.9070 O.2   218  ARG218     -0.2718
     34  CB       -15.6360    3.9750   15.4300 C.3   218  ARG218      0.0321
     35  CG       -14.4660    4.9110   15.5640 C.3   218  ARG218      0.0489
     36  CD       -13.5320    4.8270   14.3810 C.3   218  ARG218      0.2205
     37  NE       -12.3030    4.1410   14.7410 N.pl3 218  ARG218     -0.0865
     38  CZ       -11.6840    3.2910   13.9320 C.cat 218  ARG218      0.5346
     39  NH1      -12.2090    3.0570   12.7310 N.pl3 218  ARG218      0.1354
     40  NH2      -10.5540    2.6750   14.3100 N.pl3 218  ARG218      0.1354
     41  N        -18.7600    3.3320   15.3320 N.am  219  PHE219     -0.1976
     42  CA       -19.8660    3.2570   14.3830 C.3   219  PHE219      0.1639
     43  C        -21.2390    2.9800   15.0870 C.2   219  PHE219      0.2290
     44  O        -21.9920    2.0850   14.6840 O.2   219  PHE219     -0.2864
     45  CB       -19.5540    2.2010   13.2940 C.3   219  PHE219      0.0560
     46  CG       -18.2710    2.4540   12.4790 C.ar  219  PHE219     -0.0200
     47  CD1      -17.8970    3.7370   12.0690 C.ar  219  PHE219     -0.0042
     48  CD2      -17.4800    1.3750   12.0580 C.ar  219  PHE219     -0.0042
     49  CE1      -16.7590    3.9480   11.3060 C.ar  219  PHE219     -0.0003
     50  CE2      -16.3470    1.5760   11.2970 C.ar  219  PHE219     -0.0003
     51  CZ       -15.9880    2.8670   10.9180 C.ar  219  PHE219     -0.0000
     52  N        -11.7870   -6.6970    9.1750 N.3   234  LEU234     -0.1245
     53  CA       -10.6530   -6.0340    9.7750 C.3   234  LEU234      0.1561
     54  C         -9.6320   -7.0360   10.3360 C.2   234  LEU234      0.2260
     55  O         -8.4100   -6.8290   10.2250 O.2   234  LEU234     -0.2867
     56  CB       -11.1300   -5.0750   10.8650 C.3   234  LEU234      0.0270
     57  CG       -10.1480   -4.0450   11.4030 C.3   234  LEU234      0.0019
     58  CD1       -9.1510   -3.5270   10.3180 C.3   234  LEU234      0.0001
     59  CD2      -10.9570   -2.9320   12.0830 C.3   234  LEU234      0.0001
     60  N         -7.6300   -8.8240    7.6380 N.3   237  VAL237     -0.1231
     61  CA        -6.5570   -7.9140    7.2160 C.3   237  VAL237      0.1692
     62  C         -5.3550   -7.9500    8.1810 C.2   237  VAL237      0.2592
     63  O         -4.2110   -8.2900    7.7820 O.2   237  VAL237     -0.2718
     64  CB        -7.0740   -6.4660    7.0110 C.3   237  VAL237      0.0266
     65  CG1       -5.9260   -5.4940    6.7710 C.3   237  VAL237      0.0020
     66  CG2       -8.0230   -6.4150    5.8300 C.3   237  VAL237      0.0020
     67  N         -5.6020   -7.6470    9.4500 N.am  238  HIS238     -0.1976
     68  CA        -4.5110   -7.7410   10.4340 C.3   238  HIS238      0.1656
     69  C         -3.8790   -9.0840   10.6390 C.2   238  HIS238      0.2291
     70  O         -2.6340   -9.1930   10.8390 O.2   238  HIS238     -0.2864
     71  CB        -4.8860   -7.0360   11.7300 C.3   238  HIS238      0.0771
     72  CG        -4.9830   -5.5630   11.5350 C.ar  238  HIS238      0.0820
     73  ND1       -3.8840   -4.7460   11.5390 N.ar  238  HIS238     -0.2267
     74  CD2       -6.0640   -4.7720   11.1750 C.ar  238  HIS238      0.1154
     75  CE1       -4.2670   -3.4760   11.2760 C.ar  238  HIS238      0.1986
     76  NE2       -5.6050   -3.4890   11.0560 N.ar  238  HIS238     -0.2212
     77  N         -7.3390   -4.7710    2.5920 N.3   253  ARG253     -0.1245
     78  CA        -7.5840   -3.4140    3.1140 C.3   253  ARG253      0.1563
     79  C         -8.2520   -2.4540    2.0970 C.2   253  ARG253      0.2260
     80  O         -9.2160   -1.7540    2.4290 O.2   253  ARG253     -0.2867
     81  CB        -6.3080   -2.8030    3.6550 C.3   253  ARG253      0.0307
     82  CG        -6.5450   -1.5460    4.4400 C.3   253  ARG253      0.0489
     83  CD        -5.2450   -1.1310    5.0560 C.3   253  ARG253      0.2205
     84  NE        -5.4330   -0.1370    6.1140 N.pl3 253  ARG253     -0.0865
     85  CZ        -4.7880    1.0220    6.1710 C.cat 253  ARG253      0.5346
     86  NH1       -3.9260    1.3460    5.2080 N.pl3 253  ARG253      0.1354
     87  NH2       -5.0020    1.8480    7.1990 N.pl3 253  ARG253      0.1354
     88  N        -11.7320   -3.5710    1.9750 N.3   256  LEU256     -0.1231
     89  CA       -12.4690   -3.1010    3.1320 C.3   256  LEU256      0.1693
     90  C        -12.8590   -1.6090    3.0180 C.2   256  LEU256      0.2591
     91  O        -13.9360   -1.2110    3.4330 O.2   256  LEU256     -0.2718
     92  CB       -11.7950   -3.4500    4.4740 C.3   256  LEU256      0.0284
     93  CG       -12.7820   -3.1080    5.6130 C.3   256  LEU256      0.0019
     94  CD1      -14.2220   -3.5780    5.2960 C.3   256  LEU256      0.0001
     95  CD2      -12.3230   -3.5390    7.0070 C.3   256  LEU256      0.0001
     96  N        -11.9950   -0.8130    2.4020 N.am  257  ALA257     -0.1980
     97  CA       -12.3110    0.5880    2.1640 C.3   257  ALA257      0.1597
     98  C        -13.4040    0.7390    1.0980 C.2   257  ALA257      0.2287
     99  O        -14.3680    1.5140    1.2820 O.2   257  ALA257     -0.2864
    100  CB       -11.0700    1.3390    1.7550 C.3   257  ALA257      0.0319
    101  N        -16.7140   -0.1200    2.8410 N.3   260  ILE260     -0.1245
    102  CA       -17.1490    0.8190    3.8220 C.3   260  ILE260      0.1561
    103  C        -17.7270    2.0710    3.1670 C.2   260  ILE260      0.2260
    104  O        -18.6910    2.6680    3.6790 O.2   260  ILE260     -0.2867
    105  CB       -15.9740    1.1930    4.7480 C.3   260  ILE260      0.0252
    106  CG1      -15.4690   -0.0680    5.4860 C.3   260  ILE260      0.0019
    107  CG2      -16.3780    2.3320    5.6820 C.3   260  ILE260      0.0019
    108  CD1      -15.0160    0.1770    6.8900 C.3   260  ILE260      0.0001
    109  N         -7.9890    4.8610    3.4110 N.3   283  SER283     -0.1217
    110  CA        -7.8810    3.8710    4.4800 C.3   283  SER283      0.1889
    111  C         -7.3770    4.4980    5.7350 C.2   283  SER283      0.2288
    112  O         -7.9780    4.3260    6.7670 O.2   283  SER283     -0.2866
    113  CB        -6.9050    2.7770    4.1020 C.3   283  SER283      0.2089
    114  OG        -7.6070    1.8060    3.4170 O.3   283  SER283     -0.2183
    115  N        -10.0450    6.4680    7.3680 N.3   286  ILE286     -0.1231
    116  CA       -11.1410    5.7170    7.9890 C.3   286  ILE286      0.1692
    117  C        -10.7080    5.2210    9.3680 C.2   286  ILE286      0.2591
    118  O        -11.4200    5.3380   10.3530 O.2   286  ILE286     -0.2718
    119  CB       -11.5250    4.4870    7.1930 C.3   286  ILE286      0.0266
    120  CG1      -12.3490    4.8600    5.9590 C.3   286  ILE286      0.0019
    121  CG2      -12.3220    3.5780    8.1070 C.3   286  ILE286      0.0020
    122  CD1      -12.3200    3.8040    4.8650 C.3   286  ILE286      0.0001
    123  N         -9.5100    4.6710    9.3990 N.am  287  ALA287     -0.1980
    124  CA        -8.9220    4.1790   10.5930 C.3   287  ALA287      0.1597
    125  C         -8.8290    5.2830   11.6600 C.2   287  ALA287      0.2287
    126  O         -8.8430    4.9920   12.8350 O.2   287  ALA287     -0.2864
    127  CB        -7.5540    3.6070   10.2700 C.3   287  ALA287      0.0319
@<TRIPOS>BOND
     1    98    99    2
     2    98    97    1
     3   100    97    1
     4    88    89    1
     5    79    80    2
     6    79    78    1
     7    97    96    1
     8    96    90   am
     9    77    78    1
    10   101   102    1
    11    90    89    1
    12    90    91    2
    13    78    81    1
    14    89    92    1
    15   103   104    2
    16   103   102    1
    17   109   110    1
    18   114   113    1
    19    81    82    1
    20   102   105    1
    21   113   110    1
    22    82    83    1
    23    92    93    1
    24   110   111    1
    25   105   106    1
    26   105   107    1
    27   122   120    1
    28    83    84    1
    29    86    85    1
    30    94    93    1
    31   106   108    1
    32    93    95    1
    33   111   112    2
    34    66    64    1
    35   120   119    1
    36    84    85    2
    37    85    87    1
    38    65    64    1
    39    64    61    1
    40   119   116    1
    41   119   121    1
    42    61    60    1
    43    61    62    1
    44   115   116    1
    45     4     3    2
    46    63    62    2
    47     3     2    1
    48   116   117    1
    49    12    11    1
    50     9    11   ar
    51     9     7   ar
    52    62    67   am
    53    11    10   ar
    54     7     6   ar
    55    10     8   ar
    56    52    53    1
    57     2     5    1
    58     2     1    1
    59     6     8   ar
    60     6     5    1
    61   117   123   am
    62   117   118    2
    63   123   124    1
    64    67    68    1
    65    53    54    1
    66    53    56    1
    67    55    54    2
    68   127   124    1
    69    58    57    1
    70    68    69    1
    71    68    71    1
    72   124   125    1
    73    69    70    2
    74    56    57    1
    75    51    50   ar
    76    51    49   ar
    77    76    74   ar
    78    76    75   ar
    79    74    72   ar
    80    75    73   ar
    81    50    48   ar
    82    49    47   ar
    83    57    59    1
    84    72    73   ar
    85    72    71    1
    86   125   126    2
    87    48    46   ar
    88    47    46   ar
    89    46    45    1
    90    39    38    1
    91    28    27    1
    92    45    42    1
    93    29    27    1
    94    38    40    1
    95    38    37    2
    96    27    26    1
    97    36    37    1
    98    36    35    1
    99    42    43    1
   100    42    41    1
   101    20    19    1
   102    20    21    1
   103    19    18    1
   104    44    43    2
   105    26    23    1
   106    33    32    2
   107    41    32   am
   108    34    35    1
   109    34    31    1
   110    32    31    1
   111    25    24    2
   112    17    18    1
   113    17    14    1
   114    23    24    1
   115    23    22    1
   116    31    30    1
   117    15    16    2
   118    15    14    1
   119    14    13    1
