@<TRIPOS>MOLECULE
tmp/4iw3B00.pdb
 132 130 0 0 0
SMALL
GASTEIGER

@<TRIPOS>ATOM
      1  N        -26.8540   23.5790  -33.9770 N.3    11  HIS11      -0.1226
      2  CA       -25.9360   22.7980  -33.1550 C.3    11  HIS11       0.1752
      3  C        -25.5950   23.5270  -31.8490 C.2    11  HIS11       0.2596
      4  O        -26.0450   24.6460  -31.6230 O.2    11  HIS11      -0.2718
      5  CB       -24.6630   22.5080  -33.9450 C.3    11  HIS11       0.0759
      6  CG       -23.8470   21.3870  -33.3820 C.ar   11  HIS11       0.0818
      7  ND1      -24.1740   20.0640  -33.5670 N.ar   11  HIS11      -0.2268
      8  CD2      -22.7170   21.3950  -32.6310 C.ar   11  HIS11       0.1154
      9  CE1      -23.2800   19.3010  -32.9660 C.ar   11  HIS11       0.1986
     10  NE2      -22.3880   20.0820  -32.3870 N.ar   11  HIS11      -0.2212
     11  N        -24.8140   22.8890  -30.9820 N.am   12  VAL12      -0.1966
     12  CA       -24.3810   23.5270  -29.7440 C.3    12  VAL12       0.1727
     13  C        -23.1500   24.4000  -29.9690 C.2    12  VAL12       0.2616
     14  O        -22.3810   24.1770  -30.9030 O.2    12  VAL12      -0.2715
     15  CB       -24.0710   22.4780  -28.6550 C.3    12  VAL12       0.0290
     16  CG1      -23.5930   23.1540  -27.3770 C.3    12  VAL12       0.0023
     17  CG2      -25.2970   21.6410  -28.3750 C.3    12  VAL12       0.0023
     18  N        -22.9910   25.4080  -29.1120 N.am   13  ASP13      -0.1957
     19  CA       -21.8070   26.2640  -29.1050 C.3    13  ASP13       0.1840
     20  C        -21.7580   27.1710  -30.3310 C.2    13  ASP13       0.2622
     21  O        -20.8650   28.0110  -30.4570 O.2    13  ASP13      -0.2715
     22  CB       -20.5260   25.4200  -29.0120 C.3    13  ASP13       0.1450
     23  CG       -20.4300   24.6370  -27.7060 C.2    13  ASP13       0.3671
     24  OD1      -20.7860   25.2010  -26.6450 O.co2  13  ASP13      -0.2456
     25  OD2      -20.0060   23.4560  -27.7450 O.co2  13  ASP13      -0.2456
     26  N        -22.7320   27.0190  -31.2220 N.am   14  HIS14      -0.1959
     27  CA       -22.7670   27.7890  -32.4610 C.3    14  HIS14       0.1787
     28  C        -23.2780   29.1980  -32.2380 C.2    14  HIS14       0.2621
     29  O        -23.1550   30.0560  -33.1180 O.2    14  HIS14      -0.2715
     30  CB       -23.6590   27.1070  -33.4810 C.3    14  HIS14       0.0785
     31  CG       -22.9450   26.1170  -34.3410 C.ar   14  HIS14       0.0821
     32  ND1      -22.8020   26.2880  -35.6970 N.ar   14  HIS14      -0.2267
     33  CD2      -22.3320   24.9480  -34.0370 C.ar   14  HIS14       0.1154
     34  CE1      -22.1380   25.2630  -36.2000 C.ar   14  HIS14       0.1986
     35  NE2      -21.8420   24.4340  -35.2130 N.ar   14  HIS14      -0.2212
     36  N        -23.8720   29.4240  -31.0700 N.am   15  GLY15      -0.1940
     37  CA       -24.2280   30.7620  -30.6520 C.3    15  GLY15       0.2014
     38  C        -25.7040   31.0740  -30.7180 C.2    15  GLY15       0.2639
     39  O        -26.0720   32.2250  -30.9100 O.2    15  GLY15      -0.2714
     40  N        -26.5580   30.0700  -30.5580 N.am   16  LYS16      -0.1963
     41  CA       -27.9910   30.3260  -30.4940 C.3    16  LYS16       0.1728
     42  C        -28.3010   31.2730  -29.3450 C.2    16  LYS16       0.2617
     43  O        -28.8760   32.3480  -29.5430 O.2    16  LYS16      -0.2715
     44  CB       -28.7620   29.0300  -30.2920 C.3    16  LYS16       0.0311
     45  CG       -28.6540   28.0580  -31.4400 C.3    16  LYS16       0.0038
     46  CD       -29.5020   26.8460  -31.1580 C.3    16  LYS16       0.0206
     47  CE       -28.6880   25.6830  -30.5970 C.3    16  LYS16       0.1093
     48  NZ       -28.2290   25.8500  -29.1830 N.3    16  LYS16      -0.1314
     49  N        -27.9200   30.8670  -28.1380 N.am   17  THR17      -0.1937
     50  CA       -28.2230   31.6470  -26.9440 C.3    17  THR17       0.2028
     51  C        -27.6840   33.0790  -27.0710 C.2    17  THR17       0.2642
     52  O        -28.2550   34.0190  -26.5090 O.2    17  THR17      -0.2714
     53  CB       -27.6710   30.9640  -25.6600 C.3    17  THR17       0.1808
     54  OG1      -28.2240   29.6440  -25.5310 O.3    17  THR17      -0.2208
     55  CG2      -28.0370   31.7760  -24.4300 C.3    17  THR17       0.0379
     56  N        -26.5990   33.2380  -27.8260 N.am   18  THR18      -0.1950
     57  CA       -25.9760   34.5430  -28.0240 C.3    18  THR18       0.1897
     58  C        -26.7230   35.4440  -29.0260 C.2    18  THR18       0.2313
     59  O        -26.8780   36.6430  -28.7900 O.2    18  THR18      -0.2863
     60  CB       -24.5120   34.3700  -28.4590 C.3    18  THR18       0.1794
     61  OG1      -23.7520   33.8810  -27.3490 O.3    18  THR18      -0.2208
     62  CG2      -23.9270   35.6810  -28.9100 C.3    18  THR18       0.0378
     63  N        -31.5770   25.1640  -23.8710 N.3    68  PRO68      -0.2116
     64  CA       -30.2470   24.6760  -23.5000 C.3    68  PRO68       0.1372
     65  C        -29.8390   23.4700  -24.3220 C.2    68  PRO68       0.2244
     66  O        -29.0540   23.6200  -25.2620 O.2    68  PRO68      -0.2868
     67  CB       -30.4040   24.3260  -22.0150 C.3    68  PRO68       0.0268
     68  CG       -31.5010   25.2770  -21.5310 C.3    68  PRO68       0.0207
     69  CD       -32.4440   25.3930  -22.6970 C.3    68  PRO68       0.0892
     70  N        -23.3560   32.4840  -38.3720 N.3   121  ASN121     -0.1225
     71  CA       -22.7030   33.1580  -37.2510 C.3   121  ASN121      0.1785
     72  C        -21.1730   33.0170  -37.2260 C.2   121  ASN121      0.2597
     73  O        -20.5950   32.1490  -37.8850 O.2   121  ASN121     -0.2718
     74  CB       -23.2860   32.6270  -35.9350 C.3   121  ASN121      0.1169
     75  CG       -22.9930   33.5310  -34.7590 C.2   121  ASN121      0.2627
     76  OD1      -22.8730   34.7490  -34.9060 O.2   121  ASN121     -0.2716
     77  ND2      -22.8710   32.9350  -33.5790 N.am  121  ASN121     -0.0877
     78  N        -20.5250   33.8760  -36.4470 N.am  122  LYS122     -0.1980
     79  CA       -19.0790   33.8270  -36.3100 C.3   122  LYS122      0.1596
     80  C        -18.3720   34.1930  -37.6260 C.2   122  LYS122      0.2287
     81  O        -17.2860   33.6900  -37.9270 O.2   122  LYS122     -0.2864
     82  CB       -18.6630   32.4420  -35.8040 C.3   122  LYS122      0.0298
     83  CG       -19.0100   32.2200  -34.3380 C.3   122  LYS122      0.0038
     84  CD       -19.0220   30.7490  -33.9660 C.3   122  LYS122      0.0206
     85  CE       -19.0580   30.5770  -32.4580 C.3   122  LYS122      0.1093
     86  NZ       -19.3530   29.1770  -32.0640 N.3   122  LYS122     -0.1314
     87  N        -17.0230   36.9520  -38.1850 N.3   124  ASP124     -0.1225
     88  CA       -15.8200   37.6550  -37.7570 C.3   124  ASP124      0.1805
     89  C        -14.5650   36.8240  -38.0230 C.2   124  ASP124      0.2597
     90  O        -13.4920   37.3630  -38.3320 O.2   124  ASP124     -0.2718
     91  CB       -15.9220   38.0100  -36.2680 C.3   124  ASP124      0.1424
     92  CG       -16.3200   36.8240  -35.4040 C.2   124  ASP124      0.3668
     93  OD1      -17.1860   36.0330  -35.8270 O.co2 124  ASP124     -0.2456
     94  OD2      -15.7690   36.6890  -34.2940 O.co2 124  ASP124     -0.2456
     95  N        -14.7140   35.5060  -37.9150 N.am  125  LEU125     -0.1979
     96  CA       -13.6050   34.5860  -38.1230 C.3   125  LEU125      0.1596
     97  C        -13.5840   34.0850  -39.5730 C.2   125  LEU125      0.2287
     98  O        -14.0040   32.9680  -39.8690 O.2   125  LEU125     -0.2864
     99  CB       -13.7030   33.4260  -37.1250 C.3   125  LEU125      0.0297
    100  CG       -14.0440   33.8400  -35.6830 C.3   125  LEU125      0.0022
    101  CD1      -13.7310   32.7300  -34.6970 C.3   125  LEU125      0.0001
    102  CD2      -13.3070   35.1090  -35.2850 C.3   125  LEU125      0.0001
    103  N        -21.7960   38.1640  -37.1160 N.3   157  SER157     -0.1202
    104  CA       -21.3660   37.5750  -35.8480 C.3   157  SER157      0.2020
    105  C        -22.2190   38.1460  -34.7390 C.2   157  SER157      0.2619
    106  O        -22.1970   39.3530  -34.4910 O.2   157  SER157     -0.2717
    107  CB       -19.9040   37.8860  -35.5410 C.3   157  SER157      0.2103
    108  OG       -19.8130   39.1010  -34.8190 O.3   157  SER157     -0.2182
    109  N        -22.9580   37.2770  -34.0640 N.am  158  ALA158     -0.1965
    110  CA       -23.8670   37.7180  -33.0280 C.3   158  ALA158      0.1728
    111  C        -23.1100   38.3220  -31.8510 C.2   158  ALA158      0.2616
    112  O        -23.5880   39.2780  -31.2450 O.2   158  ALA158     -0.2715
    113  CB       -24.7380   36.5710  -32.5740 C.3   158  ALA158      0.0334
    114  N        -21.9330   37.7850  -31.5310 N.am  159  ARG159     -0.1963
    115  CA       -21.1780   38.2700  -30.3710 C.3   159  ARG159      0.1729
    116  C        -20.7820   39.7350  -30.5660 C.2   159  ARG159      0.2616
    117  O        -20.7890   40.5090  -29.6110 O.2   159  ARG159     -0.2715
    118  CB       -19.9470   37.3990  -30.1000 C.3   159  ARG159      0.0348
    119  CG       -19.3550   37.5330  -28.6850 C.3   159  ARG159      0.0492
    120  CD       -18.1250   36.6290  -28.5230 C.3   159  ARG159      0.2205
    121  NE       -17.4740   36.7560  -27.2170 N.pl3 159  ARG159     -0.0865
    122  CZ       -16.3280   36.1590  -26.8860 C.cat 159  ARG159      0.5346
    123  NH1      -15.8150   36.3330  -25.6750 N.pl3 159  ARG159      0.1354
    124  NH2      -15.6880   35.3890  -27.7610 N.pl3 159  ARG159      0.1354
    125  N        -20.4530   40.1250  -31.7960 N.am  160  MET160     -0.1977
    126  CA       -20.2260   41.5380  -32.0780 C.3   160  MET160      0.1605
    127  C        -21.5290   42.2720  -31.8370 C.2   160  MET160      0.2287
    128  O        -21.5980   43.1340  -30.9710 O.2   160  MET160     -0.2864
    129  CB       -19.7780   41.7850  -33.5180 C.3   160  MET160      0.0413
    130  CG       -18.3720   41.3170  -33.8520 C.3   160  MET160      0.0598
    131  SD       -18.0050   41.5130  -35.6150 S.3   160  MET160     -0.1393
    132  CE       -18.2060   43.2680  -35.7650 C.3   160  MET160      0.0692
@<TRIPOS>BOND
     1    98    97    2
     2    97    96    1
     3    70    71    1
     4    90    89    2
     5    87    88    1
     6    96    95    1
     7    96    99    1
     8    89    95   am
     9    89    88    1
    10    81    80    2
    11    73    72    2
    12    88    91    1
    13    80    79    1
    14    71    72    1
    15    71    74    1
    16    72    78   am
    17    99   100    1
    18   103   104    1
    19    78    79    1
    20    79    82    1
    21    91    92    1
    22    34    32   ar
    23    34    35   ar
    24    74    75    1
    25   104   107    1
    26   104   105    1
    27    93    92   ar
    28    82    83    1
    29   132   131    1
    30    32    31   ar
    31   100   102    1
    32   100   101    1
    33   131   130    1
    34   107   108    1
    35    92    94   ar
    36    35    33   ar
    37    76    75    2
    38    75    77   am
    39   105   106    2
    40   105   109   am
    41    31    33   ar
    42    31    30    1
    43    83    84    1
    44   109   110    1
    45     1     2    1
    46    84    85    1
    47     5     6    1
    48     5     2    1
    49   130   129    1
    50     7     6   ar
    51     7     9   ar
    52   129   126    1
    53    30    27    1
    54     6     8   ar
    55     2     3    1
    56    29    28    2
    57   110   113    1
    58   110   111    1
    59     9    10   ar
    60     8    10   ar
    61    27    28    1
    62    27    26    1
    63    85    86    1
    64    28    36   am
    65   126   127    1
    66   126   125    1
    67   111   114   am
    68   111   112    2
    69     3     4    2
    70     3    11   am
    71   127   128    2
    72   125   116   am
    73   114   115    1
    74    45    46    1
    75    45    44    1
    76    26    20   am
    77    46    47    1
    78    36    37    1
    79    11    12    1
    80    39    38    2
    81    14    13    2
    82    38    37    1
    83    38    40   am
    84    47    48    1
    85   116   115    1
    86   116   117    2
    87    40    41    1
    88    41    44    1
    89    41    42    1
    90    21    20    2
    91   115   118    1
    92    20    19    1
    93   118   119    1
    94    13    12    1
    95    13    18   am
    96    12    15    1
    97    43    42    2
    98    42    49   am
    99    18    19    1
   100    19    22    1
   101    58    59    2
   102    58    57    1
   103    22    23    1
   104    62    60    1
   105   119   120    1
   106    15    17    1
   107    15    16    1
   108   120   121    1
   109    60    57    1
   110    60    61    1
   111    49    50    1
   112    57    56    1
   113    56    51   am
   114   124   122    1
   115    25    23   ar
   116    23    24   ar
   117   121   122    2
   118    51    50    1
   119    51    52    2
   120    50    53    1
   121   122   123    1
   122    53    54    1
   123    53    55    1
   124    66    65    2
   125    65    64    1
   126    63    64    1
   127    63    69    1
   128    64    67    1
   129    69    68    1
   130    67    68    1
