@<TRIPOS>MOLECULE
tmp/4iw3A00.pdb
 164 156 0 0 0
SMALL
GASTEIGER

@<TRIPOS>ATOM
      1  N        -48.5740   32.3610    0.9080 N.3    62  ARG62      -0.1245
      2  CA       -49.3510   31.1640    1.1830 C.3    62  ARG62       0.1563
      3  C        -48.5830   30.2970    2.1760 C.2    62  ARG62       0.2260
      4  O        -47.4010   30.0400    1.9770 O.2    62  ARG62      -0.2867
      5  CB       -49.6010   30.4130   -0.1190 C.3    62  ARG62       0.0307
      6  CG       -50.5690   29.2660    0.0180 C.3    62  ARG62       0.0489
      7  CD       -50.6890   28.4250   -1.2490 C.3    62  ARG62       0.2205
      8  NE       -51.6250   27.3220   -1.0310 N.pl3  62  ARG62      -0.0865
      9  CZ       -51.8480   26.3170   -1.8800 C.cat  62  ARG62       0.5346
     10  NH1      -51.1910   26.2450   -3.0330 N.pl3  62  ARG62       0.1354
     11  NH2      -52.7370   25.3720   -1.5710 N.pl3  62  ARG62       0.1354
     12  N        -50.3040   27.4450    4.1540 N.3    64  ASP64      -0.1239
     13  CA       -50.8720   26.1220    4.4590 C.3    64  ASP64       0.1674
     14  C        -49.9660   24.9520    4.0340 C.2    64  ASP64       0.2266
     15  O        -49.0860   25.1120    3.1830 O.2    64  ASP64      -0.2867
     16  CB       -52.2500   25.9510    3.8220 C.3    64  ASP64       0.1410
     17  CG       -52.2440   26.1920    2.3270 C.2    64  ASP64       0.3668
     18  OD1      -51.4630   27.0460    1.8660 O.co2  64  ASP64      -0.2456
     19  OD2      -53.0410   25.5410    1.6110 O.co2  64  ASP64      -0.2456
     20  N        -56.5000   18.5200   -2.7680 N.3   105  HIS105     -0.1241
     21  CA       -55.5860   18.1280   -1.7170 C.3   105  HIS105      0.1621
     22  C        -56.1740   18.4650   -0.3530 C.2   105  HIS105      0.2264
     23  O        -57.0330   19.3610   -0.2390 O.2   105  HIS105     -0.2867
     24  CB       -54.2210   18.7960   -1.9210 C.3   105  HIS105      0.0745
     25  CG       -54.2540   20.2910   -1.9170 C.ar  105  HIS105      0.0817
     26  ND1      -54.4320   21.0390   -0.7640 N.ar  105  HIS105     -0.2268
     27  CD2      -54.0920   21.1920   -2.9150 C.ar  105  HIS105      0.1154
     28  CE1      -54.4040   22.3190   -1.0640 C.ar  105  HIS105      0.1986
     29  NE2      -54.1960   22.4430   -2.3670 N.ar  105  HIS105     -0.2212
     30  N        -53.8150   24.7700    7.5890 N.3   109  TYR109     -0.1241
     31  CA       -53.1810   26.0280    7.9700 C.3   109  TYR109      0.1605
     32  C        -52.8440   25.9460    9.4240 C.2   109  TYR109      0.2264
     33  O        -53.7430   25.8270   10.2590 O.2   109  TYR109     -0.2867
     34  CB       -54.1230   27.2120    7.7800 C.3   109  TYR109      0.0534
     35  CG       -54.4260   27.5260    6.3580 C.ar  109  TYR109     -0.0201
     36  CD1      -53.8270   28.6060    5.7260 C.ar  109  TYR109     -0.0009
     37  CD2      -55.3080   26.7330    5.6310 C.ar  109  TYR109     -0.0009
     38  CE1      -54.1080   28.8900    4.3940 C.ar  109  TYR109      0.0417
     39  CE2      -55.5850   27.0030    4.3190 C.ar  109  TYR109      0.0417
     40  CZ       -54.9850   28.0760    3.7000 C.ar  109  TYR109      0.1957
     41  OH       -55.2890   28.3200    2.3860 O.3   109  TYR109     -0.2866
     42  N        -53.4840   32.9820    3.3910 N.3   115  TYR115     -0.1241
     43  CA       -53.3040   32.8990    1.9500 C.3   115  TYR115      0.1605
     44  C        -53.7780   34.2100    1.4130 C.2   115  TYR115      0.2264
     45  O        -54.9810   34.4780    1.4230 O.2   115  TYR115     -0.2867
     46  CB       -54.1530   31.7950    1.3410 C.3   115  TYR115      0.0534
     47  CG       -53.7370   31.3840   -0.0650 C.ar  115  TYR115     -0.0201
     48  CD1      -52.9680   32.2320   -0.8910 C.ar  115  TYR115     -0.0009
     49  CD2      -54.1060   30.1310   -0.5660 C.ar  115  TYR115     -0.0009
     50  CE1      -52.5870   31.8370   -2.1670 C.ar  115  TYR115      0.0417
     51  CE2      -53.7340   29.7280   -1.8290 C.ar  115  TYR115      0.0417
     52  CZ       -52.9710   30.5810   -2.6230 C.ar  115  TYR115      0.1957
     53  OH       -52.6210   30.1380   -3.8730 O.3   115  TYR115     -0.2866
     54  N        -55.8940   36.3120   -4.1440 N.3   118  HIS118     -0.1241
     55  CA       -55.4860   35.6440   -5.3840 C.3   118  HIS118      0.1621
     56  C        -56.6790   35.1380   -6.2260 C.2   118  HIS118      0.2264
     57  O        -57.8050   35.0360   -5.7320 O.2   118  HIS118     -0.2867
     58  CB       -54.5450   34.4780   -5.0620 C.3   118  HIS118      0.0745
     59  CG       -55.1950   33.3510   -4.3080 C.ar  118  HIS118      0.0817
     60  ND1      -55.3270   33.3420   -2.9310 N.ar  118  HIS118     -0.2268
     61  CD2      -55.7120   32.1770   -4.7410 C.ar  118  HIS118      0.1154
     62  CE1      -55.9120   32.2170   -2.5560 C.ar  118  HIS118      0.1986
     63  NE2      -56.1650   31.4930   -3.6300 N.ar  118  HIS118     -0.2212
     64  N        -57.7230   31.6410   -8.4180 N.3   120  ASP120     -0.1239
     65  CA       -57.2660   30.2610   -8.5050 C.3   120  ASP120      0.1674
     66  C        -56.7300   29.9230   -9.8960 C.2   120  ASP120      0.2266
     67  O        -55.8870   29.0470  -10.0310 O.2   120  ASP120     -0.2867
     68  CB       -58.3600   29.2960   -8.1140 C.3   120  ASP120      0.1410
     69  CG       -58.6420   29.3110   -6.6250 C.2   120  ASP120      0.3668
     70  OD1      -57.8260   29.8670   -5.8360 O.co2 120  ASP120     -0.2456
     71  OD2      -59.7020   28.7600   -6.2480 O.co2 120  ASP120     -0.2456
     72  N        -64.1770   24.0220   -2.1620 N.3   133  VAL133     -0.1245
     73  CA       -63.5180   23.8990   -0.8690 C.3   133  VAL133      0.1561
     74  C        -64.4760   23.2780    0.1310 C.2   133  VAL133      0.2260
     75  O        -65.5830   23.7680    0.2990 O.2   133  VAL133     -0.2867
     76  CB       -63.1200   25.2690   -0.3090 C.3   133  VAL133      0.0252
     77  CG1      -62.2680   25.0910    0.9070 C.3   133  VAL133      0.0019
     78  CG2      -62.3730   26.0510   -1.3280 C.3   133  VAL133      0.0019
     79  N        -64.7780   22.3830    4.1790 N.3   135  TYR135     -0.1241
     80  CA       -64.1480   22.5470    5.4980 C.3   135  TYR135      0.1605
     81  C        -64.4440   21.3680    6.4430 C.2   135  TYR135      0.2264
     82  O        -65.4160   20.6370    6.2500 O.2   135  TYR135     -0.2867
     83  CB       -64.5640   23.8760    6.1290 C.3   135  TYR135      0.0534
     84  CG       -64.2500   25.0390    5.2320 C.ar  135  TYR135     -0.0201
     85  CD1      -62.9420   25.4530    5.0450 C.ar  135  TYR135     -0.0009
     86  CD2      -65.2560   25.7050    4.5410 C.ar  135  TYR135     -0.0009
     87  CE1      -62.6340   26.5050    4.2090 C.ar  135  TYR135      0.0417
     88  CE2      -64.9580   26.7660    3.7000 C.ar  135  TYR135      0.0417
     89  CZ       -63.6380   27.1620    3.5350 C.ar  135  TYR135      0.1957
     90  OH       -63.3180   28.2200    2.7000 O.3   135  TYR135     -0.2866
     91  N        -62.5500   32.3290    4.8600 N.3   148  LEU148     -0.1245
     92  CA       -62.3560   32.6380    3.4560 C.3   148  LEU148      0.1561
     93  C        -63.0750   33.9480    3.2410 C.2   148  LEU148      0.2260
     94  O        -64.1820   34.1210    3.7320 O.2   148  LEU148     -0.2867
     95  CB       -62.9910   31.5680    2.5630 C.3   148  LEU148      0.0270
     96  CG       -63.1260   31.9360    1.0860 C.3   148  LEU148      0.0019
     97  CD1      -61.7900   31.9020    0.3520 C.3   148  LEU148      0.0001
     98  CD2      -64.1000   30.9940    0.4540 C.3   148  LEU148      0.0001
     99  N        -66.9120   28.1300   -6.5150 N.3   170  PHE170     -0.1241
    100  CA       -66.9260   29.3600   -7.3010 C.3   170  PHE170      0.1605
    101  C        -66.1580   29.2730   -8.6100 C.2   170  PHE170      0.2264
    102  O        -65.3710   28.3300   -8.8290 O.2   170  PHE170     -0.2867
    103  CB       -66.4380   30.5500   -6.4760 C.3   170  PHE170      0.0534
    104  CG       -65.0750   30.3650   -5.8700 C.ar  170  PHE170     -0.0203
    105  CD1      -64.9280   29.8440   -4.5800 C.ar  170  PHE170     -0.0042
    106  CD2      -63.9290   30.7390   -6.5760 C.ar  170  PHE170     -0.0042
    107  CE1      -63.6490   29.6940   -4.0100 C.ar  170  PHE170     -0.0003
    108  CE2      -62.6430   30.5820   -6.0070 C.ar  170  PHE170     -0.0003
    109  CZ       -62.5090   30.0700   -4.7300 C.ar  170  PHE170     -0.0000
    110  N        -60.1760   35.8420   -3.8990 N.3   177  HIS177     -0.1241
    111  CA       -60.4960   35.5150   -2.5140 C.3   177  HIS177      0.1621
    112  C        -59.1960   35.3790   -1.7220 C.2   177  HIS177      0.2264
    113  O        -58.1300   35.3770   -2.3210 O.2   177  HIS177     -0.2867
    114  CB       -61.2640   34.2230   -2.4660 C.3   177  HIS177      0.0745
    115  CG       -60.5520   33.1000   -3.1430 C.ar  177  HIS177      0.0817
    116  ND1      -60.4750   32.9900   -4.5120 N.ar  177  HIS177     -0.2268
    117  CD2      -59.8630   32.0470   -2.6370 C.ar  177  HIS177      0.1154
    118  CE1      -59.7730   31.9160   -4.8260 C.ar  177  HIS177      0.1986
    119  NE2      -59.3790   31.3330   -3.7130 N.ar  177  HIS177     -0.2212
    120  N        -57.5760   33.8450    2.4510 N.3   179  VAL179     -0.1245
    121  CA       -57.8620   33.1780    3.7110 C.3   179  VAL179      0.1561
    122  C        -57.1990   33.9640    4.8210 C.2   179  VAL179      0.2260
    123  O        -55.9990   34.2010    4.7680 O.2   179  VAL179     -0.2867
    124  CB       -57.3120   31.7350    3.6970 C.3   179  VAL179      0.0252
    125  CG1      -57.5220   31.0420    5.0390 C.3   179  VAL179      0.0019
    126  CG2      -57.9690   30.9430    2.5810 C.3   179  VAL179      0.0019
    127  N        -56.7400   24.6990   11.0950 N.3   186  ARG186     -0.1245
    128  CA       -57.7770   24.8680   10.1000 C.3   186  ARG186      0.1563
    129  C        -57.6300   23.8080    9.0080 C.2   186  ARG186      0.2260
    130  O        -56.7520   23.9300    8.1670 O.2   186  ARG186     -0.2867
    131  CB       -57.6450   26.2720    9.5030 C.3   186  ARG186      0.0307
    132  CG       -58.8020   26.7340    8.6280 C.3   186  ARG186      0.0489
    133  CD       -58.3910   27.9880    7.8930 C.3   186  ARG186      0.2205
    134  NE       -59.4600   28.6500    7.1340 N.pl3 186  ARG186     -0.0865
    135  CZ       -59.7730   28.3830    5.8650 C.cat 186  ARG186      0.5346
    136  NH1      -60.7210   29.0750    5.2580 N.pl3 186  ARG186      0.1354
    137  NH2      -59.1530   27.4160    5.1950 N.pl3 186  ARG186      0.1354
    138  N        -59.0720   21.4800    5.6720 N.3   188  SER188     -0.1217
    139  CA       -59.9530   21.6290    4.5270 C.3   188  SER188      0.1889
    140  C        -59.5760   20.6870    3.3840 C.2   188  SER188      0.2288
    141  O        -58.5460   20.0220    3.4250 O.2   188  SER188     -0.2866
    142  CB       -59.9050   23.0620    4.0330 C.3   188  SER188      0.2089
    143  OG       -58.5940   23.3620    3.5930 O.3   188  SER188     -0.2183
    144  N        -59.4390   21.2660   -0.6050 N.3   190  THR190     -0.1218
    145  CA       -59.5440   22.2110   -1.6940 C.3   190  THR190      0.1862
    146  C        -59.2080   21.5360   -2.9980 C.2   190  THR190      0.2287
    147  O        -58.3070   20.6830   -3.0570 O.2   190  THR190     -0.2866
    148  CB       -58.5320   23.3470   -1.5290 C.3   190  THR190      0.1770
    149  OG1      -58.4210   23.6990   -0.1460 O.3   190  THR190     -0.2211
    150  CG2      -58.9720   24.5570   -2.3320 C.3   190  THR190      0.0375
    151  N        -59.9680   21.8610   -7.7200 N.3   192  TRP192     -0.1241
    152  CA       -60.3190   22.6060   -8.9090 C.3   192  TRP192      0.1605
    153  C        -60.7900   21.6410   -9.9570 C.2   192  TRP192      0.2264
    154  O        -60.1730   20.6010  -10.1810 O.2   192  TRP192     -0.2867
    155  CB       -59.1020   23.4080   -9.3860 C.3   192  TRP192      0.0550
    156  CG       -58.6810   24.3280   -8.2970 C.ar  192  TRP192      0.0003
    157  CD1      -59.2490   25.5330   -7.9740 C.ar  192  TRP192      0.0946
    158  CD2      -57.6700   24.1020   -7.3070 C.ar  192  TRP192      0.0152
    159  NE1      -58.6320   26.0740   -6.8720 N.ar  192  TRP192     -0.2442
    160  CE2      -57.6660   25.2020   -6.4430 C.ar  192  TRP192      0.0810
    161  CE3      -56.7700   23.0580   -7.0970 C.ar  192  TRP192      0.0012
    162  CZ2      -56.7830   25.3110   -5.3740 C.ar  192  TRP192      0.0191
    163  CZ3      -55.8950   23.1680   -6.0360 C.ar  192  TRP192      0.0001
    164  CH2      -55.9030   24.2760   -5.1890 C.ar  192  TRP192      0.0015
@<TRIPOS>BOND
     1   154   153    2
     2    67    66    2
     3   153   152    1
     4    66    65    1
     5   155   152    1
     6   155   156    1
     7   152   151    1
     8   102   101    2
     9   101   100    1
    10    65    64    1
    11    65    68    1
    12   156   157   ar
    13   156   158   ar
    14    68    69    1
    15   157   159   ar
    16   158   161   ar
    17   158   160   ar
    18   100    99    1
    19   100   103    1
    20   161   163   ar
    21   159   160   ar
    22    69    71   ar
    23    69    70   ar
    24   106   108   ar
    25   106   104   ar
    26   103   104    1
    27   160   162   ar
    28    56    57    2
    29    56    55    1
    30   163   164   ar
    31   108   109   ar
    32   104   105   ar
    33    55    58    1
    34    55    54    1
    35   162   164   ar
    36    58    59    1
    37   118   116   ar
    38   118   119   ar
    39    61    59   ar
    40    61    63   ar
    41   109   107   ar
    42   105   107   ar
    43   116   115   ar
    44    59    60   ar
    45   110   111    1
    46    53    52    1
    47   119   117   ar
    48    63    62   ar
    49   115   117   ar
    50   115   114    1
    51   147   146    2
    52    10     9    1
    53   146   145    1
    54    60    62   ar
    55    27    29   ar
    56    27    25   ar
    57    20    21    1
    58    52    50   ar
    59    52    51   ar
    60   111   114    1
    61   111   112    1
    62    29    28   ar
    63   150   148    1
    64   113   112    2
    65    50    48   ar
    66    72    73    1
    67    24    25    1
    68    24    21    1
    69    25    26   ar
    70     9    11    1
    71     9     8    2
    72    51    49   ar
    73    21    22    1
    74   145   148    1
    75   145   144    1
    76   148   149    1
    77    78    76    1
    78     7     8    1
    79     7     6    1
    80    28    26   ar
    81    48    47   ar
    82    73    76    1
    83    73    74    1
    84    49    47   ar
    85    22    23    2
    86    76    77    1
    87     5     6    1
    88     5     2    1
    89    47    46    1
    90    74    75    2
    91    97    96    1
    92    98    96    1
    93     1     2    1
    94    96    95    1
    95     2     3    1
    96    46    43    1
    97    44    45    2
    98    44    43    1
    99    19    17   ar
   100    18    17   ar
   101    43    42    1
   102     4     3    2
   103    17    16    1
   104    41    40    1
   105   120   121    1
   106    95    92    1
   107   126   124    1
   108    90    89    1
   109    15    14    2
   110    93    92    1
   111    93    94    2
   112   140   141    2
   113   140   139    1
   114    92    91    1
   115    89    88   ar
   116    89    87   ar
   117   143   142    1
   118   124   121    1
   119   124   125    1
   120    40    39   ar
   121    40    38   ar
   122    88    86   ar
   123   121   122    1
   124    16    13    1
   125   142   139    1
   126    14    13    1
   127    12    13    1
   128    79    80    1
   129    87    85   ar
   130    39    37   ar
   131    38    36   ar
   132   139   138    1
   133    86    84   ar
   134   123   122    2
   135    85    84   ar
   136   137   135    1
   137    84    83    1
   138   136   135    1
   139    80    83    1
   140    80    81    1
   141    37    35   ar
   142    36    35   ar
   143   135   134    2
   144    82    81    2
   145    35    34    1
   146   134   133    1
   147    30    31    1
   148    34    31    1
   149   133   132    1
   150    31    32    1
   151   130   129    2
   152   132   131    1
   153   129   128    1
   154    32    33    2
   155   131   128    1
   156   128   127    1
