@<TRIPOS>MOLECULE
tmp/4iwdA00.pdb
 192 187 0 0 0
SMALL
GASTEIGER

@<TRIPOS>ATOM
      1  N          0.4060   -9.5750  -11.4220 N.3    37  ILE37      -0.1231
      2  CA         0.0630   -9.1170  -12.7660 C.3    37  ILE37       0.1692
      3  C         -0.2600   -7.6140  -12.8680 C.2    37  ILE37       0.2593
      4  O         -0.3620   -7.0750  -13.9640 O.2    37  ILE37      -0.2718
      5  CB        -0.9890  -10.0280  -13.4600 C.3    37  ILE37       0.0266
      6  CG1       -2.3680   -9.9870  -12.7720 C.3    37  ILE37       0.0019
      7  CG2       -0.4430  -11.4540  -13.6040 C.3    37  ILE37       0.0020
      8  CD1       -3.4910  -10.8570  -13.4380 C.3    37  ILE37       0.0001
      9  N         -0.4160   -6.9600  -11.7400 N.am   38  GLY38      -0.1942
     10  CA        -0.7220   -5.5340  -11.7120 C.3    38  GLY38       0.2014
     11  C         -1.0050   -5.0590  -10.3110 C.2    38  GLY38       0.2639
     12  O         -0.6370   -5.7230   -9.3320 O.2    38  GLY38      -0.2714
     13  N         -1.6720   -3.8960  -10.2050 N.am   39  ARG39      -0.1963
     14  CA        -2.0470   -3.3250   -8.9170 C.3    39  ARG39       0.1729
     15  C         -3.2530   -2.4500   -9.0800 C.2    39  ARG39       0.2617
     16  O         -3.5200   -1.9850  -10.1700 O.2    39  ARG39      -0.2715
     17  CB        -0.8760   -2.5630   -8.2660 C.3    39  ARG39       0.0348
     18  CG        -0.4770   -1.2810   -8.9690 C.3    39  ARG39       0.0492
     19  CD        -0.3120   -0.1760   -7.9560 C.3    39  ARG39       0.2205
     20  NE         0.9380    0.5580   -8.1500 N.pl3  39  ARG39      -0.0865
     21  CZ         1.2020    1.7440   -7.6100 C.cat  39  ARG39       0.5346
     22  NH1        0.3010    2.3490   -6.8440 N.pl3  39  ARG39       0.1354
     23  NH2        2.3650    2.3380   -7.8390 N.pl3  39  ARG39       0.1354
     24  N         -3.9900   -2.2720   -8.0070 N.am   40  GLY40      -0.1940
     25  CA        -5.1650   -1.4070   -7.9360 C.3    40  GLY40       0.2014
     26  C         -4.8980   -0.3780   -6.8670 C.2    40  GLY40       0.2638
     27  O         -3.7550   -0.2640   -6.4040 O.2    40  GLY40      -0.2714
     28  N         -5.9300    0.3550   -6.4390 N.am   41  HIS41      -0.1973
     29  CA        -5.7560    1.3680   -5.3950 C.3    41  HIS41       0.1656
     30  C         -5.5420    0.7780   -3.9970 C.2    41  HIS41       0.2291
     31  O         -5.0710    1.4830   -3.1090 O.2    41  HIS41      -0.2864
     32  CB        -6.9760    2.3040   -5.3480 C.3    41  HIS41       0.0771
     33  CG        -6.9610    3.3450   -6.4180 C.ar   41  HIS41       0.0820
     34  ND1       -6.0740    4.4010   -6.3730 N.ar   41  HIS41      -0.2267
     35  CD2       -7.7300    3.4600   -7.5240 C.ar   41  HIS41       0.1154
     36  CE1       -6.3240    5.1240   -7.4560 C.ar   41  HIS41       0.1986
     37  NE2       -7.3120    4.5930   -8.1820 N.ar   41  HIS41      -0.2212
     38  N         -2.4560   -7.3080   -7.8210 N.3    45  VAL45      -0.1245
     39  CA        -3.3190   -8.1700   -8.6150 C.3    45  VAL45       0.1561
     40  C         -2.4880   -9.3800   -8.9720 C.2    45  VAL45       0.2260
     41  O         -1.3230   -9.2460   -9.3770 O.2    45  VAL45      -0.2867
     42  CB        -3.9230   -7.5060   -9.8930 C.3    45  VAL45       0.0252
     43  CG1       -5.0270   -8.3850  -10.4680 C.3    45  VAL45       0.0019
     44  CG2       -4.4690   -6.1030   -9.5950 C.3    45  VAL45       0.0019
     45  N         -2.4830  -13.5860  -10.8530 N.3    47  HIS47      -0.1241
     46  CA        -3.0650  -14.5620  -11.7630 C.3    47  HIS47       0.1621
     47  C         -3.8740  -15.4610  -10.8130 C.2    47  HIS47       0.2264
     48  O         -3.5050  -15.6420   -9.6420 O.2    47  HIS47      -0.2867
     49  CB        -1.9810  -15.4890  -12.3840 C.3    47  HIS47       0.0745
     50  CG        -1.3300  -15.0130  -13.6510 C.ar   47  HIS47       0.0817
     51  ND1       -2.0260  -14.9530  -14.8470 N.ar   47  HIS47      -0.2268
     52  CD2       -0.0350  -14.6770  -13.8830 C.ar   47  HIS47       0.1154
     53  CE1       -1.1470  -14.5540  -15.7560 C.ar   47  HIS47       0.1986
     54  NE2        0.0640  -14.3700  -15.2170 N.ar   47  HIS47      -0.2212
     55  N         -8.1790  -12.7540  -12.7810 N.3    61  ALA61      -0.1245
     56  CA        -7.2920  -11.7960  -12.1130 C.3    61  ALA61       0.1562
     57  C         -7.8570  -11.6470  -10.6810 C.2    61  ALA61       0.2260
     58  O         -9.0720  -11.5630  -10.5070 O.2    61  ALA61      -0.2867
     59  CB        -7.3040  -10.4580  -12.8280 C.3    61  ALA61       0.0290
     60  N         -7.6080   -9.4840   -7.0960 N.3    63  LYS63      -0.1245
     61  CA        -7.1500   -8.3120   -6.3480 C.3    63  LYS63       0.1561
     62  C         -7.2130   -8.6640   -4.8530 C.2    63  LYS63       0.2260
     63  O         -8.1630   -9.3080   -4.4110 O.2    63  LYS63      -0.2867
     64  CB        -8.0780   -7.1160   -6.5900 C.3    63  LYS63       0.0271
     65  CG        -7.8710   -6.4240   -7.9120 C.3    63  LYS63       0.0035
     66  CD        -8.8320   -5.2660   -8.0510 C.3    63  LYS63       0.0206
     67  CE        -8.2710   -4.2160   -8.9800 C.3    63  LYS63       0.1093
     68  NZ        -9.2420   -3.1330   -9.2150 N.3    63  LYS63      -0.1314
     69  N        -15.3820   -4.0460  -17.6290 N.3    93  LEU93      -0.1245
     70  CA       -14.9790   -5.3150  -17.0320 C.3    93  LEU93       0.1561
     71  C        -16.0480   -5.8410  -16.0610 C.2    93  LEU93       0.2260
     72  O        -16.5590   -5.0840  -15.2480 O.2    93  LEU93      -0.2867
     73  CB       -13.6430   -5.1310  -16.2920 C.3    93  LEU93       0.0270
     74  CG       -12.9180   -6.4170  -15.8640 C.3    93  LEU93       0.0019
     75  CD1      -12.6440   -7.3370  -17.0550 C.3    93  LEU93       0.0001
     76  CD2      -11.6360   -6.0870  -15.1440 C.3    93  LEU93       0.0001
     77  N        -11.8140  -11.1520  -10.9600 N.3   110  LEU110     -0.1231
     78  CA       -12.1680  -10.5460  -12.2470 C.3   110  LEU110      0.1678
     79  C        -11.7320  -11.3840  -13.4300 C.2   110  LEU110      0.2434
     80  O        -10.7730  -12.1350  -13.2970 O.2   110  LEU110     -0.2733
     81  CB       -11.4530   -9.1700  -12.3620 C.3   110  LEU110      0.0284
     82  CG       -11.6680   -8.1850  -11.1920 C.3   110  LEU110      0.0019
     83  CD1      -10.5690   -7.1600  -11.1020 C.3   110  LEU110      0.0001
     84  CD2      -13.0320   -7.5760  -11.2190 C.3   110  LEU110      0.0001
     85  N        -12.3390  -11.2130  -14.6320 N.am  111  PRO111     -0.2718
     86  CA       -11.8480  -11.9430  -15.8030 C.3   111  PRO111      0.1535
     87  C        -10.4180  -11.5000  -16.1280 C.2   111  PRO111      0.2599
     88  O        -10.0300  -10.3360  -15.8870 O.2   111  PRO111     -0.2715
     89  CB       -12.8150  -11.4900  -16.9250 C.3   111  PRO111      0.0310
     90  CG       -14.0670  -11.0420  -16.2030 C.3   111  PRO111      0.0237
     91  CD       -13.4920  -10.3540  -14.9910 C.3   111  PRO111      0.0939
     92  N         -9.6220  -12.4390  -16.6450 N.am  112  TYR112     -0.1960
     93  CA        -8.2400  -12.1630  -17.0280 C.3   112  TYR112      0.1771
     94  C         -8.2340  -11.4520  -18.3860 C.2   112  TYR112      0.2619
     95  O         -8.8940  -11.9010  -19.3260 O.2   112  TYR112     -0.2715
     96  CB        -7.4570  -13.4640  -17.1230 C.3   112  TYR112      0.0574
     97  CG        -6.0130  -13.2660  -17.5020 C.ar  112  TYR112     -0.0198
     98  CD1       -5.5570  -13.5800  -18.7840 C.ar  112  TYR112     -0.0009
     99  CD2       -5.0890  -12.7870  -16.5790 C.ar  112  TYR112     -0.0009
    100  CE1       -4.2210  -13.3990  -19.1440 C.ar  112  TYR112      0.0417
    101  CE2       -3.7430  -12.6240  -16.9250 C.ar  112  TYR112      0.0417
    102  CZ        -3.3190  -12.9310  -18.2070 C.ar  112  TYR112      0.1957
    103  OH        -1.9940  -12.7830  -18.5460 O.3   112  TYR112     -0.2866
    104  N         -7.4680  -10.3610  -18.4870 N.am  113  MET113     -0.1963
    105  CA        -7.3720   -9.5490  -19.7020 C.3   113  MET113      0.1736
    106  C         -6.0160   -9.7850  -20.3610 C.2   113  MET113      0.2616
    107  O         -5.0030   -9.2220  -19.9480 O.2   113  MET113     -0.2715
    108  CB        -7.6320   -8.0830  -19.3400 C.3   113  MET113      0.0427
    109  CG        -9.0100   -7.8950  -18.7280 C.3   113  MET113      0.0599
    110  SD       -10.2380   -7.7710  -20.0390 S.3   113  MET113     -0.1393
    111  CE       -11.1740   -9.2630  -19.7970 C.3   113  MET113      0.0692
    112  N         -6.0180  -10.6730  -21.3650 N.am  114  LYS114     -0.1963
    113  CA        -4.8390  -11.1550  -22.0900 C.3   114  LYS114      0.1728
    114  C         -3.7400  -10.1310  -22.3580 C.2   114  LYS114      0.2616
    115  O         -2.5790  -10.3680  -21.9910 O.2   114  LYS114     -0.2715
    116  CB        -5.2300  -11.9190  -23.3720 C.3   114  LYS114      0.0311
    117  CG        -4.0260  -12.6710  -23.9580 C.3   114  LYS114      0.0038
    118  CD        -4.2300  -13.1440  -25.3640 C.3   114  LYS114      0.0206
    119  CE        -2.8960  -13.6380  -25.8990 C.3   114  LYS114      0.1093
    120  NZ        -2.9640  -13.9760  -27.3260 N.3   114  LYS114     -0.1314
    121  N         -4.1030   -8.9920  -22.9830 N.am  115  HIS115     -0.1959
    122  CA        -3.1020   -7.9770  -23.3420 C.3   115  HIS115      0.1787
    123  C         -2.7040   -6.9510  -22.2940 C.2   115  HIS115      0.2621
    124  O         -1.7970   -6.1310  -22.5350 O.2   115  HIS115     -0.2715
    125  CB        -3.4230   -7.3460  -24.7080 C.3   115  HIS115      0.0785
    126  CG        -3.4820   -8.3920  -25.7720 C.ar  115  HIS115      0.0821
    127  ND1       -2.3450   -9.1070  -26.1510 N.ar  115  HIS115     -0.2267
    128  CD2       -4.5480   -8.8660  -26.4490 C.ar  115  HIS115      0.1154
    129  CE1       -2.7640   -9.9810  -27.0470 C.ar  115  HIS115      0.1986
    130  NE2       -4.0800   -9.8640  -27.2680 N.ar  115  HIS115     -0.2212
    131  N         -3.3260   -7.0360  -21.1230 N.am  116  GLY116     -0.1940
    132  CA        -3.0260   -6.1280  -20.0220 C.3   116  GLY116      0.2014
    133  C         -3.5770   -4.7420  -20.2300 C.2   116  GLY116      0.2638
    134  O         -4.4980   -4.5350  -21.0340 O.2   116  GLY116     -0.2714
    135  N         -3.0480   -3.7930  -19.4520 N.am  117  ASP117     -0.1971
    136  CA        -3.4750   -2.3980  -19.4690 C.3   117  ASP117      0.1709
    137  C         -3.2750   -1.6610  -20.7740 C.2   117  ASP117      0.2293
    138  O         -2.2620   -1.8420  -21.4480 O.2   117  ASP117     -0.2864
    139  CB        -2.9600   -1.6100  -18.2590 C.3   117  ASP117      0.1436
    140  CG        -1.5630   -1.0670  -18.4080 C.2   117  ASP117      0.3671
    141  OD1       -0.6010   -1.8210  -18.1310 O.co2 117  ASP117     -0.2456
    142  OD2       -1.4270    0.1160  -18.8270 O.co2 117  ASP117     -0.2456
    143  N          3.6380   -3.7080  -30.5510 N.3   127  HIS127     -0.1241
    144  CA         2.2160   -3.4090  -30.7690 C.3   127  HIS127      0.1621
    145  C          1.9960   -2.3170  -31.8210 C.2   127  HIS127      0.2264
    146  O          1.1820   -2.4930  -32.7210 O.2   127  HIS127     -0.2867
    147  CB         1.5470   -3.0030  -29.4310 C.3   127  HIS127      0.0745
    148  CG         1.7510   -3.9690  -28.2960 C.ar  127  HIS127      0.0817
    149  ND1        1.2390   -3.7140  -27.0440 N.ar  127  HIS127     -0.2268
    150  CD2        2.4050   -5.1560  -28.2610 C.ar  127  HIS127      0.1154
    151  CE1        1.5820   -4.7450  -26.2930 C.ar  127  HIS127      0.1986
    152  NE2        2.2860   -5.6370  -26.9830 N.ar  127  HIS127     -0.2212
    153  N         -4.4900    3.8820  -18.0250 N.3   161  ARG161     -0.1231
    154  CA        -3.8900    2.9870  -17.0000 C.3   161  ARG161      0.1694
    155  C         -4.9770    2.0400  -16.4260 C.2   161  ARG161      0.2592
    156  O         -4.6830    0.9110  -16.0230 O.2   161  ARG161     -0.2718
    157  CB        -3.3920    3.9250  -15.8550 C.3   161  ARG161      0.0321
    158  CG        -2.6720    3.3390  -14.6750 C.3   161  ARG161      0.0489
    159  CD        -2.2720    4.4480  -13.7200 C.3   161  ARG161      0.2205
    160  NE        -3.3620    4.8670  -12.8270 N.pl3 161  ARG161     -0.0865
    161  CZ        -3.1900    5.3370  -11.5920 C.cat 161  ARG161      0.5346
    162  NH1       -1.9680    5.4600  -11.0840 N.pl3 161  ARG161      0.1354
    163  NH2       -4.2390    5.6820  -10.8530 N.pl3 161  ARG161      0.1354
    164  N         -6.2190    2.5480  -16.3630 N.am  162  ASN162     -0.1974
    165  CA        -7.4160    1.9040  -15.8000 C.3   162  ASN162      0.1688
    166  C         -8.3040    1.1460  -16.7670 C.2   162  ASN162      0.2292
    167  O         -9.4000    0.7010  -16.4010 O.2   162  ASN162     -0.2864
    168  CB        -8.1930    2.9130  -14.9070 C.3   162  ASN162      0.1181
    169  CG        -7.3690    3.3450  -13.7150 C.2   162  ASN162      0.2629
    170  OD1       -6.5500    2.5800  -13.1890 O.2   162  ASN162     -0.2716
    171  ND2       -7.5240    4.5880  -13.2800 N.am  162  ASN162     -0.0877
    172  N         -8.2720   -2.1140  -19.7460 N.3   164  MET164     -0.1245
    173  CA        -7.6090   -3.3610  -20.1220 C.3   164  MET164      0.1570
    174  C         -7.9930   -3.8080  -21.5340 C.2   164  MET164      0.2261
    175  O         -9.0470   -3.4050  -22.0270 O.2   164  MET164     -0.2867
    176  CB        -8.0200   -4.4620  -19.1290 C.3   164  MET164      0.0387
    177  CG        -7.4710   -4.2750  -17.7060 C.3   164  MET164      0.0595
    178  SD        -5.7490   -4.7660  -17.6460 S.3   164  MET164     -0.1393
    179  CE        -5.2160   -3.8650  -16.3450 C.3   164  MET164      0.0692
    180  N        -11.6150   -0.9990  -16.6380 N.3   174  ALA174     -0.1231
    181  CA       -11.2960   -2.0540  -15.6800 C.3   174  ALA174      0.1694
    182  C        -11.1750   -1.7810  -14.2090 C.2   174  ALA174      0.2592
    183  O        -11.4730   -2.7000  -13.4380 O.2   174  ALA174     -0.2718
    184  CB       -10.0610   -2.8240  -16.1640 C.3   174  ALA174      0.0304
    185  N        -10.7060   -0.5830  -13.8050 N.am  175  ASP175     -0.1974
    186  CA       -10.5770   -0.2750  -12.3760 C.3   175  ASP175      0.1709
    187  C        -11.7160    0.5860  -11.9210 C.2   175  ASP175      0.2293
    188  O        -12.0250    1.5690  -12.5800 O.2   175  ASP175     -0.2864
    189  CB        -9.2470    0.4110  -12.0320 C.3   175  ASP175      0.1436
    190  CG        -8.9630    0.4080  -10.5390 C.2   175  ASP175      0.3671
    191  OD1       -8.4320   -0.6020  -10.0380 O.co2 175  ASP175     -0.2456
    192  OD2       -9.3000    1.3890   -9.8750 O.co2 175  ASP175     -0.2456
@<TRIPOS>BOND
     1   146   145    2
     2   145   144    1
     3   144   143    1
     4   144   147    1
     5   147   148    1
     6   148   150   ar
     7   148   149   ar
     8   150   152   ar
     9   120   119    1
    10   130   129   ar
    11   130   128   ar
    12   129   127   ar
    13   149   151   ar
    14   152   151   ar
    15   128   126   ar
    16   127   126   ar
    17   119   118    1
    18   126   125    1
    19   118   117    1
    20   125   122    1
    21   117   116    1
    22   116   113    1
    23   122   121    1
    24   122   123    1
    25   121   114   am
    26   124   123    2
    27   114   113    1
    28   114   115    2
    29   123   131   am
    30   113   112    1
    31   175   174    2
    32   174   173    1
    33   138   137    2
    34   112   106   am
    35   131   132    1
    36   134   133    2
    37   137   136    1
    38   106   107    2
    39   106   105    1
    40   133   132    1
    41   133   135   am
    42   173   172    1
    43   173   176    1
    44   110   111    1
    45   110   109    1
    46   105   108    1
    47   105   104    1
    48   136   135    1
    49   136   139    1
    50   108   109    1
    51    95    94    2
    52   100    98   ar
    53   100   102   ar
    54   176   177    1
    55   142   140   ar
    56    98    97   ar
    57   103   102    1
    58   104    94   am
    59   140   139    1
    60   140   141   ar
    61    94    93    1
    62   102   101   ar
    63   153   154    1
    64   177   178    1
    65   178   179    1
    66    69    70    1
    67    97    96    1
    68    97    99   ar
    69    96    93    1
    70    75    74    1
    71    70    73    1
    72    70    71    1
    73    93    92    1
    74   154   155    1
    75   154   157    1
    76    89    90    1
    77    89    86    1
    78   101    99   ar
    79   166   167    2
    80   166   165    1
    81    92    87   am
    82   180   181    1
    83   155   164   am
    84   155   156    2
    85   164   165    1
    86    73    74    1
    87    90    91    1
    88   184   181    1
    89    87    88    2
    90    87    86    1
    91    71    72    2
    92    74    76    1
    93   157   158    1
    94    86    85    1
    95   165   168    1
    96    53    54   ar
    97    53    51   ar
    98   181   182    1
    99    54    52   ar
   100    91    85    1
   101   168   169    1
   102    51    50   ar
   103   158   159    1
   104    85    79   am
   105   182   185   am
   106   182   183    2
   107     4     3    2
   108    52    50   ar
   109   185   186    1
   110   159   160    1
   111   169   171   am
   112   169   170    2
   113    50    49    1
   114     7     5    1
   115     5     6    1
   116     5     2    1
   117     8     6    1
   118    79    80    2
   119    79    78    1
   120     3     2    1
   121     3     9   am
   122    59    56    1
   123   160   161    2
   124    55    56    1
   125     2     1    1
   126   188   187    2
   127    49    46    1
   128   186   189    1
   129   186   187    1
   130    81    78    1
   131    81    82    1
   132    78    77    1
   133    56    57    1
   134   189   190    1
   135    46    45    1
   136    46    47    1
   137     9    10    1
   138    10    11    1
   139   161   162    1
   140   161   163    1
   141    84    82    1
   142    82    83    1
   143    47    48    2
   144    57    58    2
   145   190   191   ar
   146   190   192   ar
   147    43    42    1
   148    11    13   am
   149    11    12    2
   150    13    14    1
   151    16    15    2
   152    42    44    1
   153    42    39    1
   154    41    40    2
   155    68    67    1
   156    15    14    1
   157    15    24   am
   158    67    66    1
   159    40    39    1
   160    18    17    1
   161    18    19    1
   162    14    17    1
   163    39    38    1
   164    37    35   ar
   165    37    36   ar
   166    20    19    1
   167    20    21    2
   168    66    65    1
   169    24    25    1
   170    25    26    1
   171    65    64    1
   172    23    21    1
   173    21    22    1
   174    35    33   ar
   175    36    34   ar
   176    60    61    1
   177    26    28   am
   178    26    27    2
   179    64    61    1
   180    28    29    1
   181    33    34   ar
   182    33    32    1
   183    61    62    1
   184    29    32    1
   185    29    30    1
   186    62    63    2
   187    30    31    2
