@<TRIPOS>MOLECULE
tmp/4iwfB01.pdb
 178 168 0 0 0
SMALL
GASTEIGER

@<TRIPOS>ATOM
      1  N         -2.4300    7.7200  -12.2400 N.3    34  MET34      -0.1245
      2  CA        -2.3490    6.4130  -11.5920 C.3    34  MET34       0.1570
      3  C         -1.8940    5.3480  -12.5730 C.2    34  MET34       0.2261
      4  O         -1.1040    4.4690  -12.2270 O.2    34  MET34      -0.2867
      5  CB        -3.6950    6.0270  -10.9830 C.3    34  MET34       0.0387
      6  CG        -4.0250    6.7700   -9.7050 C.3    34  MET34       0.0595
      7  SD        -2.8720    6.3900   -8.3660 S.3    34  MET34      -0.1393
      8  CE        -3.1840    4.6390   -8.1320 C.3    34  MET34       0.0692
      9  N          1.8060    5.7470  -12.6590 N.3    37  LEU37      -0.1231
     10  CA         2.4840    5.2310  -11.4700 C.3    37  LEU37       0.1693
     11  C          2.5210    3.7040  -11.4360 C.2    37  LEU37       0.2592
     12  O          3.5530    3.1050  -11.1490 O.2    37  LEU37      -0.2718
     13  CB         1.8180    5.7560  -10.1940 C.3    37  LEU37       0.0284
     14  CG         1.8920    7.2600   -9.9210 C.3    37  LEU37       0.0019
     15  CD1        1.8560    7.5410   -8.4170 C.3    37  LEU37       0.0001
     16  CD2        3.1220    7.8770  -10.5600 C.3    37  LEU37       0.0001
     17  N          1.3860    3.0830  -11.7380 N.am   38  THR38      -0.1953
     18  CA         1.2740    1.6240  -11.7110 C.3    38  THR38       0.1897
     19  C          1.9430    0.9600  -12.9280 C.2    38  THR38       0.2313
     20  O          2.4430   -0.1680  -12.8390 O.2    38  THR38      -0.2863
     21  CB        -0.1990    1.1660  -11.5550 C.3    38  THR38       0.1794
     22  OG1       -0.9990    1.7160  -12.6090 O.3    38  THR38      -0.2208
     23  CG2       -0.7660    1.6250  -10.2090 C.3    38  THR38       0.0378
     24  N          4.6550    2.2630  -14.3920 N.3    40  LEU40      -0.1231
     25  CA         6.0590    2.4050  -14.0150 C.3    40  LEU40       0.1693
     26  C          6.4550    1.3520  -12.9890 C.2    40  LEU40       0.2591
     27  O          7.4970    0.7090  -13.1090 O.2    40  LEU40      -0.2718
     28  CB         6.2930    3.8070  -13.4510 C.3    40  LEU40       0.0284
     29  CG         7.7060    4.1430  -12.9970 C.3    40  LEU40       0.0019
     30  CD1        8.7050    3.8660  -14.1200 C.3    40  LEU40       0.0001
     31  CD2        7.7880    5.6030  -12.5810 C.3    40  LEU40       0.0001
     32  N          5.6210    1.1870  -11.9700 N.am   41  ALA41      -0.1980
     33  CA         5.9140    0.2450  -10.8930 C.3    41  ALA41       0.1597
     34  C          5.9960   -1.1920  -11.3980 C.2    41  ALA41       0.2287
     35  O          6.8260   -1.9830  -10.9510 O.2    41  ALA41      -0.2864
     36  CB         4.8750    0.3700   -9.7870 C.3    41  ALA41       0.0319
     37  N          9.2580   -1.6090  -13.1260 N.3    44  GLU44      -0.1245
     38  CA        10.3250   -1.5860  -12.1190 C.3    44  GLU44       0.1567
     39  C         10.4320   -2.9210  -11.3960 C.2    44  GLU44       0.2260
     40  O         11.5330   -3.3990  -11.0930 O.2    44  GLU44      -0.2867
     41  CB        10.0960   -0.4580  -11.1050 C.3    44  GLU44       0.0388
     42  CG        10.3790    0.9370  -11.6420 C.3    44  GLU44       0.1160
     43  CD        10.2360    2.0110  -10.5750 C.2    44  GLU44       0.3649
     44  OE1        9.0840    2.3420  -10.1880 O.co2  44  GLU44      -0.2457
     45  OE2       11.2800    2.5300  -10.1190 O.co2  44  GLU44      -0.2457
     46  N          8.2530   -5.3560   -1.6510 N.3    74  TRP74      -0.1227
     47  CA         8.3590   -4.7350   -2.9730 C.3    74  TRP74       0.1737
     48  C          8.0250   -3.2360   -3.0120 C.2    74  TRP74       0.2595
     49  O          8.7130   -2.4760   -3.6810 O.2    74  TRP74      -0.2718
     50  CB         7.5650   -5.5160   -4.0200 C.3    74  TRP74       0.0564
     51  CG         6.1070   -5.3420   -3.8820 C.ar   74  TRP74       0.0003
     52  CD1        5.2640   -6.0850   -3.1120 C.ar   74  TRP74       0.0946
     53  CD2        5.2980   -4.3660   -4.5430 C.ar   74  TRP74       0.0152
     54  NE1        3.9740   -5.6280   -3.2470 N.ar   74  TRP74      -0.2442
     55  CE2        3.9660   -4.5740   -4.1230 C.ar   74  TRP74       0.0810
     56  CE3        5.5670   -3.3360   -5.4470 C.ar   74  TRP74       0.0012
     57  CZ2        2.9070   -3.7870   -4.5760 C.ar   74  TRP74       0.0191
     58  CZ3        4.5180   -2.5570   -5.8980 C.ar   74  TRP74       0.0001
     59  CH2        3.2030   -2.7850   -5.4610 C.ar   74  TRP74       0.0015
     60  N          6.9850   -2.7960   -2.3020 N.am   75  LEU75      -0.1980
     61  CA         6.6130   -1.3750   -2.3560 C.3    75  LEU75       0.1596
     62  C          7.5620   -0.5370   -1.4960 C.2    75  LEU75       0.2287
     63  O          7.8620    0.6140   -1.8330 O.2    75  LEU75      -0.2864
     64  CB         5.1270   -1.1510   -1.9670 C.3    75  LEU75       0.0297
     65  CG         4.6050    0.2770   -2.2150 C.3    75  LEU75       0.0022
     66  CD1        4.7540    0.6960   -3.6950 C.3    75  LEU75       0.0001
     67  CD2        3.1470    0.4350   -1.7530 C.3    75  LEU75       0.0001
     68  N         10.5220   -0.0320   -3.8670 N.3    78  LEU78      -0.1231
     69  CA        10.2080    0.9630   -4.9010 C.3    78  LEU78       0.1693
     70  C         10.2360    2.3620   -4.2870 C.2    78  LEU78       0.2591
     71  O         10.7840    3.2920   -4.8730 O.2    78  LEU78      -0.2718
     72  CB         8.8220    0.6950   -5.5190 C.3    78  LEU78       0.0284
     73  CG         8.6690   -0.4710   -6.4990 C.3    78  LEU78       0.0019
     74  CD1        7.3030   -0.4510   -7.1900 C.3    78  LEU78       0.0001
     75  CD2        9.7640   -0.3940   -7.5610 C.3    78  LEU78       0.0001
     76  N          9.6570    2.5060   -3.0990 N.am   79  MET79      -0.1979
     77  CA         9.5640    3.8110   -2.4430 C.3    79  MET79       0.1605
     78  C         10.8970    4.3850   -1.9520 C.2    79  MET79       0.2287
     79  O         11.1220    5.5930   -2.0710 O.2    79  MET79      -0.2864
     80  CB         8.5490    3.7490   -1.2870 C.3    79  MET79       0.0413
     81  CG         7.1040    3.6900   -1.7610 C.3    79  MET79       0.0598
     82  SD         6.0050    3.6490   -0.3220 S.3    79  MET79      -0.1393
     83  CE         4.4680    4.1660   -1.1030 C.3    79  MET79       0.0692
     84  N         12.4600    5.6840   -4.9460 N.3    82  LEU82      -0.1245
     85  CA        11.8290    6.9490   -5.3330 C.3    82  LEU82       0.1561
     86  C         12.3610    8.1060   -4.4910 C.2    82  LEU82       0.2260
     87  O         12.7080    9.1710   -5.0150 O.2    82  LEU82      -0.2867
     88  CB        10.3020    6.8350   -5.2100 C.3    82  LEU82       0.0270
     89  CG         9.4800    8.1140   -5.3860 C.3    82  LEU82       0.0019
     90  CD1        9.6670    8.7170   -6.7930 C.3    82  LEU82       0.0001
     91  CD2        7.9990    7.8420   -5.0950 C.3    82  LEU82       0.0001
     92  N         16.1260    8.9540   -5.4580 N.3    85  ARG85      -0.1245
     93  CA        16.3710    9.7390   -6.6750 C.3    85  ARG85       0.1563
     94  C         15.6450   11.0950   -6.6690 C.2    85  ARG85       0.2260
     95  O         15.8710   11.9360   -7.5350 O.2    85  ARG85      -0.2867
     96  CB        16.0870    8.9250   -7.9430 C.3    85  ARG85       0.0307
     97  CG        14.7060    8.3330   -8.0190 C.3    85  ARG85       0.0489
     98  CD        14.4850    7.5680   -9.3110 C.3    85  ARG85       0.2205
     99  NE        13.0870    7.1680   -9.4190 N.pl3  85  ARG85      -0.0865
    100  CZ        12.6060    6.0170   -8.9610 C.cat  85  ARG85       0.5346
    101  NH1       13.4180    5.1360   -8.3890 N.pl3  85  ARG85       0.1354
    102  NH2       11.3170    5.7390   -9.0850 N.pl3  85  ARG85       0.1354
    103  N          9.6710   10.3620  -10.0480 N.3    95  PHE95      -0.1241
    104  CA         9.1990    9.0190  -10.3510 C.3    95  PHE95       0.1605
    105  C         10.0090    8.4930  -11.5250 C.2    95  PHE95       0.2264
    106  O         10.3560    7.3100  -11.5740 O.2    95  PHE95      -0.2867
    107  CB         7.7050    9.0310  -10.6810 C.3    95  PHE95       0.0534
    108  CG         6.8150    9.1390   -9.4690 C.ar   95  PHE95      -0.0203
    109  CD1        6.4090    7.9960   -8.7830 C.ar   95  PHE95      -0.0042
    110  CD2        6.3740   10.3800   -9.0220 C.ar   95  PHE95      -0.0042
    111  CE1        5.5850    8.0910   -7.6590 C.ar   95  PHE95      -0.0003
    112  CE2        5.5440   10.4840   -7.9010 C.ar   95  PHE95      -0.0003
    113  CZ         5.1530    9.3400   -7.2190 C.ar   95  PHE95      -0.0000
    114  N         -3.9310   10.6170   -2.2930 N.3   112  MET112     -0.1245
    115  CA        -2.5340   10.5490   -2.7320 C.3   112  MET112      0.1570
    116  C         -1.6210   11.6420   -2.1630 C.2   112  MET112      0.2261
    117  O         -0.4280   11.4110   -1.9530 O.2   112  MET112     -0.2867
    118  CB        -2.4520   10.5210   -4.2630 C.3   112  MET112      0.0387
    119  CG        -1.0340   10.3740   -4.8140 C.3   112  MET112      0.0595
    120  SD        -0.2180    8.8170   -4.3780 S.3   112  MET112     -0.1393
    121  CE        -0.9980    7.6800   -5.5290 C.3   112  MET112      0.0692
    122  N          0.3000   10.5870    0.9850 N.3   115  ILE115     -0.1231
    123  CA         1.4120    9.6900    0.6830 C.3   115  ILE115      0.1692
    124  C          2.5900   10.4700    0.0930 C.2   115  ILE115      0.2592
    125  O          3.7280   10.3150    0.5440 O.2   115  ILE115     -0.2718
    126  CB         0.9660    8.5310   -0.2400 C.3   115  ILE115      0.0266
    127  CG1       -0.1510    7.7340    0.4460 C.3   115  ILE115      0.0019
    128  CG2        2.1340    7.6140   -0.5770 C.3   115  ILE115      0.0020
    129  CD1       -0.7470    6.6200   -0.3890 C.3   115  ILE115      0.0001
    130  N          2.3220   11.3220   -0.8950 N.am  116  PHE116     -0.1976
    131  CA         3.3580   12.2010   -1.4430 C.3   116  PHE116      0.1639
    132  C          4.1060   12.9760   -0.3520 C.2   116  PHE116      0.2290
    133  O          5.3380   13.0440   -0.3720 O.2   116  PHE116     -0.2864
    134  CB         2.7440   13.1840   -2.4450 C.3   116  PHE116      0.0560
    135  CG         2.7320   12.6820   -3.8600 C.ar  116  PHE116     -0.0200
    136  CD1        2.3170   11.3870   -4.1520 C.ar  116  PHE116     -0.0042
    137  CD2        3.1290   13.5130   -4.9050 C.ar  116  PHE116     -0.0042
    138  CE1        2.3140   10.9180   -5.4710 C.ar  116  PHE116     -0.0003
    139  CE2        3.1230   13.0560   -6.2270 C.ar  116  PHE116     -0.0003
    140  CZ         2.7120   11.7590   -6.5080 C.ar  116  PHE116     -0.0000
    141  N          6.4870   10.7790    1.4580 N.3   119  LEU119     -0.1245
    142  CA         7.6070   10.5050    0.5590 C.3   119  LEU119      0.1561
    143  C          8.5420   11.7160    0.5240 C.2   119  LEU119      0.2260
    144  O          9.7700   11.5790    0.6510 O.2   119  LEU119     -0.2867
    145  CB         7.0860   10.1630   -0.8440 C.3   119  LEU119      0.0270
    146  CG         6.4740    8.7640   -0.9870 C.3   119  LEU119      0.0019
    147  CD1        5.6830    8.6110   -2.2850 C.3   119  LEU119      0.0001
    148  CD2        7.5540    7.6930   -0.9150 C.3   119  LEU119      0.0001
    149  N          0.5670    3.0100    1.1430 N.3   201  GLY201     -0.1225
    150  CA         0.5200    2.8610   -0.3020 C.3   201  GLY201      0.1811
    151  C         -0.2350    1.6100   -0.7130 C.2   201  GLY201      0.2280
    152  O         -0.9790    1.6170   -1.7050 O.2   201  GLY201     -0.2866
    153  N         -3.9100    2.1090   -0.3870 N.3   204  HIS204     -0.1226
    154  CA        -4.3630    3.0030   -1.4380 C.3   204  HIS204      0.1752
    155  C         -4.5070    2.2150   -2.7340 C.2   204  HIS204      0.2595
    156  O         -5.5870    2.1400   -3.3210 O.2   204  HIS204     -0.2718
    157  CB        -3.3760    4.1530   -1.6320 C.3   204  HIS204      0.0759
    158  CG        -3.7820    5.1060   -2.7100 C.ar  204  HIS204      0.0818
    159  ND1       -3.3410    4.9910   -4.0060 N.ar  204  HIS204     -0.2268
    160  CD2       -4.6210    6.1690   -2.6830 C.ar  204  HIS204      0.1154
    161  CE1       -3.8750    5.9590   -4.7360 C.ar  204  HIS204      0.1986
    162  NE2       -4.6540    6.6850   -3.9560 N.ar  204  HIS204     -0.2212
    163  N         -3.3990    1.6310   -3.1760 N.am  205  LEU205     -0.1980
    164  CA        -3.3870    0.7770   -4.3570 C.3   205  LEU205      0.1596
    165  C         -4.5540   -0.2160   -4.3240 C.2   205  LEU205      0.2287
    166  O         -5.1850   -0.4860   -5.3500 O.2   205  LEU205     -0.2864
    167  CB        -2.0540    0.0390   -4.4270 C.3   205  LEU205      0.0297
    168  CG        -1.6800   -0.6570   -5.7280 C.3   205  LEU205      0.0022
    169  CD1       -1.7570    0.3230   -6.8860 C.3   205  LEU205      0.0001
    170  CD2       -0.2880   -1.2340   -5.6120 C.3   205  LEU205      0.0001
    171  N          1.2050   -7.0940  -10.6710 N.3   220  LEU220     -0.1245
    172  CA         0.9140   -6.1270   -9.6120 C.3   220  LEU220      0.1561
    173  C         -0.2640   -6.6010   -8.7450 C.2   220  LEU220      0.2260
    174  O         -0.2110   -6.5450   -7.5170 O.2   220  LEU220     -0.2867
    175  CB         0.6460   -4.7490  -10.2320 C.3   220  LEU220      0.0270
    176  CG         1.1260   -3.5130   -9.4760 C.3   220  LEU220      0.0019
    177  CD1        2.5020   -3.7620   -8.8650 C.3   220  LEU220      0.0001
    178  CD2        1.1570   -2.2970  -10.3960 C.3   220  LEU220      0.0001
@<TRIPOS>BOND
     1    24    25    1
     2    30    29    1
     3    25    28    1
     4    25    26    1
     5    28    29    1
     6    37    38    1
     7    27    26    2
     8    29    31    1
     9    26    32   am
    10    19    20    2
    11    19    18    1
    12     9    10    1
    13    22    21    1
    14     3     4    2
    15     3     2    1
    16     1     2    1
    17    38    39    1
    18    38    41    1
    19    32    33    1
    20    17    18    1
    21    17    11   am
    22    18    21    1
    23    42    41    1
    24    42    43    1
    25     2     5    1
    26   106   105    2
    27    21    23    1
    28   105   104    1
    29    10    11    1
    30    10    13    1
    31    11    12    2
    32    34    35    2
    33    34    33    1
    34    39    40    2
    35     5     6    1
    36    33    36    1
    37   107   104    1
    38   107   108    1
    39   171   172    1
    40    43    44   ar
    41    43    45   ar
    42    16    14    1
    43   178   176    1
    44   104   103    1
    45   175   172    1
    46   175   176    1
    47    13    14    1
    48    14    15    1
    49     6     7    1
    50   172   173    1
    51   176   177    1
    52   108   110   ar
    53   108   109   ar
    54    99    98    1
    55    99   100    2
    56    98    97    1
    57   102   100    1
    58   110   112   ar
    59   100   101    1
    60   109   111   ar
    61   173   174    2
    62     7     8    1
    63    97    96    1
    64    96    93    1
    65   112   113   ar
    66   111   113   ar
    67    75    73    1
    68    95    94    2
    69    74    73    1
    70   169   168    1
    71    90    89    1
    72    93    94    1
    73    93    92    1
    74   140   139   ar
    75   140   138   ar
    76    73    72    1
    77   139   137   ar
    78    58    59   ar
    79    58    56   ar
    80   168   170    1
    81   168   167    1
    82   121   120    1
    83    72    69    1
    84   138   136   ar
    85    59    57   ar
    86    56    53   ar
    87    89    88    1
    88    89    91    1
    89   166   165    2
    90    85    88    1
    91    85    84    1
    92    85    86    1
    93    87    86    2
    94   137   135   ar
    95    69    70    1
    96    69    68    1
    97    71    70    2
    98   119   120    1
    99   119   118    1
   100   161   159   ar
   101   161   162   ar
   102    57    55   ar
   103    53    55   ar
   104    53    51   ar
   105   167   164    1
   106   164   165    1
   107   164   163    1
   108    70    76   am
   109   118   115    1
   110   136   135   ar
   111    55    54   ar
   112    50    51    1
   113    50    47    1
   114   159   158   ar
   115   162   160   ar
   116    51    52   ar
   117   135   134    1
   118    66    65    1
   119    49    48    2
   120   156   155    2
   121    54    52   ar
   122   163   155   am
   123    76    77    1
   124    48    47    1
   125    48    60   am
   126    47    46    1
   127   155   154    1
   128   115   114    1
   129   115   116    1
   130   158   160   ar
   131   158   157    1
   132   134   131    1
   133    77    78    1
   134    77    80    1
   135    61    60    1
   136    61    64    1
   137    61    62    1
   138   147   146    1
   139    65    64    1
   140    65    67    1
   141   116   117    2
   142    79    78    2
   143    63    62    2
   144    81    80    1
   145    81    82    1
   146   152   151    2
   147   157   154    1
   148   131   130    1
   149   131   132    1
   150   154   153    1
   151    83    82    1
   152   146   148    1
   153   146   145    1
   154   130   124   am
   155   145   142    1
   156   151   150    1
   157   128   126    1
   158   129   127    1
   159   133   132    2
   160   150   149    1
   161   126   127    1
   162   126   123    1
   163   124   125    2
   164   124   123    1
   165   143   142    1
   166   143   144    2
   167   142   141    1
   168   123   122    1
