@<TRIPOS>MOLECULE
tmp/4iwoA00.pdb
 168 158 0 0 0
SMALL
GASTEIGER

@<TRIPOS>ATOM
      1  N        -21.4270  -12.3700   11.3060 N.3    18  LEU18      -0.1231
      2  CA       -22.3680  -13.4810   11.1970 C.3    18  LEU18       0.1693
      3  C        -23.7530  -13.0330   10.7350 C.2    18  LEU18       0.2593
      4  O        -24.2610  -13.5100    9.7230 O.2    18  LEU18      -0.2718
      5  CB       -22.4670  -14.2340   12.5270 C.3    18  LEU18       0.0284
      6  CG       -21.2100  -14.9790   12.9820 C.3    18  LEU18       0.0019
      7  CD1      -21.4440  -15.6640   14.3190 C.3    18  LEU18       0.0001
      8  CD2      -20.7740  -15.9860   11.9290 C.3    18  LEU18       0.0001
      9  N        -24.3810  -12.1720   11.5250 N.am   19  GLY19      -0.1942
     10  CA       -25.7070  -11.6810   11.2110 C.3    19  GLY19       0.2014
     11  C        -25.8630  -10.2220   11.5770 C.2    19  GLY19       0.2639
     12  O        -25.1890   -9.7240   12.4800 O.2    19  GLY19      -0.2714
     13  N        -26.7570   -9.5320   10.8800 N.am   20  GLN20      -0.1963
     14  CA       -27.0410   -8.1420   11.1950 C.3    20  GLN20       0.1733
     15  C        -28.4870   -7.9930   11.6440 C.2    20  GLN20       0.2616
     16  O        -29.4110   -8.4170   10.9490 O.2    20  GLN20      -0.2715
     17  CB       -26.7700   -7.2510    9.9820 C.3    20  GLN20       0.0408
     18  CG       -25.3050   -7.1650    9.5890 C.3    20  GLN20       0.0908
     19  CD       -25.0830   -6.3330    8.3420 C.2    20  GLN20       0.2608
     20  OE1      -25.9790   -6.1900    7.5090 O.2    20  GLN20      -0.2717
     21  NE2      -23.8850   -5.7770    8.2060 N.am   20  GLN20      -0.0878
     22  N        -28.6780   -7.3810   12.8070 N.am   21  GLY21      -0.1955
     23  CA       -30.0110   -7.1070   13.3080 C.3    21  GLY21       0.1869
     24  C        -30.2140   -5.6370   13.6170 C.2    21  GLY21       0.2309
     25  O        -29.2930   -4.8310   13.4780 O.2    21  GLY21      -0.2863
     26  N        -28.7130   -5.1620   17.5240 N.3    24  ALA24      -0.1245
     27  CA       -27.3280   -5.6020   17.6500 C.3    24  ALA24       0.1562
     28  C        -26.7690   -6.2790   16.4040 C.2    24  ALA24       0.2260
     29  O        -27.4990   -6.5770   15.4580 O.2    24  ALA24      -0.2867
     30  CB       -27.1850   -6.5230   18.8500 C.3    24  ALA24       0.0290
     31  N        -23.8260   -9.5100   15.2030 N.3    26  VAL26      -0.1245
     32  CA       -23.1510  -10.7090   15.6840 C.3    26  VAL26       0.1561
     33  C        -21.9020  -10.9980   14.8580 C.2    26  VAL26       0.2260
     34  O        -21.9590  -11.0500   13.6300 O.2    26  VAL26      -0.2867
     35  CB       -24.0810  -11.9390   15.6600 C.3    26  VAL26       0.0252
     36  CG1      -23.3490  -13.1650   16.1810 C.3    26  VAL26       0.0019
     37  CG2      -25.3330  -11.6740   16.4840 C.3    26  VAL26       0.0019
     38  N        -18.2210  -13.4020   14.2740 N.3    28  ARG28      -0.1245
     39  CA       -17.4430  -14.6030   14.5430 C.3    28  ARG28       0.1563
     40  C        -16.1970  -14.1940   15.3190 C.2    28  ARG28       0.2260
     41  O        -15.3530  -13.4610   14.8040 O.2    28  ARG28      -0.2867
     42  CB       -17.0400  -15.2760   13.2320 C.3    28  ARG28       0.0307
     43  CG       -16.2270  -16.5470   13.4020 C.3    28  ARG28       0.0489
     44  CD       -15.4470  -16.8660   12.1340 C.3    28  ARG28       0.2205
     45  NE       -14.8660  -18.2060   12.1580 N.pl3  28  ARG28      -0.0865
     46  CZ       -15.4050  -19.2630   11.5570 C.cat  28  ARG28       0.5346
     47  NH1      -16.5380  -19.1370   10.8810 N.pl3  28  ARG28       0.1354
     48  NH2      -14.8100  -20.4460   11.6290 N.pl3  28  ARG28       0.1354
     49  N        -19.9860  -16.8020   19.2630 N.3    39  ALA39      -0.1245
     50  CA       -20.7720  -15.7520   18.6330 C.3    39  ALA39       0.1562
     51  C        -20.8450  -14.5370   19.5560 C.2    39  ALA39       0.2260
     52  O        -21.4090  -14.6050   20.6460 O.2    39  ALA39      -0.2867
     53  CB       -22.1660  -16.2610   18.2920 C.3    39  ALA39       0.0290
     54  N        -22.2580  -10.9370   20.3750 N.3    41  LYS41      -0.1245
     55  CA       -23.3780  -10.0490   20.0710 C.3    41  LYS41       0.1561
     56  C        -23.1320   -8.6380   20.6020 C.2    41  LYS41       0.2260
     57  O        -23.1780   -8.3970   21.8080 O.2    41  LYS41      -0.2867
     58  CB       -24.6820  -10.6160   20.6450 C.3    41  LYS41       0.0271
     59  CG       -25.9320   -9.8440   20.2550 C.3    41  LYS41       0.0035
     60  CD       -27.1920  -10.5410   20.7500 C.3    41  LYS41       0.0206
     61  CE       -28.4460   -9.7760   20.3510 C.3    41  LYS41       0.1093
     62  NZ       -29.6910  -10.4460   20.8220 N.3    41  LYS41      -0.1314
     63  N        -30.0310  -21.6210   21.7140 N.3    71  VAL71      -0.1245
     64  CA       -28.6340  -21.1890   21.6930 C.3    71  VAL71       0.1561
     65  C        -28.1880  -20.6780   23.0590 C.2    71  VAL71       0.2260
     66  O        -28.8380  -19.8220   23.6540 O.2    71  VAL71      -0.2867
     67  CB       -28.3880  -20.0950   20.6420 C.3    71  VAL71       0.0252
     68  CG1      -26.9000  -19.8570   20.4810 C.3    71  VAL71       0.0019
     69  CG2      -29.0050  -20.4900   19.3120 C.3    71  VAL71       0.0019
     70  N        -22.1770  -15.5810   22.9450 N.3    89  MET89      -0.1230
     71  CA       -23.1250  -16.6240   22.5760 C.3    89  MET89       0.1702
     72  C        -22.4520  -17.8350   21.9400 C.2    89  MET89       0.2592
     73  O        -21.3440  -17.7400   21.4080 O.2    89  MET89      -0.2718
     74  CB       -24.1650  -16.0580   21.6120 C.3    89  MET89       0.0401
     75  CG       -24.8460  -14.7920   22.1010 C.3    89  MET89       0.0596
     76  SD       -26.2560  -15.1330   23.1610 S.3    89  MET89      -0.1393
     77  CE       -27.3370  -15.9780   22.0110 C.3    89  MET89       0.0692
     78  N        -23.1400  -18.9700   22.0010 N.am   90  GLU90      -0.1966
     79  CA       -22.6890  -20.1930   21.3560 C.3    90  GLU90       0.1733
     80  C        -22.6600  -20.0150   19.8430 C.2    90  GLU90       0.2616
     81  O        -23.6340  -19.5590   19.2480 O.2    90  GLU90      -0.2715
     82  CB       -23.6210  -21.3440   21.7310 C.3    90  GLU90       0.0429
     83  CG       -23.5590  -22.5350   20.7950 C.3    90  GLU90       0.1163
     84  CD       -24.6570  -23.5420   21.0700 C.2    90  GLU90       0.3649
     85  OE1      -24.8410  -24.4600   20.2440 O.co2  90  GLU90      -0.2457
     86  OE2      -25.3370  -23.4160   22.1110 O.co2  90  GLU90      -0.2457
     87  N        -21.5410  -20.3740   19.2220 N.am   91  PHE91      -0.1960
     88  CA       -21.3810  -20.2100   17.7780 C.3    91  PHE91       0.1771
     89  C        -21.9300  -21.4020   16.9970 C.2    91  PHE91       0.2620
     90  O        -21.6740  -22.5550   17.3440 O.2    91  PHE91      -0.2715
     91  CB       -19.9090  -19.9690   17.4220 C.3    91  PHE91       0.0574
     92  CG       -19.6460  -19.8840   15.9430 C.ar   91  PHE91      -0.0200
     93  CD1      -20.3510  -18.9960   15.1480 C.ar   91  PHE91      -0.0042
     94  CD2      -18.6810  -20.6810   15.3520 C.ar   91  PHE91      -0.0042
     95  CE1      -20.1080  -18.9160   13.7910 C.ar   91  PHE91      -0.0003
     96  CE2      -18.4310  -20.6020   13.9940 C.ar   91  PHE91      -0.0003
     97  CZ       -19.1460  -19.7170   13.2130 C.ar   91  PHE91      -0.0000
     98  N        -22.6860  -21.1120   15.9410 N.am   92  CYS92      -0.1954
     99  CA       -23.2690  -22.1490   15.0950 C.3    92  CYS92       0.1828
    100  C        -22.7450  -22.0330   13.6650 C.2    92  CYS92       0.2467
    101  O        -23.2930  -21.2840   12.8600 O.2    92  CYS92      -0.2730
    102  CB       -24.7940  -22.0460   15.1040 C.3    92  CYS92       0.0996
    103  SG       -25.5300  -21.9540   16.7550 S.3    92  CYS92      -0.0797
    104  N        -21.6820  -22.7860   13.3480 N.am   93  PRO93      -0.2715
    105  CA       -20.9550  -22.7020   12.0750 C.3    93  PRO93       0.1536
    106  C        -21.7910  -23.0240   10.8350 C.2    93  PRO93       0.2599
    107  O        -21.4660  -22.5370    9.7540 O.2    93  PRO93      -0.2715
    108  CB       -19.8350  -23.7370   12.2420 C.3    93  PRO93       0.0310
    109  CG       -20.3180  -24.6590   13.3080 C.3    93  PRO93       0.0237
    110  CD       -21.1100  -23.8080   14.2410 C.3    93  PRO93       0.0939
    111  N        -22.8420  -23.8240   10.9820 N.am   94  CYS94      -0.1954
    112  CA       -23.6500  -24.2340    9.8310 C.3    94  CYS94       0.1843
    113  C        -24.5980  -23.1460    9.3230 C.2    94  CYS94       0.2626
    114  O        -25.1530  -23.2540    8.2290 O.2    94  CYS94      -0.2714
    115  CB       -24.4380  -25.5080   10.1450 C.3    94  CYS94       0.0997
    116  SG       -23.4090  -26.9610   10.4270 S.3    94  CYS94      -0.0797
    117  N        -24.7840  -22.0990   10.1190 N.am   95  GLY95      -0.1940
    118  CA       -25.6670  -21.0140    9.7380 C.3    95  GLY95       0.2014
    119  C        -27.0600  -21.1770   10.3140 C.2    95  GLY95       0.2639
    120  O        -27.2220  -21.6150   11.4510 O.2    95  GLY95      -0.2714
    121  N        -28.0720  -20.8230    9.5300 N.am   96  SER96      -0.1949
    122  CA       -29.4480  -20.9020   10.0040 C.3    96  SER96       0.1924
    123  C        -30.3360  -21.6660    9.0310 C.2    96  SER96       0.2314
    124  O        -29.8610  -22.2030    8.0310 O.2    96  SER96      -0.2863
    125  CB       -30.0160  -19.5010   10.2470 C.3    96  SER96       0.2116
    126  OG       -30.1110  -18.7690    9.0390 O.3    96  SER96      -0.2180
    127  N        -30.1490  -20.2510    5.5840 N.3    99  THR99      -0.1218
    128  CA       -28.9780  -20.7300    4.8610 C.3    99  THR99       0.1862
    129  C        -29.2640  -22.0940    4.2440 C.2    99  THR99       0.2287
    130  O        -28.7870  -22.4090    3.1510 O.2    99  THR99      -0.2866
    131  CB       -27.7670  -20.8610    5.8020 C.3    99  THR99       0.1770
    132  OG1      -27.6050  -19.6510    6.5530 O.3    99  THR99      -0.2211
    133  CG2      -26.4980  -21.1470    5.0130 C.3    99  THR99       0.0375
    134  N        -34.4460  -17.1820    9.6250 N.3   142  GLY142     -0.1210
    135  CA       -33.2520  -16.4030    9.8960 C.3   142  GLY142      0.1956
    136  C        -32.7550  -16.4980   11.3290 C.2   142  GLY142      0.2611
    137  O        -31.5510  -16.4410   11.5780 O.2   142  GLY142     -0.2717
    138  N        -33.6780  -16.6380   12.2770 N.am  143  ASN143     -0.1974
    139  CA       -33.3090  -16.7440   13.6870 C.3   143  ASN143      0.1688
    140  C        -33.3740  -18.1730   14.2300 C.2   143  ASN143      0.2292
    141  O        -33.2580  -18.3970   15.4370 O.2   143  ASN143     -0.2864
    142  CB       -34.1530  -15.7940   14.5450 C.3   143  ASN143      0.1181
    143  CG       -35.6440  -16.0940   14.4710 C.2   143  ASN143      0.2629
    144  OD1      -36.0780  -17.2350   14.6340 O.2   143  ASN143     -0.2716
    145  ND2      -36.4360  -15.0570   14.2310 N.am  143  ASN143     -0.0877
    146  N        -31.2870  -21.2620   14.2700 N.3   145  MET145     -0.1245
    147  CA       -29.9180  -21.7000   14.0090 C.3   145  MET145      0.1570
    148  C        -29.8290  -23.2050   13.7790 C.2   145  MET145      0.2261
    149  O        -30.6990  -23.9620   14.2120 O.2   145  MET145     -0.2867
    150  CB       -29.0030  -21.2960   15.1660 C.3   145  MET145      0.0387
    151  CG       -29.1280  -19.8340   15.5720 C.3   145  MET145      0.0595
    152  SD       -28.9980  -18.7210   14.1600 S.3   145  MET145     -0.1393
    153  CE       -27.3500  -19.1120   13.5780 C.3   145  MET145      0.0692
    154  N        -33.2280  -18.5910   18.7510 N.3   159  THR159     -0.1203
    155  CA       -32.4660  -17.4330   19.2280 C.3   159  THR159      0.1994
    156  C        -33.2460  -16.1110   19.1320 C.2   159  THR159      0.2617
    157  O        -34.3000  -16.0460   18.4990 O.2   159  THR159     -0.2717
    158  CB       -31.1340  -17.2850   18.4680 C.3   159  THR159      0.1784
    159  OG1      -30.3230  -16.2930   19.1090 O.3   159  THR159     -0.2211
    160  CG2      -31.3870  -16.8720   17.0260 C.3   159  THR159      0.0376
    161  N        -32.7100  -15.0620   19.7570 N.am  160  ASP160     -0.1973
    162  CA       -33.2520  -13.6990   19.6430 C.3   160  ASP160      0.1709
    163  C        -34.7180  -13.4540   20.0410 C.2   160  ASP160      0.2293
    164  O        -35.4810  -12.8600   19.2790 O.2   160  ASP160     -0.2864
    165  CB       -33.0070  -13.1590   18.2290 C.3   160  ASP160      0.1436
    166  CG       -32.9050  -11.6460   18.1930 C.2   160  ASP160      0.3671
    167  OD1      -32.4460  -11.0560   19.1940 O.co2 160  ASP160     -0.2456
    168  OD2      -33.2840  -11.0480   17.1640 O.co2 160  ASP160     -0.2456
@<TRIPOS>BOND
     1   130   129    2
     2   129   128    1
     3   128   127    1
     4   128   131    1
     5   133   131    1
     6   131   132    1
     7    20    19    2
     8   124   123    2
     9    21    19   am
    10   114   113    2
    11    19    18    1
    12   123   122    1
    13   126   125    1
    14   113   112    1
    15   113   117   am
    16   121   122    1
    17   121   119   am
    18    18    17    1
    19   134   135    1
    20     4     3    2
    21   118   117    1
    22   118   119    1
    23   107   106    2
    24   112   115    1
    25   112   111    1
    26   135   136    1
    27    17    14    1
    28   122   125    1
    29   115   116    1
    30   119   120    2
    31     3     2    1
    32     3     9   am
    33   106   111   am
    34   106   105    1
    35    13    14    1
    36    13    11   am
    37    47    46    1
    38    16    15    2
    39    14    15    1
    40     2     1    1
    41     2     5    1
    42    10     9    1
    43    10    11    1
    44   136   137    2
    45   136   138   am
    46    46    48    1
    47    46    45    2
    48    11    12    2
    49    15    22   am
    50     8     6    1
    51   105   108    1
    52   105   104    1
    53    44    45    1
    54    44    43    1
    55   108   109    1
    56   138   139    1
    57     5     6    1
    58    22    23    1
    59   101   100    2
    60     6     7    1
    61    97    95   ar
    62    97    96   ar
    63    42    43    1
    64    42    39    1
    65   109   110    1
    66    23    24    1
    67   104   100   am
    68   104   110    1
    69    25    24    2
    70   153   152    1
    71    34    33    2
    72   100    99    1
    73   139   140    1
    74   139   142    1
    75   148   147    1
    76   148   149    2
    77    95    93   ar
    78    96    94   ar
    79   147   146    1
    80   147   150    1
    81   152   151    1
    82   140   141    2
    83   145   143   am
    84    38    39    1
    85   143   142    1
    86   143   144    2
    87    39    40    1
    88    41    40    2
    89    33    32    1
    90    99   102    1
    91    99    98    1
    92   102   103    1
    93    93    92   ar
    94   150   151    1
    95    31    32    1
    96    94    92   ar
    97    29    28    2
    98    35    32    1
    99    35    36    1
   100    35    37    1
   101    98    89   am
   102    92    91    1
   103    28    27    1
   104    89    90    2
   105    89    88    1
   106   160   158    1
   107   168   166   ar
   108    91    88    1
   109    26    27    1
   110    27    30    1
   111    88    87    1
   112   166   165    1
   113   166   167   ar
   114   165   162    1
   115    53    50    1
   116   158   159    1
   117   158   155    1
   118   157   156    2
   119    50    49    1
   120    50    51    1
   121   154   155    1
   122   156   155    1
   123   156   161   am
   124    87    80   am
   125    81    80    2
   126   164   163    2
   127    69    67    1
   128    51    52    2
   129   162   161    1
   130   162   163    1
   131    80    79    1
   132    55    54    1
   133    55    56    1
   134    55    58    1
   135    85    84   ar
   136    59    58    1
   137    59    60    1
   138    61    60    1
   139    61    62    1
   140    68    67    1
   141    56    57    2
   142    67    64    1
   143    83    84    1
   144    83    82    1
   145    84    86   ar
   146    79    82    1
   147    79    78    1
   148    73    72    2
   149    74    75    1
   150    74    71    1
   151    64    63    1
   152    64    65    1
   153    72    78   am
   154    72    71    1
   155    77    76    1
   156    75    76    1
   157    71    70    1
   158    65    66    2
