@<TRIPOS>MOLECULE
tmp/4iwqA00.pdb
 176 166 0 0 0
SMALL
GASTEIGER

@<TRIPOS>ATOM
      1  N          0.0080  -21.3960  -10.0270 N.3    16  ILE16      -0.1231
      2  CA         0.9300  -22.4680  -10.3740 C.3    16  ILE16       0.1692
      3  C          0.3070  -23.8250  -10.0480 C.2    16  ILE16       0.2592
      4  O         -0.3550  -23.9860   -9.0220 O.2    16  ILE16      -0.2718
      5  CB         2.2890  -22.2950   -9.6500 C.3    16  ILE16       0.0266
      6  CG1        3.2740  -23.3940  -10.0580 C.3    16  ILE16       0.0019
      7  CG2        2.1020  -22.2510   -8.1370 C.3    16  ILE16       0.0020
      8  CD1        3.6860  -23.3370  -11.5110 C.3    16  ILE16       0.0001
      9  N          0.5030  -24.7930  -10.9370 N.am   17  LEU17      -0.1966
     10  CA        -0.0530  -26.1260  -10.7490 C.3    17  LEU17       0.1728
     11  C          1.0430  -27.1830  -10.6980 C.2    17  LEU17       0.2617
     12  O          1.0340  -28.0590   -9.8340 O.2    17  LEU17      -0.2715
     13  CB        -1.0440  -26.4530  -11.8670 C.3    17  LEU17       0.0311
     14  CG        -2.2970  -25.5800  -11.9410 C.3    17  LEU17       0.0022
     15  CD1       -3.1140  -25.9260  -13.1720 C.3    17  LEU17       0.0001
     16  CD2       -3.1330  -25.7310  -10.6790 C.3    17  LEU17       0.0001
     17  N          1.9860  -27.0940  -11.6310 N.am   18  GLY18      -0.1940
     18  CA         3.0680  -28.0560  -11.7090 C.3    18  GLY18       0.2014
     19  C          4.4300  -27.4020  -11.8150 C.2    18  GLY18       0.2639
     20  O          4.6650  -26.5680  -12.6890 O.2    18  GLY18      -0.2714
     21  N          5.3320  -27.7840  -10.9180 N.am   19  GLN19      -0.1963
     22  CA         6.6790  -27.2330  -10.9080 C.3    19  GLN19       0.1733
     23  C          7.6820  -28.2820  -11.3760 C.2    19  GLN19       0.2616
     24  O          8.2410  -29.0240  -10.5690 O.2    19  GLN19      -0.2715
     25  CB         7.0400  -26.7340   -9.5070 C.3    19  GLN19       0.0408
     26  CG         8.2750  -25.8500   -9.4560 C.3    19  GLN19       0.0908
     27  CD         8.0570  -24.4960  -10.1060 C.2    19  GLN19       0.2608
     28  OE1        8.9970  -23.8770  -10.6050 O.2    19  GLN19      -0.2717
     29  NE2        6.8150  -24.0260  -10.0940 N.am   19  GLN19      -0.0878
     30  N          7.9010  -28.3400  -12.6850 N.am   20  GLY20      -0.1955
     31  CA         8.8030  -29.3160  -13.2670 C.3    20  GLY20       0.1869
     32  C         10.2150  -28.7910  -13.4270 C.2    20  GLY20       0.2309
     33  O         10.5150  -27.6590  -13.0460 O.2    20  GLY20      -0.2863
     34  N          9.6450  -27.3520  -17.4940 N.3    23  ALA23      -0.1245
     35  CA         8.5150  -26.4490  -17.6810 C.3    23  ALA23       0.1562
     36  C          7.6680  -26.2920  -16.4210 C.2    23  ALA23       0.2260
     37  O          7.7530  -27.1000  -15.4960 O.2    23  ALA23      -0.2867
     38  CB         7.6520  -26.9220  -18.8400 C.3    23  ALA23       0.0290
     39  N          3.5590  -25.5010  -14.9990 N.3    25  VAL25      -0.1245
     40  CA         2.1530  -25.5730  -15.3830 C.3    25  VAL25       0.1561
     41  C          1.3010  -24.5670  -14.6150 C.2    25  VAL25       0.2260
     42  O          1.2860  -24.5630  -13.3840 O.2    25  VAL25      -0.2867
     43  CB         1.5820  -26.9880  -15.1760 C.3    25  VAL25       0.0252
     44  CG1        0.0940  -27.0130  -15.4970 C.3    25  VAL25       0.0019
     45  CG2        2.3350  -27.9910  -16.0330 C.3    25  VAL25       0.0019
     46  N         -2.5810  -22.4390  -14.1650 N.3    27  ARG27      -0.1245
     47  CA        -4.0140  -22.3830  -14.4120 C.3    27  ARG27       0.1563
     48  C         -4.3270  -21.1350  -15.2310 C.2    27  ARG27       0.2260
     49  O         -4.3100  -20.0200  -14.7090 O.2    27  ARG27      -0.2867
     50  CB        -4.7700  -22.3450  -13.0830 C.3    27  ARG27       0.0307
     51  CG        -6.2720  -22.1200  -13.1980 C.3    27  ARG27       0.0489
     52  CD        -6.8340  -21.6160  -11.8750 C.3    27  ARG27       0.2205
     53  NE        -8.2850  -21.4520  -11.9000 N.pl3  27  ARG27      -0.0865
     54  CZ        -9.1430  -22.3160  -11.3680 C.cat  27  ARG27       0.5346
     55  NH1       -8.6970  -23.4100  -10.7660 N.pl3  27  ARG27       0.1354
     56  NH2      -10.4480  -22.0860  -11.4330 N.pl3  27  ARG27       0.1354
     57  N         -4.7210  -25.7270  -19.2250 N.3    38  ALA38      -0.1245
     58  CA        -3.4440  -25.8810  -18.5430 C.3    38  ALA38       0.1562
     59  C         -2.3470  -25.2290  -19.3730 C.2    38  ALA38       0.2260
     60  O         -2.1660  -25.5530  -20.5460 O.2    38  ALA38      -0.2867
     61  CB        -3.1380  -27.3460  -18.3060 C.3    38  ALA38       0.0290
     62  N          1.4700  -24.6850  -20.1050 N.3    40  LYS40      -0.1245
     63  CA         2.8060  -25.2340  -19.8970 C.3    40  LYS40       0.1561
     64  C          3.8720  -24.3270  -20.5050 C.2    40  LYS40       0.2260
     65  O          4.1110  -24.3550  -21.7130 O.2    40  LYS40      -0.2867
     66  CB         2.9060  -26.6450  -20.4820 C.3    40  LYS40       0.0271
     67  CG         4.1700  -27.3930  -20.0900 C.3    40  LYS40       0.0035
     68  CD         4.1140  -28.8480  -20.5300 C.3    40  LYS40       0.0206
     69  CE         5.3290  -29.6250  -20.0420 C.3    40  LYS40       0.1093
     70  NZ         5.2620  -31.0650  -20.4210 N.3    40  LYS40      -0.1314
     71  N         -3.8130  -36.8570  -21.4930 N.3    70  VAL70      -0.1245
     72  CA        -4.1060  -35.4270  -21.4570 C.3    70  VAL70       0.1561
     73  C         -3.8940  -34.8060  -22.8340 C.2    70  VAL70       0.2260
     74  O         -2.8400  -34.9730  -23.4460 O.2    70  VAL70      -0.2867
     75  CB        -3.2330  -34.6910  -20.4210 C.3    70  VAL70       0.0252
     76  CG1       -3.5240  -33.2000  -20.4450 C.3    70  VAL70       0.0019
     77  CG2       -3.4670  -35.2580  -19.0300 C.3    70  VAL70       0.0019
     78  N         -2.3740  -27.0590  -22.7150 N.3    88  MET88      -0.1230
     79  CA        -2.7750  -28.4000  -22.3090 C.3    88  MET88       0.1702
     80  C         -4.1860  -28.4170  -21.7350 C.2    88  MET88       0.2592
     81  O         -4.7650  -27.3700  -21.4460 O.2    88  MET88      -0.2718
     82  CB        -1.7930  -28.9550  -21.2750 C.3    88  MET88       0.0401
     83  CG        -0.3530  -29.0290  -21.7540 C.3    88  MET88       0.0596
     84  SD        -0.0690  -30.3850  -22.9040 S.3    88  MET88      -0.1393
     85  CE        -0.3540  -31.7950  -21.8390 C.3    88  MET88       0.0692
     86  N         -4.7310  -29.6180  -21.5730 N.am   89  GLU89      -0.1966
     87  CA        -6.0420  -29.7980  -20.9660 C.3    89  GLU89       0.1733
     88  C         -5.9480  -29.6380  -19.4540 C.2    89  GLU89       0.2616
     89  O         -5.0770  -30.2260  -18.8140 O.2    89  GLU89      -0.2715
     90  CB        -6.5940  -31.1820  -21.3070 C.3    89  GLU89       0.0429
     91  CG        -7.8930  -31.5200  -20.6020 C.3    89  GLU89       0.1163
     92  CD        -8.2750  -32.9760  -20.7580 C.2    89  GLU89       0.3649
     93  OE1       -9.2880  -33.3910  -20.1590 O.co2  89  GLU89      -0.2457
     94  OE2       -7.5610  -33.7070  -21.4780 O.co2  89  GLU89      -0.2457
     95  N         -6.8460  -28.8420  -18.8820 N.am   90  PHE90      -0.1960
     96  CA        -6.8260  -28.5950  -17.4450 C.3    90  PHE90       0.1771
     97  C         -7.5630  -29.6810  -16.6600 C.2    90  PHE90       0.2620
     98  O         -8.7010  -30.0310  -16.9770 O.2    90  PHE90      -0.2715
     99  CB        -7.4030  -27.2120  -17.1270 C.3    90  PHE90       0.0574
    100  CG        -7.5070  -26.9210  -15.6560 C.ar   90  PHE90      -0.0200
    101  CD1       -6.3970  -27.0230  -14.8340 C.ar   90  PHE90      -0.0042
    102  CD2       -8.7130  -26.5300  -15.0980 C.ar   90  PHE90      -0.0042
    103  CE1       -6.4930  -26.7530  -13.4820 C.ar   90  PHE90      -0.0003
    104  CE2       -8.8130  -26.2560  -13.7450 C.ar   90  PHE90      -0.0003
    105  CZ        -7.7010  -26.3680  -12.9370 C.ar   90  PHE90      -0.0000
    106  N         -6.8990  -30.2100  -15.6370 N.am   91  CYS91      -0.1954
    107  CA        -7.4840  -31.2310  -14.7760 C.3    91  CYS91       0.1828
    108  C         -7.6980  -30.6770  -13.3700 C.2    91  CYS91       0.2467
    109  O         -6.7860  -30.7030  -12.5440 O.2    91  CYS91      -0.2730
    110  CB        -6.5790  -32.4620  -14.7210 C.3    91  CYS91       0.0996
    111  SG        -6.1280  -33.1330  -16.3390 S.3    91  CYS91      -0.0797
    112  N         -8.9120  -30.1760  -13.0970 N.am   92  PRO92      -0.2715
    113  CA        -9.2760  -29.5080  -11.8410 C.3    92  PRO92       0.1536
    114  C         -9.0570  -30.3700  -10.6000 C.2    92  PRO92       0.2599
    115  O         -8.7850  -29.8360   -9.5260 O.2    92  PRO92      -0.2715
    116  CB       -10.7730  -29.2330  -12.0150 C.3    92  PRO92       0.0310
    117  CG       -10.9830  -29.2010  -13.4860 C.3    92  PRO92       0.0237
    118  CD       -10.0390  -30.2160  -14.0430 C.3    92  PRO92       0.0939
    119  N         -9.1790  -31.6840  -10.7470 N.am   93  CYS93      -0.1954
    120  CA        -9.0820  -32.5890   -9.6070 C.3    93  CYS93       0.1843
    121  C         -7.6410  -32.8210   -9.1620 C.2    93  CYS93       0.2626
    122  O         -7.3820  -33.0970   -7.9900 O.2    93  CYS93      -0.2714
    123  CB        -9.7600  -33.9220   -9.9270 C.3    93  CYS93       0.0997
    124  SG       -11.5330  -33.7890  -10.2440 S.3    93  CYS93      -0.0797
    125  N         -6.7060  -32.7070  -10.0980 N.am   94  GLY94      -0.1940
    126  CA        -5.3040  -32.9170   -9.7950 C.3    94  GLY94       0.2014
    127  C         -4.7790  -34.2170  -10.3710 C.2    94  GLY94       0.2639
    128  O         -5.2290  -34.6650  -11.4250 O.2    94  GLY94      -0.2714
    129  N         -3.8240  -34.8250   -9.6740 N.am   95  SER95      -0.1949
    130  CA        -3.2180  -36.0690  -10.1340 C.3    95  SER95       0.1924
    131  C         -3.4650  -37.2110   -9.1520 C.2    95  SER95       0.2314
    132  O         -4.1710  -37.0450   -8.1560 O.2    95  SER95      -0.2863
    133  CB        -1.7160  -35.8820  -10.3540 C.3    95  SER95       0.2116
    134  OG        -1.0720  -35.4800   -9.1580 O.3    95  SER95      -0.2180
    135  N         -2.3210  -36.4310   -5.7190 N.3    98  THR98      -0.1218
    136  CA        -3.2830  -35.6240   -4.9800 C.3    98  THR98       0.1862
    137  C         -4.2870  -36.5200   -4.2650 C.2    98  THR98       0.2287
    138  O         -4.6510  -36.2700   -3.1150 O.2    98  THR98      -0.2866
    139  CB        -4.0350  -34.6570   -5.9150 C.3    98  THR98       0.1770
    140  OG1       -3.0920  -33.8370   -6.6160 O.3    98  THR98      -0.2211
    141  CG2       -4.9840  -33.7690   -5.1240 C.3    98  THR98       0.0375
    142  N          2.2180  -38.4990   -9.8230 N.3   141  GLY141     -0.1210
    143  CA         2.2140  -37.0830  -10.1390 C.3   141  GLY141      0.1956
    144  C          2.0700  -36.8310  -11.6290 C.2   141  GLY141      0.2611
    145  O          1.6320  -35.7580  -12.0450 O.2   141  GLY141     -0.2717
    146  N          2.4400  -37.8220  -12.4340 N.am  142  ASN142     -0.1974
    147  CA         2.3240  -37.7230  -13.8860 C.3   142  ASN142      0.1688
    148  C          1.0500  -38.3810  -14.4040 C.2   142  ASN142      0.2292
    149  O          0.8850  -38.5700  -15.6090 O.2   142  ASN142     -0.2864
    150  CB         3.5420  -38.3500  -14.5670 C.3   142  ASN142      0.1181
    151  CG         4.8380  -37.6610  -14.1930 C.2   142  ASN142      0.2629
    152  OD1        4.9120  -36.9570  -13.1860 O.2   142  ASN142     -0.2716
    153  ND2        5.8700  -37.8620  -15.0050 N.am  142  ASN142     -0.0877
    154  N         -2.8140  -37.6840  -14.2690 N.3   144  MET144     -0.1245
    155  CA        -3.8600  -36.7300  -13.9160 C.3   144  MET144      0.1570
    156  C         -5.2210  -37.4000  -13.7650 C.2   144  MET144      0.2261
    157  O         -5.4490  -38.4890  -14.2870 O.2   144  MET144     -0.2867
    158  CB        -3.9380  -35.6110  -14.9560 C.3   144  MET144      0.0387
    159  CG        -2.5950  -34.9890  -15.2980 C.3   144  MET144      0.0595
    160  SD        -1.6760  -34.4420  -13.8450 S.3   144  MET144     -0.1393
    161  CE        -2.8090  -33.2410  -13.1580 C.3   144  MET144      0.0692
    162  N          0.5050  -37.5220  -19.0530 N.3   158  THR158     -0.1203
    163  CA         0.8810  -36.2260  -19.6120 C.3   158  THR158      0.1994
    164  C          2.3880  -35.9920  -19.7630 C.2   158  THR158      0.2617
    165  O          2.8610  -35.6600  -20.8510 O.2   158  THR158     -0.2717
    166  CB         0.2630  -35.0600  -18.8090 C.3   158  THR158      0.1784
    167  OG1        0.9070  -33.8340  -19.1770 O.3   158  THR158     -0.2211
    168  CG2        0.4260  -35.2870  -17.3110 C.3   158  THR158      0.0376
    169  N          3.1360  -36.1550  -18.6780 N.am  159  ASP159     -0.1973
    170  CA         4.5560  -35.8210  -18.6860 C.3   159  ASP159      0.1709
    171  C          5.4020  -36.9490  -19.2630 C.2   159  ASP159      0.2293
    172  O          6.0930  -37.6570  -18.5310 O.2   159  ASP159     -0.2864
    173  CB         5.0330  -35.4660  -17.2760 C.3   159  ASP159      0.1436
    174  CG         6.3910  -34.7930  -17.2750 C.2   159  ASP159      0.3671
    175  OD1        6.6970  -34.0710  -18.2480 O.co2 159  ASP159     -0.2456
    176  OD2        7.1530  -34.9840  -16.3040 O.co2 159  ASP159     -0.2456
@<TRIPOS>BOND
     1    74    73    2
     2    84    85    1
     3    84    83    1
     4    73    72    1
     5    78    79    1
     6    79    80    1
     7    79    82    1
     8    83    82    1
     9    80    86   am
    10    80    81    2
    11    65    64    2
    12    86    87    1
    13    71    72    1
    14    94    92   ar
    15    72    75    1
    16    90    87    1
    17    90    91    1
    18    87    88    1
    19   165   164    2
    20    92    91    1
    21    92    93   ar
    22    60    59    2
    23    68    67    1
    24    68    69    1
    25    64    63    1
    26    66    67    1
    27    66    63    1
    28    76    75    1
    29    75    77    1
    30    70    69    1
    31    62    63    1
    32   164   163    1
    33   164   169   am
    34   163   162    1
    35   163   166    1
    36    88    95   am
    37    88    89    2
    38    59    58    1
    39   171   170    1
    40   171   172    2
    41    57    58    1
    42   167   166    1
    43    95    96    1
    44    38    35    1
    45   166   168    1
    46   170   169    1
    47   170   173    1
    48    58    61    1
    49   175   174   ar
    50    35    34    1
    51    35    36    1
    52    96    99    1
    53    96    97    1
    54   173   174    1
    55   174   176   ar
    56    99   100    1
    57    98    97    2
    58    97   106   am
    59    36    37    2
    60   111   110    1
    61    45    43    1
    62   100   102   ar
    63   100   101   ar
    64   106   107    1
    65   149   148    2
    66    44    43    1
    67    40    43    1
    68    40    39    1
    69    40    41    1
    70   159   158    1
    71   159   160    1
    72    48    49    2
    73    48    47    1
    74   102   104   ar
    75   153   151   am
    76   158   155    1
    77   101   103   ar
    78   107   110    1
    79   107   108    1
    80    41    42    2
    81   150   151    1
    82   150   147    1
    83    47    46    1
    84    47    50    1
    85   148   147    1
    86   157   156    2
    87   154   155    1
    88   151   152    2
    89   118   117    1
    90   118   112    1
    91   155   156    1
    92   147   146    1
    93   160   161    1
    94   104   105   ar
    95   117   116    1
    96   103   105   ar
    97    32    31    1
    98    32    33    2
    99   108   112   am
   100   108   109    2
   101    31    30    1
   102    51    50    1
   103    51    52    1
   104    15    14    1
   105   112   113    1
   106    20    19    2
   107    30    23   am
   108   146   144   am
   109   145   144    2
   110   116   113    1
   111    14    13    1
   112    14    16    1
   113    53    52    1
   114    53    54    2
   115    13    10    1
   116   113   114    1
   117    19    18    1
   118    19    21   am
   119    18    17    1
   120    17    11   am
   121   144   143    1
   122     8     6    1
   123    56    54    1
   124   128   127    2
   125    23    22    1
   126    23    24    2
   127    54    55    1
   128     9    10    1
   129     9     3   am
   130    21    22    1
   131    22    25    1
   132    10    11    1
   133   119   114   am
   134   119   120    1
   135    11    12    2
   136    28    27    2
   137   114   115    2
   138     2     3    1
   139     2     1    1
   140     2     5    1
   141   127   126    1
   142   127   129   am
   143   133   130    1
   144   133   134    1
   145   124   123    1
   146   143   142    1
   147   130   129    1
   148   130   131    1
   149    27    29   am
   150    27    26    1
   151   125   126    1
   152   125   121   am
   153     6     5    1
   154     3     4    2
   155   123   120    1
   156     5     7    1
   157   120   121    1
   158    25    26    1
   159   121   122    2
   160   131   132    2
   161   140   139    1
   162   139   141    1
   163   139   136    1
   164   135   136    1
   165   136   137    1
   166   137   138    2
