@<TRIPOS>MOLECULE
tmp/4iwvA01.pdb
 220 215 0 0 0
SMALL
GASTEIGER

@<TRIPOS>ATOM
      1  N         54.9840   13.4270  -11.5700 N.3    51  TYR51      -0.1227
      2  CA        53.9600   13.4810  -12.6160 C.3    51  TYR51       0.1736
      3  C         53.8820   14.8320  -13.3450 C.2    51  TYR51       0.2595
      4  O         52.9180   15.0970  -14.0090 O.2    51  TYR51      -0.2718
      5  CB        52.5910   13.0340  -12.0650 C.3    51  TYR51       0.0548
      6  CG        52.6620   11.5940  -11.7810 C.ar   51  TYR51      -0.0200
      7  CD1       52.3450   10.6550  -12.7710 C.ar   51  TYR51      -0.0009
      8  CD2       53.1290   11.1480  -10.5750 C.ar   51  TYR51      -0.0009
      9  CE1       52.4970    9.2990  -12.5250 C.ar   51  TYR51       0.0417
     10  CE2       53.2570    9.8160  -10.3330 C.ar   51  TYR51       0.0417
     11  CZ        52.9460    8.9080  -11.3110 C.ar   51  TYR51       0.1957
     12  OH        53.1100    7.6000  -11.0300 O.3    51  TYR51      -0.2866
     13  N         54.8820   15.7060  -13.1820 N.am   52  VAL52      -0.1966
     14  CA        54.9530   16.9540  -13.9180 C.3    52  VAL52       0.1727
     15  C         55.7700   16.5410  -15.1310 C.2    52  VAL52       0.2616
     16  O         56.9250   16.1860  -14.9950 O.2    52  VAL52      -0.2715
     17  CB        55.6750   18.0850  -13.1300 C.3    52  VAL52       0.0290
     18  CG1       56.0540   19.2600  -14.0180 C.3    52  VAL52       0.0023
     19  CG2       54.8200   18.5990  -11.9750 C.3    52  VAL52       0.0023
     20  N         55.1780   16.6050  -16.3030 N.am   53  ARG53      -0.1963
     21  CA        55.7920   16.0860  -17.5470 C.3    53  ARG53       0.1729
     22  C         56.0860   17.1710  -18.5400 C.2    53  ARG53       0.2617
     23  O         55.4140   18.2000  -18.5340 O.2    53  ARG53      -0.2715
     24  CB        54.8360   15.1170  -18.2130 C.3    53  ARG53       0.0348
     25  CG        54.7360   13.7860  -17.5130 C.3    53  ARG53       0.0492
     26  CD        53.4980   13.1090  -18.0340 C.3    53  ARG53       0.2205
     27  NE        53.1660   11.8610  -17.3520 N.pl3  53  ARG53      -0.0865
     28  CZ        53.6610   10.6720  -17.6930 C.cat  53  ARG53       0.5346
     29  NH1       53.2590    9.5910  -17.0290 N.pl3  53  ARG53       0.1354
     30  NH2       54.5650   10.5530  -18.6640 N.pl3  53  ARG53       0.1354
     31  N         57.0690   16.9440  -19.4160 N.am   54  SER54      -0.1936
     32  CA        57.3850   17.9040  -20.5150 C.3    54  SER54       0.2055
     33  C         56.1820   17.8100  -21.4100 C.2    54  SER54       0.2644
     34  O         55.6270   16.7280  -21.6200 O.2    54  SER54      -0.2714
     35  CB        58.6750   17.5080  -21.2700 C.3    54  SER54       0.2130
     36  OG        58.6250   16.1540  -21.6690 O.3    54  SER54      -0.2179
     37  N         55.6960   18.9370  -21.8580 N.am   55  THR55      -0.1937
     38  CA        54.4650   18.9120  -22.5870 C.3    55  THR55       0.2013
     39  C         54.4490   20.1550  -23.4780 C.2    55  THR55       0.2484
     40  O         55.1950   21.0900  -23.1980 O.2    55  THR55      -0.2729
     41  CB        53.2830   18.8450  -21.5870 C.3    55  THR55       0.1807
     42  OG1       52.0950   18.4470  -22.2600 O.3    55  THR55      -0.2208
     43  CG2       53.0510   20.1730  -20.9320 C.3    55  THR55       0.0379
     44  N         53.6440   20.1630  -24.5740 N.am   56  PRO56      -0.2715
     45  CA        53.5070   21.3930  -25.3690 C.3    56  PRO56       0.1536
     46  C         53.1270   22.6050  -24.4690 C.2    56  PRO56       0.2598
     47  O         52.4520   22.4480  -23.4510 O.2    56  PRO56      -0.2715
     48  CB        52.3460   21.0580  -26.3370 C.3    56  PRO56       0.0310
     49  CG        52.3890   19.5710  -26.4600 C.3    56  PRO56       0.0237
     50  CD        52.7710   19.0860  -25.0780 C.3    56  PRO56       0.0939
     51  N         53.5640   23.7990  -24.8200 N.am   57  GLU57      -0.1964
     52  CA        53.3260   24.9330  -23.9170 C.3    57  GLU57       0.1733
     53  C         51.8880   25.4230  -23.9620 C.2    57  GLU57       0.2617
     54  O         51.1820   25.2480  -24.9610 O.2    57  GLU57      -0.2715
     55  CB        54.2590   26.0710  -24.1880 C.3    57  GLU57       0.0429
     56  CG        54.2210   26.5450  -25.5870 C.3    57  GLU57       0.1163
     57  CD        55.4030   27.4190  -25.8420 C.2    57  GLU57       0.3649
     58  OE1       56.5060   26.8680  -26.0820 O.co2  57  GLU57      -0.2457
     59  OE2       55.2340   28.6390  -25.7340 O.co2  57  GLU57      -0.2457
     60  N         51.4490   25.9850  -22.8400 N.am   58  GLY58      -0.1940
     61  CA        50.1320   26.4790  -22.7320 C.3    58  GLY58       0.2014
     62  C         49.3580   25.8200  -21.6040 C.2    58  GLY58       0.2639
     63  O         49.7480   24.8270  -21.0340 O.2    58  GLY58      -0.2714
     64  N         48.2470   26.4570  -21.2800 N.am   59  SER59      -0.1949
     65  CA        47.4150   26.0590  -20.2200 C.3    59  SER59       0.1924
     66  C         46.0670   26.6320  -20.4560 C.2    59  SER59       0.2314
     67  O         45.8300   27.4020  -21.3990 O.2    59  SER59      -0.2863
     68  CB        47.9580   26.6490  -18.9130 C.3    59  SER59       0.2116
     69  OG        47.9730   28.0630  -18.9180 O.3    59  SER59      -0.2180
     70  N         45.8750   33.7260  -15.5650 N.3    81  VAL81      -0.1245
     71  CA        46.5610   33.4500  -16.8320 C.3    81  VAL81       0.1561
     72  C         45.6620   33.9120  -18.0010 C.2    81  VAL81       0.2260
     73  O         44.4580   33.5420  -18.0740 O.2    81  VAL81      -0.2867
     74  CB        46.8880   31.9590  -16.9860 C.3    81  VAL81       0.0252
     75  CG1       47.7010   31.6860  -18.2270 C.3    81  VAL81       0.0019
     76  CG2       47.5780   31.4610  -15.7430 C.3    81  VAL81       0.0019
     77  N         50.8650   35.2830  -24.1200 N.3    85  TRP85      -0.1241
     78  CA        50.4660   34.9030  -22.7450 C.3    85  TRP85       0.1605
     79  C         50.8410   35.9360  -21.7340 C.2    85  TRP85       0.2264
     80  O         51.8990   36.5380  -21.8500 O.2    85  TRP85      -0.2867
     81  CB        51.0620   33.5910  -22.3030 C.3    85  TRP85       0.0550
     82  CG        50.6090   32.4540  -23.1320 C.ar   85  TRP85       0.0003
     83  CD1       51.2250   31.9630  -24.2390 C.ar   85  TRP85       0.0946
     84  CD2       49.4180   31.6690  -22.9520 C.ar   85  TRP85       0.0152
     85  NE1       50.5090   30.8950  -24.7530 N.ar   85  TRP85      -0.2442
     86  CE2       49.3980   30.6930  -23.9790 C.ar   85  TRP85       0.0810
     87  CE3       48.4090   31.6550  -22.0040 C.ar   85  TRP85       0.0012
     88  CZ2       48.3950   29.7310  -24.0760 C.ar   85  TRP85       0.0191
     89  CZ3       47.4050   30.7020  -22.1240 C.ar   85  TRP85       0.0001
     90  CH2       47.4010   29.7720  -23.1470 C.ar   85  TRP85       0.0015
     91  N         49.9720   10.6440   -8.4690 N.3   144  ASP144     -0.1225
     92  CA        49.5300   11.3600   -9.6630 C.3   144  ASP144      0.1805
     93  C         49.7910   12.8460   -9.3780 C.2   144  ASP144      0.2597
     94  O         50.3590   13.1850   -8.3220 O.2   144  ASP144     -0.2718
     95  CB        48.0690   11.0480   -9.9500 C.3   144  ASP144      0.1424
     96  CG        47.6100   11.5120  -11.3680 C.2   144  ASP144      0.3668
     97  OD1       48.3620   12.1500  -12.1370 O.co2 144  ASP144     -0.2456
     98  OD2       46.4650   11.2480  -11.6970 O.co2 144  ASP144     -0.2456
     99  N         49.4020   13.7150  -10.2970 N.am  145  ILE145     -0.1980
    100  CA        49.5260   15.1820  -10.1150 C.3   145  ILE145      0.1595
    101  C         48.7820   15.7090   -8.8600 C.2   145  ILE145      0.2287
    102  O         49.2330   16.6500   -8.2620 O.2   145  ILE145     -0.2864
    103  CB        49.0370   15.9520  -11.3820 C.3   145  ILE145      0.0276
    104  CG1       49.6280   17.3450  -11.4310 C.3   145  ILE145      0.0022
    105  CG2       47.5070   16.0340  -11.4890 C.3   145  ILE145      0.0022
    106  CD1       51.1220   17.4300  -11.2290 C.3   145  ILE145      0.0001
    107  N         60.7730   25.5870  -10.5210 N.3   196  MET196     -0.1230
    108  CA        61.1850   25.2440  -11.8810 C.3   196  MET196      0.1702
    109  C         60.1440   25.6280  -12.9310 C.2   196  MET196      0.2592
    110  O         60.4860   26.0860  -14.0230 O.2   196  MET196     -0.2718
    111  CB        61.5070   23.7600  -11.9990 C.3   196  MET196      0.0401
    112  CG        62.0840   23.3360  -13.3400 C.3   196  MET196      0.0596
    113  SD        61.8340   21.5820  -13.7490 S.3   196  MET196     -0.1393
    114  CE        60.0370   21.5320  -13.7320 C.3   196  MET196      0.0692
    115  N         58.8790   25.3850  -12.6310 N.am  197  ILE197     -0.1980
    116  CA        57.8010   25.6300  -13.6130 C.3   197  ILE197      0.1595
    117  C         57.6040   27.1020  -13.8540 C.2   197  ILE197      0.2287
    118  O         57.4730   27.5080  -14.9870 O.2   197  ILE197     -0.2864
    119  CB        56.5100   24.9840  -13.1330 C.3   197  ILE197      0.0276
    120  CG1       56.6810   23.4910  -13.2570 C.3   197  ILE197      0.0022
    121  CG2       55.3270   25.4680  -13.9330 C.3   197  ILE197      0.0022
    122  CD1       55.7510   22.7100  -12.4190 C.3   197  ILE197      0.0001
    123  N         60.4650   28.0850  -15.9550 N.3   200  TYR200     -0.1227
    124  CA        60.2400   27.5500  -17.2910 C.3   200  TYR200      0.1736
    125  C         59.3130   28.4530  -18.0550 C.2   200  TYR200      0.2595
    126  O         59.5470   28.7100  -19.2220 O.2   200  TYR200     -0.2718
    127  CB        59.6970   26.1020  -17.2500 C.3   200  TYR200      0.0548
    128  CG        59.3640   25.5610  -18.6270 C.ar  200  TYR200     -0.0200
    129  CD1       58.1300   25.8710  -19.2120 C.ar  200  TYR200     -0.0009
    130  CD2       60.2920   24.8300  -19.3920 C.ar  200  TYR200     -0.0009
    131  CE1       57.8110   25.4600  -20.4680 C.ar  200  TYR200      0.0417
    132  CE2       59.9640   24.4350  -20.6760 C.ar  200  TYR200      0.0417
    133  CZ        58.7090   24.7490  -21.1950 C.ar  200  TYR200      0.1957
    134  OH        58.2650   24.3750  -22.4500 O.3   200  TYR200     -0.2866
    135  N         58.2800   28.9810  -17.3900 N.am  201  TYR201     -0.1976
    136  CA        57.3830   29.9110  -18.0630 C.3   201  TYR201      0.1639
    137  C         58.1240   31.1040  -18.6440 C.2   201  TYR201      0.2290
    138  O         57.7680   31.5720  -19.6950 O.2   201  TYR201     -0.2864
    139  CB        56.3120   30.4190  -17.1170 C.3   201  TYR201      0.0560
    140  CG        55.5100   31.5620  -17.6800 C.ar  201  TYR201     -0.0198
    141  CD1       54.5540   31.3350  -18.6440 C.ar  201  TYR201     -0.0009
    142  CD2       55.6970   32.8590  -17.2580 C.ar  201  TYR201     -0.0009
    143  CE1       53.8000   32.3470  -19.1790 C.ar  201  TYR201      0.0417
    144  CE2       54.9450   33.9020  -17.8040 C.ar  201  TYR201      0.0417
    145  CZ        53.9900   33.6140  -18.7850 C.ar  201  TYR201      0.1957
    146  OH        53.1640   34.5860  -19.3490 O.3   201  TYR201     -0.2866
    147  N         62.3740   28.8000  -21.4610 N.3   204  HIS204     -0.1241
    148  CA        62.0230   27.4050  -21.6730 C.3   204  HIS204      0.1621
    149  C         63.2470   26.5070  -21.5520 C.2   204  HIS204      0.2264
    150  O         63.1240   25.3020  -21.6910 O.2   204  HIS204     -0.2867
    151  CB        61.3770   27.1410  -23.0200 C.3   204  HIS204      0.0745
    152  CG        60.0610   27.8150  -23.2470 C.ar  204  HIS204      0.0817
    153  ND1       59.3710   28.5030  -22.2680 N.ar  204  HIS204     -0.2268
    154  CD2       59.2790   27.8530  -24.3530 C.ar  204  HIS204      0.1154
    155  CE1       58.2400   28.9580  -22.7660 C.ar  204  HIS204      0.1986
    156  NE2       58.1630   28.5790  -24.0330 N.ar  204  HIS204     -0.2212
    157  N         64.7710   26.3760  -18.7390 N.3   206  CYS206     -0.1221
    158  CA        64.7650   26.1020  -17.3330 C.3   206  CYS206      0.1808
    159  C         64.2080   24.7230  -17.0370 C.2   206  CYS206      0.2601
    160  O         63.0030   24.5170  -17.0990 O.2   206  CYS206     -0.2717
    161  CB        63.9310   27.1430  -16.6230 C.3   206  CYS206      0.0970
    162  SG        64.3090   27.2160  -14.8800 S.3   206  CYS206     -0.0800
    163  N         65.0900   23.7930  -16.6580 N.am  207  GLU207     -0.1979
    164  CA        64.7150   22.4030  -16.4260 C.3   207  GLU207      0.1602
    165  C         65.2480   21.9360  -15.0740 C.2   207  GLU207      0.2287
    166  O         65.2120   20.7670  -14.7560 O.2   207  GLU207     -0.2864
    167  CB        65.2280   21.4870  -17.5430 C.3   207  GLU207      0.0415
    168  CG        64.4570   21.5420  -18.8350 C.3   207  GLU207      0.1163
    169  CD        64.9840   20.4940  -19.7890 C.2   207  GLU207      0.3649
    170  OE1       64.4560   19.3490  -19.7790 O.co2 207  GLU207     -0.2457
    171  OE2       65.9920   20.7770  -20.5030 O.co2 207  GLU207     -0.2457
    172  N         64.4360   17.7220  -14.7680 N.3   221  MET221     -0.1245
    173  CA        63.7300   16.9210  -15.7640 C.3   221  MET221      0.1570
    174  C         64.5740   15.7190  -16.1980 C.2   221  MET221      0.2261
    175  O         65.6740   15.9000  -16.6980 O.2   221  MET221     -0.2867
    176  CB        63.4200   17.8040  -16.9890 C.3   221  MET221      0.0387
    177  CG        62.4930   19.0280  -16.7280 C.3   221  MET221      0.0595
    178  SD        60.9720   18.6710  -15.8440 S.3   221  MET221     -0.1393
    179  CE        60.0660   17.7950  -17.1210 C.3   221  MET221      0.0692
    180  N         50.4130   27.7260  -12.1420 N.3   435  LEU435     -0.1231
    181  CA        50.6910   27.3500  -13.5510 C.3   435  LEU435      0.1693
    182  C         50.6010   25.8270  -13.8320 C.2   435  LEU435      0.2591
    183  O         49.9700   25.4150  -14.8680 O.2   435  LEU435     -0.2718
    184  CB        52.0400   27.8960  -13.9770 C.3   435  LEU435      0.0284
    185  CG        52.2190   29.4270  -13.9040 C.3   435  LEU435      0.0019
    186  CD1       53.6710   29.7990  -14.1680 C.3   435  LEU435      0.0001
    187  CD2       51.3900   30.0730  -14.9800 C.3   435  LEU435      0.0001
    188  N         51.0990   24.9790  -12.9080 N.am  436  VAL436     -0.1980
    189  CA        50.8900   23.5230  -13.0830 C.3   436  VAL436      0.1595
    190  C         49.4120   23.2200  -13.0670 C.2   436  VAL436      0.2287
    191  O         48.9610   22.3170  -13.7830 O.2   436  VAL436     -0.2864
    192  CB        51.5160   22.5740  -12.0030 C.3   436  VAL436      0.0276
    193  CG1       51.5980   21.1300  -12.4940 C.3   436  VAL436      0.0022
    194  CG2       52.9180   22.9430  -11.6930 C.3   436  VAL436      0.0022
    195  N         46.9790   25.1110  -13.9780 N.3   438  ALA438     -0.1231
    196  CA        46.3810   25.5200  -15.2500 C.3   438  ALA438      0.1694
    197  C         46.6450   24.5250  -16.3940 C.2   438  ALA438      0.2592
    198  O         45.8080   24.3670  -17.2540 O.2   438  ALA438     -0.2718
    199  CB        46.7990   26.9380  -15.6250 C.3   438  ALA438      0.0304
    200  N         47.8210   23.9130  -16.4020 N.am  439  VAL439     -0.1966
    201  CA        48.2060   22.8940  -17.3720 C.3   439  VAL439      0.1727
    202  C         47.4100   21.6000  -17.0440 C.2   439  VAL439      0.2616
    203  O         46.7970   20.9970  -17.9130 O.2   439  VAL439     -0.2715
    204  CB        49.7220   22.6400  -17.3340 C.3   439  VAL439      0.0290
    205  CG1       50.1100   21.5780  -18.3310 C.3   439  VAL439      0.0023
    206  CG2       50.5180   23.9010  -17.6190 C.3   439  VAL439      0.0023
    207  N         47.3430   21.1970  -15.7830 N.am  440  ALA440     -0.1977
    208  CA        46.5090   20.0430  -15.4450 C.3   440  ALA440      0.1597
    209  C         45.0330   20.1740  -15.9220 C.2   440  ALA440      0.2287
    210  O         44.4070   19.2010  -16.3620 O.2   440  ALA440     -0.2864
    211  CB        46.5360   19.7940  -13.9630 C.3   440  ALA440      0.0319
    212  N         43.7200   19.3300  -19.3850 N.3   443  LYS443     -0.1245
    213  CA        43.2950   17.9490  -19.5510 C.3   443  LYS443      0.1561
    214  C         42.3340   17.4560  -18.4920 C.2   443  LYS443      0.2260
    215  O         41.1400   17.7360  -18.5110 O.2   443  LYS443     -0.2867
    216  CB        44.5070   17.0580  -19.5430 C.3   443  LYS443      0.0271
    217  CG        45.6700   17.5500  -18.7070 C.3   443  LYS443      0.0035
    218  CD        46.9830   17.2570  -19.3930 C.3   443  LYS443      0.0206
    219  CE        48.0900   18.2040  -18.9960 C.3   443  LYS443      0.1093
    220  NZ        49.3610   17.4540  -18.7880 N.3   443  LYS443     -0.1314
@<TRIPOS>BOND
     1    49    48    1
     2    49    50    1
     3    48    45    1
     4    58    57   ar
     5    57    59   ar
     6    57    56    1
     7    56    55    1
     8    45    44    1
     9    45    46    1
    10    50    44    1
    11    54    53    2
    12    51    46   am
    13    51    52    1
    14    85    83   ar
    15    85    86   ar
    16    44    39   am
    17    46    47    2
    18   154   156   ar
    19   154   152   ar
    20    83    82   ar
    21    55    52    1
    22    77    78    1
    23    88    86   ar
    24    88    90   ar
    25   156   155   ar
    26    86    84   ar
    27    53    52    1
    28    53    60   am
    29    39    40    2
    30    39    38    1
    31   152   151    1
    32   152   153   ar
    33    90    89   ar
    34    82    84   ar
    35    82    81    1
    36   151   148    1
    37    84    87   ar
    38    60    61    1
    39   155   153   ar
    40    78    81    1
    41    78    79    1
    42    61    62    1
    43    38    37    1
    44    38    41    1
    45   134   133    1
    46    42    41    1
    47    89    87   ar
    48    37    33   am
    49    80    79    2
    50   150   149    2
    51   148   149    1
    52   148   147    1
    53    36    35    1
    54    34    33    2
    55    62    64   am
    56    62    63    2
    57    41    43    1
    58    33    32    1
    59    67    66    2
    60    64    65    1
    61    35    32    1
    62   133   132   ar
    63   133   131   ar
    64   132   130   ar
    65    32    31    1
    66   171   169   ar
    67   131   129   ar
    68    66    65    1
    69    65    68    1
    70   169   170   ar
    71   169   168    1
    72   138   137    2
    73   213   216    1
    74   213   212    1
    75   213   214    1
    76   216   217    1
    77    31    22   am
    78   218   219    1
    79   218   217    1
    80   130   128   ar
    81   146   145    1
    82   126   125    2
    83   129   128   ar
    84   143   145   ar
    85   143   141   ar
    86   219   220    1
    87    69    68    1
    88   168   167    1
    89   145   144   ar
    90   157   158    1
    91    30    28    1
    92   137   136    1
    93   141   140   ar
    94   128   127    1
    95    22    23    2
    96    22    21    1
    97   215   214    2
    98   205   204    1
    99    75    74    1
   100    24    21    1
   101    24    25    1
   102    73    72    2
   103   136   135    1
   104   136   139    1
   105   125   135   am
   106   125   124    1
   107    26    25    1
   108    26    27    1
   109    72    71    1
   110   203   202    2
   111   144   142   ar
   112    28    27    2
   113    28    29    1
   114   140   142   ar
   115   140   139    1
   116   206   204    1
   117    21    20    1
   118   167   164    1
   119   201   204    1
   120   201   202    1
   121   201   200    1
   122   158   159    1
   123   158   161    1
   124   124   127    1
   125   124   123    1
   126   198   197    2
   127   179   178    1
   128   160   159    2
   129   202   207   am
   130   159   163   am
   131   176   177    1
   132   176   173    1
   133    74    71    1
   134    74    76    1
   135    71    70    1
   136   177   178    1
   137   175   174    2
   138   163   164    1
   139   161   162    1
   140   164   165    1
   141   200   197   am
   142   197   196    1
   143   210   209    2
   144    20    15   am
   145   174   173    1
   146   209   208    1
   147   207   208    1
   148   173   172    1
   149   199   196    1
   150   208   211    1
   151   196   195    1
   152    15    16    2
   153    15    14    1
   154   165   166    2
   155   118   117    2
   156   187   185    1
   157   183   182    2
   158   186   185    1
   159   110   109    2
   160    18    17    1
   161     4     3    2
   162   184   185    1
   163   184   181    1
   164   121   119    1
   165    14    13    1
   166    14    17    1
   167   117   116    1
   168   182   181    1
   169   182   188   am
   170   191   190    2
   171   113   114    1
   172   113   112    1
   173   116   119    1
   174   116   115    1
   175   181   180    1
   176     3    13   am
   177     3     2    1
   178   112   111    1
   179   120   119    1
   180   120   122    1
   181    17    19    1
   182   189   190    1
   183   189   188    1
   184   189   192    1
   185   109   115   am
   186   109   108    1
   187     7     9   ar
   188     7     6   ar
   189     2     5    1
   190     2     1    1
   191     9    11   ar
   192   193   192    1
   193    97    96   ar
   194     5     6    1
   195   192   194    1
   196   111   108    1
   197   108   107    1
   198     6     8   ar
   199    98    96   ar
   200   105   103    1
   201   104   103    1
   202   104   106    1
   203   103   100    1
   204    96    95    1
   205    11    12    1
   206    11    10   ar
   207     8    10   ar
   208    99   100    1
   209    99    93   am
   210   100   101    1
   211    95    92    1
   212    92    93    1
   213    92    91    1
   214    93    94    2
   215   101   102    2
