@<TRIPOS>MOLECULE
tmp/4iwxA00.pdb
 192 180 0 0 0
SMALL
GASTEIGER

@<TRIPOS>ATOM
      1  N         -2.7830   47.2250   62.8190 N.3   117  PRO117     -0.2116
      2  CA        -2.9460   45.8950   62.2130 C.3   117  PRO117      0.1372
      3  C         -3.0300   46.0710   60.6880 C.2   117  PRO117      0.2244
      4  O         -3.4250   47.1680   60.2800 O.2   117  PRO117     -0.2868
      5  CB        -4.3150   45.4350   62.7310 C.3   117  PRO117      0.0268
      6  CG        -4.6660   46.3320   63.8260 C.3   117  PRO117      0.0207
      7  CD        -3.9510   47.6160   63.6250 C.3   117  PRO117      0.0892
      8  N        -11.1720   40.3210   60.9550 N.3   141  VAL141     -0.1245
      9  CA       -12.2850   41.0690   61.5140 C.3   141  VAL141      0.1561
     10  C        -12.8520   41.9550   60.4290 C.2   141  VAL141      0.2260
     11  O        -12.1130   42.6440   59.7330 O.2   141  VAL141     -0.2867
     12  CB       -11.8270   41.9600   62.6960 C.3   141  VAL141      0.0252
     13  CG1      -12.9670   42.8490   63.1970 C.3   141  VAL141      0.0019
     14  CG2      -11.2590   41.1130   63.8290 C.3   141  VAL141      0.0019
     15  N        -15.4240   45.0940   59.7740 N.3   143  LYS143     -0.1245
     16  CA       -16.1140   46.1390   60.5110 C.3   143  LYS143      0.1561
     17  C        -16.9840   46.9920   59.5930 C.2   143  LYS143      0.2260
     18  O        -16.4870   47.8080   58.8140 O.2   143  LYS143     -0.2867
     19  CB       -15.1110   47.0300   61.2440 C.3   143  LYS143      0.0271
     20  CG       -14.0550   46.2910   62.0360 C.3   143  LYS143      0.0035
     21  CD       -13.1510   47.2540   62.8040 C.3   143  LYS143      0.0206
     22  CE       -12.1400   46.4940   63.6690 C.3   143  LYS143      0.1093
     23  NZ       -11.0840   47.3750   64.2760 N.3   143  LYS143     -0.1314
     24  N        -18.9730   44.8720   64.2830 N.3   153  VAL153     -0.1245
     25  CA       -17.7650   44.1130   63.9910 C.3   153  VAL153      0.1561
     26  C        -18.0670   42.6380   64.1460 C.2   153  VAL153      0.2260
     27  O        -18.9650   42.2430   64.8850 O.2   153  VAL153     -0.2867
     28  CB       -16.5560   44.4680   64.8780 C.3   153  VAL153      0.0252
     29  CG1      -16.2760   45.9470   64.8370 C.3   153  VAL153      0.0019
     30  CG2      -16.7870   44.0000   66.2870 C.3   153  VAL153      0.0019
     31  N         -9.4750   43.7670   58.6630 N.3   180  GLU180     -0.1231
     32  CA        -8.1540   43.6650   59.2740 C.3   180  GLU180      0.1699
     33  C         -8.0290   42.3570   60.0240 C.2   180  GLU180      0.2592
     34  O         -9.0430   41.7930   60.4370 O.2   180  GLU180     -0.2718
     35  CB        -7.8910   44.8480   60.1970 C.3   180  GLU180      0.0402
     36  CG        -8.8970   45.0260   61.2960 C.3   180  GLU180      0.1161
     37  CD        -8.5270   46.1710   62.2040 C.2   180  GLU180      0.3649
     38  OE1       -9.0060   46.2070   63.3580 O.co2 180  GLU180     -0.2457
     39  OE2       -7.7500   47.0370   61.7550 O.co2 180  GLU180     -0.2457
     40  N         -6.8020   41.8730   60.2120 N.am  181  TYR181     -0.1962
     41  CA        -6.6290   40.5560   60.8220 C.3   181  TYR181      0.1771
     42  C         -6.8090   40.5160   62.3330 C.2   181  TYR181      0.2619
     43  O         -6.5110   41.5000   62.9990 O.2   181  TYR181     -0.2715
     44  CB        -5.3110   39.9020   60.4160 C.3   181  TYR181      0.0574
     45  CG        -4.0320   40.5650   60.8880 C.ar  181  TYR181     -0.0198
     46  CD1       -3.8970   41.9390   60.9470 C.ar  181  TYR181     -0.0009
     47  CD2       -2.9280   39.7870   61.2340 C.ar  181  TYR181     -0.0009
     48  CE1       -2.7000   42.5110   61.3510 C.ar  181  TYR181      0.0417
     49  CE2       -1.7380   40.3530   61.6390 C.ar  181  TYR181      0.0417
     50  CZ        -1.6280   41.7120   61.6910 C.ar  181  TYR181      0.1957
     51  OH        -0.4360   42.2630   62.1070 O.3   181  TYR181     -0.2866
     52  N         -7.3120   39.3760   62.8420 N.am  182  ILE182     -0.1963
     53  CA        -7.5750   39.1430   64.2790 C.3   182  ILE182      0.1727
     54  C         -6.2620   38.9280   65.0290 C.2   182  ILE182      0.2616
     55  O         -5.2230   38.7980   64.3990 O.2   182  ILE182     -0.2715
     56  CB        -8.5650   37.9220   64.5410 C.3   182  ILE182      0.0290
     57  CG1       -9.2380   38.0020   65.9340 C.3   182  ILE182      0.0022
     58  CG2       -7.8750   36.5730   64.3460 C.3   182  ILE182      0.0023
     59  CD1       -9.3520   36.6480   66.6930 C.3   182  ILE182      0.0001
     60  N         -6.3100   38.8690   66.3630 N.am  183  LYS183     -0.1977
     61  CA        -5.0960   38.7270   67.1670 C.3   183  LYS183      0.1596
     62  C         -4.8870   37.4820   68.0490 C.2   183  LYS183      0.2287
     63  O         -5.7410   36.6020   68.1890 O.2   183  LYS183     -0.2864
     64  CB        -4.8870   39.9600   68.0430 C.3   183  LYS183      0.0298
     65  CG        -4.0110   41.0120   67.4060 C.3   183  LYS183      0.0038
     66  CD        -4.7320   41.6190   66.2380 C.3   183  LYS183      0.0206
     67  CE        -3.9280   41.4640   64.9830 C.3   183  LYS183      0.1093
     68  NZ        -2.6820   42.2540   65.0110 N.3   183  LYS183     -0.1314
     69  N         -3.5080   38.2360   71.5470 N.3   185  ALA185     -0.1245
     70  CA        -4.1830   39.0750   72.5380 C.3   185  ALA185      0.1562
     71  C         -5.0700   38.1770   73.3590 C.2   185  ALA185      0.2260
     72  O         -4.5710   37.1960   73.8910 O.2   185  ALA185     -0.2867
     73  CB        -4.9870   40.1810   71.8650 C.3   185  ALA185      0.0290
     74  N         -9.1720   39.1340   73.3210 N.3   187  GLY187     -0.1225
     75  CA       -10.2780   39.9930   73.6560 C.3   187  GLY187      0.1811
     76  C         -9.8080   41.0600   74.6180 C.2   187  GLY187      0.2280
     77  O        -10.6270   41.7560   75.2040 O.2   187  GLY187     -0.2866
     78  N         -7.7600   44.5300   75.0020 N.3   189  ASP189     -0.1239
     79  CA        -7.0590   45.6810   74.4620 C.3   189  ASP189      0.1674
     80  C         -6.7530   46.6510   75.5950 C.2   189  ASP189      0.2266
     81  O         -7.3710   46.5970   76.6480 O.2   189  ASP189     -0.2867
     82  CB        -7.8630   46.3670   73.3470 C.3   189  ASP189      0.1410
     83  CG        -9.2480   46.8050   73.7980 C.2   189  ASP189      0.3668
     84  OD1       -9.9200   46.0350   74.5170 O.co2 189  ASP189     -0.2456
     85  OD2       -9.6720   47.9210   73.4280 O.co2 189  ASP189     -0.2456
     86  N         -6.6990   50.5400   76.7460 N.3   191  ARG191     -0.1245
     87  CA        -7.1530   51.8820   76.4160 C.3   191  ARG191      0.1563
     88  C         -6.3550   52.9280   77.1780 C.2   191  ARG191      0.2260
     89  O         -6.4530   53.0160   78.4000 O.2   191  ARG191     -0.2867
     90  CB        -8.6300   52.0670   76.7310 C.3   191  ARG191      0.0307
     91  CG        -9.0190   53.5210   76.6840 C.3   191  ARG191      0.0489
     92  CD       -10.5050   53.6990   76.7430 C.3   191  ARG191      0.2205
     93  NE       -10.9550   54.5600   75.6560 N.pl3 191  ARG191     -0.0865
     94  CZ       -11.6980   54.1500   74.6370 C.cat 191  ARG191      0.5346
     95  NH1      -12.1000   52.8850   74.5670 N.pl3 191  ARG191      0.1354
     96  NH2      -12.0490   55.0170   73.6990 N.pl3 191  ARG191      0.1354
     97  N         -9.1900   46.4020   79.0020 N.3   205  ARG205     -0.1245
     98  CA       -10.5650   45.9940   78.7690 C.3   205  ARG205      0.1563
     99  C        -10.5520   44.5470   78.3110 C.2   205  ARG205      0.2260
    100  O         -9.7920   44.1790   77.4190 O.2   205  ARG205     -0.2867
    101  CB       -11.2360   46.9100   77.7520 C.3   205  ARG205      0.0307
    102  CG       -11.6460   48.2450   78.3410 C.3   205  ARG205      0.0489
    103  CD       -12.3930   49.0860   77.3340 C.3   205  ARG205      0.2205
    104  NE       -11.5940   49.3230   76.1350 N.pl3 205  ARG205     -0.0865
    105  CZ       -12.0880   49.7860   74.9920 C.cat 205  ARG205      0.5346
    106  NH1      -13.3800   50.0610   74.8940 N.pl3 205  ARG205      0.1354
    107  NH2      -11.2930   49.9670   73.9470 N.pl3 205  ARG205      0.1354
    108  N        -15.4380   37.0940   71.0570 N.3   212  PHE212     -0.1227
    109  CA       -14.4620   38.0560   71.5510 C.3   212  PHE212      0.1736
    110  C        -15.0860   39.4090   71.9320 C.2   212  PHE212      0.2595
    111  O        -15.5440   39.5740   73.0620 O.2   212  PHE212     -0.2718
    112  CB       -13.2600   38.1910   70.5840 C.3   212  PHE212      0.0547
    113  CG       -13.5860   38.8660   69.2700 C.ar  212  PHE212     -0.0202
    114  CD1      -14.7730   38.5970   68.5950 C.ar  212  PHE212     -0.0042
    115  CD2      -12.7220   39.8030   68.7330 C.ar  212  PHE212     -0.0042
    116  CE1      -15.0750   39.2370   67.4310 C.ar  212  PHE212     -0.0003
    117  CE2      -13.0250   40.4380   67.5540 C.ar  212  PHE212     -0.0003
    118  CZ       -14.2000   40.1570   66.9090 C.ar  212  PHE212     -0.0000
    119  N        -15.1520   40.3350   70.9760 N.am  213  ARG213     -0.1966
    120  CA       -15.3600   41.7580   71.2200 C.3   213  ARG213      0.1729
    121  C        -14.3190   42.1940   72.2340 C.2   213  ARG213      0.2617
    122  O        -13.1750   41.7210   72.1830 O.2   213  ARG213     -0.2715
    123  CB       -16.7760   42.0610   71.7180 C.3   213  ARG213      0.0348
    124  CG       -17.8630   41.2400   71.0520 C.3   213  ARG213      0.0492
    125  CD       -17.9090   41.4660   69.5570 C.3   213  ARG213      0.2205
    126  NE       -18.7330   40.4470   68.9200 N.pl3 213  ARG213     -0.0865
    127  CZ       -20.0600   40.4860   68.8690 C.cat 213  ARG213      0.5346
    128  NH1      -20.7130   41.5040   69.4140 N.pl3 213  ARG213      0.1354
    129  NH2      -20.7350   39.5100   68.2720 N.pl3 213  ARG213      0.1354
    130  N        -14.7480   43.0820   73.1350 N.am  214  SER214     -0.1936
    131  CA       -13.9960   43.5960   74.2900 C.3   214  SER214      0.2055
    132  C        -14.5880   44.9390   74.6560 C.2   214  SER214      0.2643
    133  O        -14.2570   45.5020   75.6980 O.2   214  SER214     -0.2714
    134  CB       -12.5040   43.7840   74.0040 C.3   214  SER214      0.2130
    135  OG       -12.0070   44.9940   74.5460 O.3   214  SER214     -0.2179
    136  N        -15.4490   45.4420   73.7690 N.am  215  ASN215     -0.1957
    137  CA       -16.0660   46.7620   73.8870 C.3   215  ASN215      0.1819
    138  C        -16.4670   47.0730   75.3190 C.2   215  ASN215      0.2621
    139  O        -16.9060   46.1700   76.0380 O.2   215  ASN215     -0.2715
    140  CB       -17.2930   46.8630   72.9680 C.3   215  ASN215      0.1195
    141  CG       -16.9270   47.1440   71.5200 C.2   215  ASN215      0.2630
    142  OD1      -16.1170   48.0230   71.2380 O.2   215  ASN215     -0.2716
    143  ND2      -17.5310   46.3990   70.5940 N.am  215  ASN215     -0.0877
    144  N        -16.2710   48.3350   75.7150 N.am  216  LEU216     -0.1977
    145  CA       -16.6430   48.8830   77.0300 C.3   216  LEU216      0.1596
    146  C        -17.6160   47.9980   77.8140 C.2   216  LEU216      0.2287
    147  O        -17.2760   47.4610   78.8710 O.2   216  LEU216     -0.2864
    148  CB       -17.2230   50.2880   76.8590 C.3   216  LEU216      0.0297
    149  CG       -16.3750   51.2600   76.0410 C.3   216  LEU216      0.0022
    150  CD1      -16.7080   51.1980   74.5520 C.3   216  LEU216      0.0001
    151  CD2      -16.5550   52.6620   76.5820 C.3   216  LEU216      0.0001
    152  N         -6.7870   53.1890   71.6330 N.3   250  ASP250     -0.1239
    153  CA        -6.8950   51.7700   71.9510 C.3   250  ASP250      0.1674
    154  C         -5.7800   50.9880   71.2780 C.2   250  ASP250      0.2266
    155  O         -5.5110   51.1570   70.1010 O.2   250  ASP250     -0.2867
    156  CB        -8.2540   51.2210   71.5390 C.3   250  ASP250      0.1410
    157  CG        -9.3940   51.9900   72.1570 C.2   250  ASP250      0.3668
    158  OD1       -9.1310   52.7510   73.1090 O.co2 250  ASP250     -0.2456
    159  OD2      -10.5460   51.8370   71.6930 O.co2 250  ASP250     -0.2456
    160  N         -3.6730   47.1950   70.7550 N.3   252  LEU252     -0.1245
    161  CA        -3.6990   45.7480   70.8360 C.3   252  LEU252      0.1561
    162  C         -2.2770   45.2400   70.9460 C.2   252  LEU252      0.2260
    163  O         -1.3940   45.7010   70.2240 O.2   252  LEU252     -0.2867
    164  CB        -4.3660   45.1510   69.6060 C.3   252  LEU252      0.0270
    165  CG        -5.8890   45.1210   69.5330 C.3   252  LEU252      0.0019
    166  CD1       -6.3200   44.7870   68.1160 C.3   252  LEU252      0.0001
    167  CD2       -6.4300   44.0870   70.4810 C.3   252  LEU252      0.0001
    168  N         -5.5210   50.5830   67.3430 N.3   261  MET261     -0.1230
    169  CA        -6.7010   50.0260   66.7310 C.3   261  MET261      0.1702
    170  C         -7.7240   51.1230   66.4440 C.2   261  MET261      0.2592
    171  O         -8.5120   51.0160   65.5060 O.2   261  MET261     -0.2718
    172  CB        -7.2720   48.9490   67.6440 C.3   261  MET261      0.0401
    173  CG        -8.5650   48.3500   67.1750 C.3   261  MET261      0.0596
    174  SD        -9.0660   47.0040   68.2510 S.3   261  MET261     -0.1393
    175  CE        -9.2090   47.8430   69.8210 C.3   261  MET261      0.0692
    176  N         -7.6740   52.1930   67.2300 N.am  262  GLU262     -0.1979
    177  CA        -8.6680   53.2560   67.1580 C.3   262  GLU262      0.1602
    178  C         -8.2290   54.4750   67.9750 C.2   262  GLU262      0.2287
    179  O         -7.4880   54.3420   68.9470 O.2   262  GLU262     -0.2864
    180  CB       -10.0080   52.7410   67.6800 C.3   262  GLU262      0.0415
    181  CG       -11.1890   53.6350   67.3550 C.3   262  GLU262      0.1163
    182  CD       -12.4410   52.8430   67.0160 C.2   262  GLU262      0.3649
    183  OE1      -12.3380   51.6060   66.8400 O.co2 262  GLU262     -0.2457
    184  OE2      -13.5270   53.4570   66.9200 O.co2 262  GLU262     -0.2457
    185  N        -10.1420   57.9880   69.7050 N.3   264  ASN264     -0.1240
    186  CA       -11.3820   58.7220   69.9750 C.3   264  ASN264      0.1653
    187  C        -11.1270   60.1130   70.5180 C.2   264  ASN264      0.2266
    188  O        -10.2960   60.2840   71.3980 O.2   264  ASN264     -0.2867
    189  CB       -12.2530   57.9690   70.9820 C.3   264  ASN264      0.1155
    190  CG       -12.6590   56.6100   70.4850 C.2   264  ASN264      0.2627
    191  OD1      -11.8100   55.7530   70.2210 O.2   264  ASN264     -0.2716
    192  ND2      -13.9640   56.3950   70.3560 N.am  264  ASN264     -0.0877
@<TRIPOS>BOND
     1    31    32    1
     2    18    17    2
     3    32    33    1
     4    32    35    1
     5    17    16    1
     6    11    10    2
     7    15    16    1
     8    33    40   am
     9    33    34    2
    10    35    36    1
    11    40    41    1
    12     4     3    2
    13    44    41    1
    14    44    45    1
    15    10     9    1
    16    16    19    1
    17     3     2    1
    18    41    42    1
    19    45    46   ar
    20    45    47   ar
    21    46    48   ar
    22     8     9    1
    23    47    49   ar
    24    19    20    1
    25    36    37    1
    26    48    50   ar
    27     9    12    1
    28    49    50   ar
    29    50    51    1
    30    39    37   ar
    31    20    21    1
    32    37    38   ar
    33     2     5    1
    34     2     1    1
    35    42    52   am
    36    42    43    2
    37    12    13    1
    38    12    14    1
    39     5     6    1
    40    21    22    1
    41     1     7    1
    42    52    53    1
    43     7     6    1
    44    22    23    1
    45    25    26    1
    46    25    24    1
    47    25    28    1
    48    26    27    2
    49    53    56    1
    50    53    54    1
    51    58    56    1
    52    55    54    2
    53    56    57    1
    54    29    28    1
    55    28    30    1
    56    67    68    1
    57    67    66    1
    58    54    60   am
    59   171   170    2
    60    57    59    1
    61    66    65    1
    62    60    61    1
    63   170   169    1
    64   170   176   am
    65   169   168    1
    66   169   172    1
    67   183   182   ar
    68   118   116   ar
    69   118   117   ar
    70   184   182   ar
    71   182   181    1
    72   177   176    1
    73   177   180    1
    74   177   178    1
    75    61    64    1
    76    61    62    1
    77   173   172    1
    78   173   174    1
    79   181   180    1
    80    65    64    1
    81   116   114   ar
    82   117   115   ar
    83   178   179    2
    84    62    63    2
    85   166   165    1
    86   174   175    1
    87   129   127    1
    88   114   113   ar
    89   115   113   ar
    90   127   126    2
    91   127   128    1
    92   126   125    1
    93   113   112    1
    94   165   164    1
    95   165   167    1
    96   125   124    1
    97   164   161    1
    98   185   186    1
    99   186   187    1
   100   186   189    1
   101   155   154    2
   102   191   190    2
   103   163   162    2
   104   192   190   am
   105   190   189    1
   106   187   188    2
   107   112   109    1
   108   143   141   am
   109   160   161    1
   110   161   162    1
   111   119   120    1
   112   119   110   am
   113   124   123    1
   114   108   109    1
   115   120   123    1
   116   120   121    1
   117   142   141    2
   118   154   153    1
   119   141   140    1
   120   156   153    1
   121   156   157    1
   122    69    70    1
   123   109   110    1
   124   152   153    1
   125   159   157   ar
   126    73    70    1
   127   110   111    2
   128   157   158   ar
   129   122   121    2
   130   121   130   am
   131    70    71    1
   132   140   137    1
   133   130   131    1
   134    74    75    1
   135    82    83    1
   136    82    79    1
   137    71    72    2
   138    85    83   ar
   139    75    76    1
   140    96    94    1
   141   136   137    1
   142   136   132   am
   143    83    84   ar
   144   137   138    1
   145   107   105    1
   146   134   131    1
   147   134   135    1
   148   131   132    1
   149    79    78    1
   150    79    80    1
   151   150   149    1
   152    95    94    1
   153    76    77    2
   154    94    93    2
   155   132   133    2
   156   106   105    1
   157   105   104    2
   158   138   144   am
   159   138   139    2
   160    80    81    2
   161    93    92    1
   162   144   145    1
   163   149   151    1
   164   149   148    1
   165   104   103    1
   166    87    90    1
   167    87    86    1
   168    87    88    1
   169    91    90    1
   170    91    92    1
   171   148   145    1
   172   145   146    1
   173    88    89    2
   174   103   102    1
   175   100    99    2
   176   101   102    1
   177   101    98    1
   178   146   147    2
   179    99    98    1
   180    98    97    1
