@<TRIPOS>MOLECULE
tmp/4iwzA00.pdb
 139 136 0 0 0
SMALL
GASTEIGER

@<TRIPOS>ATOM
      1  N         12.8390    0.8140    5.8540 N.3    64  ASN64      -0.1240
      2  CA        11.9930    1.7360    6.5970 C.3    64  ASN64       0.1653
      3  C         10.8160    2.1730    5.7510 C.2    64  ASN64       0.2266
      4  O         10.9950    2.5790    4.6000 O.2    64  ASN64      -0.2867
      5  CB        12.7670    2.9900    7.0200 C.3    64  ASN64       0.1155
      6  CG        13.7940    2.7160    8.0830 C.2    64  ASN64       0.2627
      7  OD1       13.7650    1.6740    8.7280 O.2    64  ASN64      -0.2716
      8  ND2       14.7150    3.6560    8.2750 N.am   64  ASN64      -0.0877
      9  N          8.4970    5.1800    5.6940 N.3    66  GLU66      -0.1245
     10  CA         8.5370    6.5090    6.3050 C.3    66  GLU66       0.1567
     11  C          7.2160    7.2240    6.1460 C.2    66  GLU66       0.2260
     12  O          6.4850    7.0040    5.1650 O.2    66  GLU66      -0.2867
     13  CB         9.6110    7.3740    5.6610 C.3    66  GLU66       0.0388
     14  CG        10.9990    6.7930    5.6800 C.3    66  GLU66       0.1160
     15  CD        11.8740    7.4590    4.6450 C.2    66  GLU66       0.3649
     16  OE1       11.3660    8.3660    3.9560 O.co2  66  GLU66      -0.2457
     17  OE2       13.0480    7.0730    4.5100 O.co2  66  GLU66      -0.2457
     18  N          7.1720    8.4670   12.7450 N.3    88  ILE88      -0.1231
     19  CA         8.0500    8.8690   11.6480 C.3    88  ILE88       0.1692
     20  C          8.3830    7.7150   10.6930 C.2    88  ILE88       0.2591
     21  O          8.4650    7.9140    9.4810 O.2    88  ILE88      -0.2718
     22  CB         9.3360    9.5890   12.1560 C.3    88  ILE88       0.0266
     23  CG1       10.1410   10.1270   10.9720 C.3    88  ILE88       0.0019
     24  CG2       10.2010    8.6710   13.0240 C.3    88  ILE88       0.0020
     25  CD1       11.2400   11.0960   11.3840 C.3    88  ILE88       0.0001
     26  N          8.5560    6.5100   11.2310 N.am   89  GLN89      -0.1979
     27  CA         8.8650    5.3600   10.3870 C.3    89  GLN89       0.1601
     28  C          8.6100    4.0620   11.1310 C.2    89  GLN89       0.2287
     29  O          8.5860    4.0490   12.3660 O.2    89  GLN89      -0.2864
     30  CB        10.3270    5.4030    9.9120 C.3    89  GLN89       0.0394
     31  CG        11.3620    5.4230   11.0430 C.3    89  GLN89       0.0908
     32  CD        12.0820    4.0980   11.2140 C.2    89  GLN89       0.2608
     33  OE1       11.5090    3.0330   10.9810 O.2    89  GLN89      -0.2717
     34  NE2       13.3500    4.1570   11.6150 N.am   89  GLN89      -0.0878
     35  N          9.9890   -0.2530   10.8270 N.3    91  HIS91      -0.1241
     36  CA        10.8690   -1.2220   10.2110 C.3    91  HIS91       0.1621
     37  C         10.8010   -2.4870   11.0340 C.2    91  HIS91       0.2264
     38  O         10.1410   -2.5340   12.0770 O.2    91  HIS91      -0.2867
     39  CB        12.3060   -0.7160   10.1930 C.3    91  HIS91       0.0745
     40  CG        12.8540   -0.4650   11.5590 C.ar   91  HIS91       0.0817
     41  ND1       12.6950    0.7360   12.2140 N.ar   91  HIS91      -0.2268
     42  CD2       13.5100   -1.2820   12.4170 C.ar   91  HIS91       0.1154
     43  CE1       13.2480    0.6550   13.4140 C.ar   91  HIS91       0.1986
     44  NE2       13.7480   -0.5610   13.5600 N.ar   91  HIS91      -0.2212
     45  N         13.1290   -6.2090   12.3550 N.3    93  HIS93      -0.1241
     46  CA        14.3470   -7.0020   12.4890 C.3    93  HIS93       0.1621
     47  C         13.9240   -8.4570   12.3870 C.2    93  HIS93       0.2264
     48  O         12.8890   -8.8370   12.9390 O.2    93  HIS93      -0.2867
     49  CB        15.0070   -6.7510   13.8450 C.3    93  HIS93       0.0745
     50  CG        15.2730   -5.3080   14.1170 C.ar   93  HIS93       0.0817
     51  ND1       16.5080   -4.7330   13.9130 N.ar   93  HIS93      -0.2268
     52  CD2       14.4500   -4.3100   14.5200 C.ar   93  HIS93       0.1154
     53  CE1       16.4420   -3.4450   14.2090 C.ar   93  HIS93       0.1986
     54  NE2       15.2030   -3.1620   14.5720 N.ar   93  HIS93      -0.2212
     55  N          9.2080   -2.4280   14.7480 N.3   116  HIS116     -0.1241
     56  CA         9.4440   -1.2050   15.5100 C.3   116  HIS116      0.1621
     57  C          8.7640   -0.0300   14.8410 C.2   116  HIS116      0.2264
     58  O          9.1060    0.3400   13.7160 O.2   116  HIS116     -0.2867
     59  CB        10.9470   -0.9330   15.6170 C.3   116  HIS116      0.0745
     60  CG        11.6540   -1.8950   16.5150 C.ar  116  HIS116      0.0817
     61  ND1       13.0190   -2.0940   16.4800 N.ar  116  HIS116     -0.2268
     62  CD2       11.1700   -2.7330   17.4620 C.ar  116  HIS116      0.1154
     63  CE1       13.3450   -3.0070   17.3800 C.ar  116  HIS116      0.1986
     64  NE2       12.2430   -3.4120   17.9860 N.ar  116  HIS116     -0.2212
     65  N          8.4870    3.7820   15.1850 N.3   118  VAL118     -0.1245
     66  CA         9.3280    4.8010   15.8210 C.3   118  VAL118      0.1561
     67  C          8.6160    6.1460   15.8770 C.2   118  VAL118      0.2260
     68  O          8.1860    6.6480   14.8330 O.2   118  VAL118     -0.2867
     69  CB        10.6380    4.9600   15.0400 C.3   118  VAL118      0.0252
     70  CG1       11.5460    5.9960   15.7120 C.3   118  VAL118      0.0019
     71  CG2       11.3490    3.6150   14.8960 C.3   118  VAL118      0.0019
     72  N         12.8110   15.1170   14.8160 N.3   127  PHE127     -0.1241
     73  CA        13.4390   13.8670   15.2020 C.3   127  PHE127      0.1605
     74  C         14.8930   14.0550   15.6180 C.2   127  PHE127      0.2264
     75  O         15.3500   13.4670   16.6050 O.2   127  PHE127     -0.2867
     76  CB        13.3510   12.8590   14.0530 C.3   127  PHE127      0.0534
     77  CG        13.9530   11.5300   14.3820 C.ar  127  PHE127     -0.0203
     78  CD1       13.1800   10.5250   14.9620 C.ar  127  PHE127     -0.0042
     79  CD2       15.2950   11.2800   14.1270 C.ar  127  PHE127     -0.0042
     80  CE1       13.7400    9.3010   15.2770 C.ar  127  PHE127     -0.0003
     81  CE2       15.8540   10.0630   14.4350 C.ar  127  PHE127     -0.0003
     82  CZ        15.0780    9.0680   15.0190 C.ar  127  PHE127     -0.0000
     83  N          9.3500    3.9930   21.0310 N.3   139  VAL139     -0.1245
     84  CA         9.2920    2.9530   20.0200 C.3   139  VAL139      0.1561
     85  C          8.3340    1.8790   20.4950 C.2   139  VAL139      0.2260
     86  O          8.4690    1.3440   21.6060 O.2   139  VAL139     -0.2867
     87  CB        10.6620    2.3540   19.6780 C.3   139  VAL139      0.0252
     88  CG1       10.5070    1.3430   18.5500 C.3   139  VAL139      0.0019
     89  CG2       11.6170    3.4400   19.2330 C.3   139  VAL139      0.0019
     90  N         18.1800    3.3570   21.1640 N.3   194  LEU194     -0.1231
     91  CA        18.1350    2.8210   19.8070 C.3   194  LEU194      0.1693
     92  C         18.9020    1.5090   19.8200 C.2   194  LEU194      0.2593
     93  O         19.9100    1.3730   20.5290 O.2   194  LEU194     -0.2718
     94  CB        18.8120    3.7800   18.8350 C.3   194  LEU194      0.0284
     95  CG        18.2820    5.2060   18.7740 C.3   194  LEU194      0.0019
     96  CD1       19.1530    6.0050   17.8270 C.3   194  LEU194      0.0001
     97  CD2       16.8270    5.2690   18.3290 C.3   194  LEU194      0.0001
     98  N         18.4520    0.5390   19.0310 N.am  195  THR195     -0.1939
     99  CA        19.1420   -0.7530   18.9950 C.3   195  THR195      0.2028
    100  C         20.1550   -0.8630   17.8580 C.2   195  THR195      0.2643
    101  O         20.7570   -1.9190   17.6680 O.2   195  THR195     -0.2714
    102  CB        18.1620   -1.9220   18.8560 C.3   195  THR195      0.1808
    103  OG1       17.5480   -1.8640   17.5660 O.3   195  THR195     -0.2208
    104  CG2       17.1040   -1.8880   19.9500 C.3   195  THR195      0.0379
    105  N         20.3120    0.2140   17.0930 N.am  196  THR196     -0.1937
    106  CA        21.3680    0.3100   16.0880 C.3   196  THR196      0.2013
    107  C         22.1550    1.5740   16.3610 C.2   196  THR196      0.2484
    108  O         21.6340    2.4910   16.9880 O.2   196  THR196     -0.2729
    109  CB        20.7910    0.4060   14.6530 C.3   196  THR196      0.1807
    110  OG1       19.9950    1.5920   14.5300 O.3   196  THR196     -0.2208
    111  CG2       19.9520   -0.8130   14.3060 C.3   196  THR196      0.0379
    112  N         23.4070    1.6410   15.8770 N.am  197  PRO197     -0.2715
    113  CA        24.1480    2.8980   16.0030 C.3   197  PRO197      0.1521
    114  C         23.3210    4.0660   15.4850 C.2   197  PRO197      0.2440
    115  O         22.6230    3.9380   14.4690 O.2   197  PRO197     -0.2731
    116  CB        25.3600    2.6640   15.1020 C.3   197  PRO197      0.0310
    117  CG        25.6240    1.2120   15.2230 C.3   197  PRO197      0.0237
    118  CD        24.2310    0.5800   15.2720 C.3   197  PRO197      0.0939
    119  N         23.3980    5.2190   16.1570 N.am  198  PRO198     -0.2727
    120  CA        24.3130    5.6050   17.2450 C.3   198  PRO198      0.1402
    121  C         23.9490    5.1230   18.6620 C.2   198  PRO198      0.2269
    122  O         24.5880    5.5720   19.6190 O.2   198  PRO198     -0.2865
    123  CB        24.2750    7.1360   17.1820 C.3   198  PRO198      0.0296
    124  CG        22.9050    7.4440   16.6930 C.3   198  PRO198      0.0237
    125  CD        22.5820    6.3570   15.6950 C.3   198  PRO198      0.0939
    126  N         10.7240    2.5120   25.6310 N.3   205  TRP205     -0.1241
    127  CA        10.2930    1.3100   24.9300 C.3   205  TRP205      0.1605
    128  C          8.9390    0.8540   25.4280 C.2   205  TRP205      0.2264
    129  O          8.6930    0.7790   26.6350 O.2   205  TRP205     -0.2867
    130  CB        11.3290    0.1870   25.0950 C.3   205  TRP205      0.0550
    131  CG        12.4000    0.3020   24.1030 C.ar  205  TRP205      0.0003
    132  CD1       13.6260    0.8700   24.2760 C.ar  205  TRP205      0.0946
    133  CD2       12.3300   -0.1220   22.7400 C.ar  205  TRP205      0.0152
    134  NE1       14.3300    0.8190   23.0960 N.ar  205  TRP205     -0.2442
    135  CE2       13.5610    0.1980   22.1440 C.ar  205  TRP205      0.0810
    136  CE3       11.3470   -0.7640   21.9740 C.ar  205  TRP205      0.0012
    137  CZ2       13.8310   -0.0760   20.8010 C.ar  205  TRP205      0.0191
    138  CZ3       11.6190   -1.0470   20.6420 C.ar  205  TRP205      0.0001
    139  CH2       12.8560   -0.7140   20.0740 C.ar  205  TRP205      0.0015
@<TRIPOS>BOND
     1    16    15   ar
     2    17    15   ar
     3     4     3    2
     4    15    14    1
     5    12    11    2
     6    13    14    1
     7    13    10    1
     8     9    10    1
     9     3     2    1
    10     1     2    1
    11    11    10    1
    12     2     5    1
    13     5     6    1
    14     6     8   am
    15     6     7    2
    16    21    20    2
    17    30    27    1
    18    30    31    1
    19    39    36    1
    20    39    40    1
    21    36    35    1
    22    36    37    1
    23    27    28    1
    24    27    26    1
    25    20    26   am
    26    20    19    1
    27    23    25    1
    28    23    22    1
    29    33    32    2
    30    37    38    2
    31    31    32    1
    32    28    29    2
    33    32    34   am
    34    40    41   ar
    35    40    42   ar
    36    19    22    1
    37    19    18    1
    38    22    24    1
    39    41    43   ar
    40    45    46    1
    41    47    46    1
    42    47    48    2
    43    42    44   ar
    44    46    49    1
    45    43    44   ar
    46    58    57    2
    47    49    50    1
    48    51    50   ar
    49    51    53   ar
    50    76    77    1
    51    76    73    1
    52    50    52   ar
    53    79    77   ar
    54    79    81   ar
    55    53    54   ar
    56   111   109    1
    57    77    78   ar
    58    81    82   ar
    59   115   114    2
    60    52    54   ar
    61   110   109    1
    62   109   106    1
    63    55    56    1
    64    72    73    1
    65    68    67    2
    66    57    56    1
    67    71    69    1
    68    78    80   ar
    69    82    80   ar
    70    69    70    1
    71    69    66    1
    72   116   117    1
    73   116   113    1
    74    65    66    1
    75    73    74    1
    76   117   118    1
    77   118   112    1
    78   114   113    1
    79   114   119   am
    80    56    59    1
    81    59    60    1
    82    74    75    2
    83   125   119    1
    84   125   124    1
    85    66    67    1
    86   112   113    1
    87   112   107   am
    88   106   107    1
    89   106   105    1
    90   119   120    1
    91   107   108    2
    92    61    60   ar
    93    61    63   ar
    94    60    62   ar
    95   124   123    1
    96   105   100   am
    97   123   120    1
    98   120   121    1
    99    63    64   ar
   100    62    64   ar
   101   103   102    1
   102   101   100    2
   103    96    95    1
   104   100    99    1
   105    97    95    1
   106    88    87    1
   107   121   122    2
   108    95    94    1
   109    94    91    1
   110   102    99    1
   111   102   104    1
   112    99    98    1
   113    98    92   am
   114    89    87    1
   115    87    84    1
   116    91    92    1
   117    91    90    1
   118    92    93    2
   119    84    85    1
   120    84    83    1
   121   139   138   ar
   122   139   137   ar
   123    85    86    2
   124   138   136   ar
   125   137   135   ar
   126   136   133   ar
   127   135   133   ar
   128   135   134   ar
   129   133   131   ar
   130   134   132   ar
   131   131   132   ar
   132   131   130    1
   133   127   130    1
   134   127   128    1
   135   127   126    1
   136   128   129    2
