@<TRIPOS>MOLECULE
tmp/4ix4B00.pdb
 164 154 0 0 0
SMALL
GASTEIGER

@<TRIPOS>ATOM
      1  N         29.3210   28.4110   11.2300 N.3    28  LEU28      -0.1231
      2  CA        29.5860   27.1040   11.8200 C.3    28  LEU28       0.1693
      3  C         31.0190   26.9660   12.3260 C.2    28  LEU28       0.2593
      4  O         31.3480   25.9920   12.9990 O.2    28  LEU28      -0.2718
      5  CB        29.2940   26.0030   10.7990 C.3    28  LEU28       0.0284
      6  CG        27.9440   25.2870   10.8740 C.3    28  LEU28       0.0019
      7  CD1       26.8210   26.2500   11.1980 C.3    28  LEU28       0.0001
      8  CD2       27.6680   24.5160    9.5890 C.3    28  LEU28       0.0001
      9  N         31.8750   27.9290   11.9950 N.am   29  GLY29      -0.1942
     10  CA        33.2490   27.9130   12.4780 C.3    29  GLY29       0.2014
     11  C         34.0480   29.1410   12.0850 C.2    29  GLY29       0.2640
     12  O         33.6860   29.8490   11.1480 O.2    29  GLY29      -0.2714
     13  N         35.1410   29.3900   12.8020 N.am   30  SER30      -0.1935
     14  CA        36.0110   30.5250   12.5090 C.3    30  SER30       0.2055
     15  C         36.2830   30.6240   11.0120 C.2    30  SER30       0.2644
     16  O         36.1110   31.6840   10.4100 O.2    30  SER30      -0.2714
     17  CB        37.3280   30.3980   13.2780 C.3    30  SER30       0.2130
     18  OG        38.2040   31.4690   12.9790 O.3    30  SER30      -0.2179
     19  N         36.7050   29.5140   10.4160 N.am   31  GLY31      -0.1939
     20  CA        36.9100   29.4590    8.9830 C.3    31  GLY31       0.2014
     21  C         38.2450   30.0180    8.5360 C.2    31  GLY31       0.2638
     22  O         38.8290   30.8840    9.1880 O.2    31  GLY31      -0.2714
     23  N         38.7300   29.5210    7.4020 N.am   32  ASN32      -0.1972
     24  CA        39.9800   30.0010    6.8260 C.3    32  ASN32       0.1688
     25  C         39.7600   31.2570    5.9900 C.2    32  ASN32       0.2292
     26  O         39.7600   32.3700    6.5150 O.2    32  ASN32      -0.2864
     27  CB        40.6340   28.9090    5.9780 C.3    32  ASN32       0.1181
     28  CG        42.0880   29.2060    5.6670 C.2    32  ASN32       0.2629
     29  OD1       42.4130   30.2450    5.0920 O.2    32  ASN32      -0.2716
     30  ND2       42.9730   28.2910    6.0470 N.am   32  ASN32      -0.0877
     31  N         36.9900   31.5310    4.2200 N.3    34  GLY34      -0.1225
     32  CA        35.5570   31.5240    3.9840 C.3    34  GLY34       0.1811
     33  C         34.7460   31.2850    5.2440 C.2    34  GLY34       0.2280
     34  O         35.3030   30.9800    6.3050 O.2    34  GLY34      -0.2866
     35  N         31.1380   29.3540    6.7940 N.3    36  VAL36      -0.1245
     36  CA        30.2010   28.2680    6.5550 C.3    36  VAL36       0.1561
     37  C         28.9220   28.4700    7.3770 C.2    36  VAL36       0.2260
     38  O         28.9820   28.8230    8.5580 O.2    36  VAL36      -0.2867
     39  CB        30.8620   26.9140    6.9060 C.3    36  VAL36       0.0252
     40  CG1       29.8590   25.7910    6.8470 C.3    36  VAL36       0.0019
     41  CG2       32.0260   26.6380    5.9660 C.3    36  VAL36       0.0019
     42  N         24.8490   22.7010    3.7720 N.3    48  VAL48      -0.1245
     43  CA        25.8360   23.6100    4.3250 C.3    48  VAL48       0.1561
     44  C         26.3170   24.4780    3.1640 C.2    48  VAL48       0.2260
     45  O         26.4340   24.0070    2.0230 O.2    48  VAL48      -0.2867
     46  CB        26.9800   22.8290    5.0160 C.3    48  VAL48       0.0252
     47  CG1       28.1280   23.7290    5.3580 C.3    48  VAL48       0.0019
     48  CG2       26.4410   22.1580    6.2720 C.3    48  VAL48       0.0019
     49  N         28.9540   27.7990    1.8720 N.3    50  LYS50      -0.1245
     50  CA        30.1950   28.5260    2.1590 C.3    50  LYS50       0.1561
     51  C         30.3870   29.6800    1.1890 C.2    50  LYS50       0.2260
     52  O         30.2220   29.5120   -0.0160 O.2    50  LYS50      -0.2867
     53  CB        31.4130   27.5990    2.0690 C.3    50  LYS50       0.0271
     54  CG        32.7480   28.2920    2.3580 C.3    50  LYS50       0.0035
     55  CD        33.9150   27.3220    2.2870 C.3    50  LYS50       0.0206
     56  CE        35.2070   27.9900    2.7190 C.3    50  LYS50       0.1093
     57  NZ        36.3120   26.9940    2.8430 N.3    50  LYS50      -0.1314
     58  N         32.1720   15.0370    1.8160 N.3    82  ALA82      -0.1245
     59  CA        30.7920   15.5230    1.8240 C.3    82  ALA82       0.1562
     60  C         30.2680   15.7050    0.4000 C.2    82  ALA82       0.2260
     61  O         30.9670   16.2270   -0.4660 O.2    82  ALA82      -0.2867
     62  CB        30.6830   16.8340    2.5870 C.3    82  ALA82       0.0290
     63  N         26.8970   21.9800   -0.0500 N.3   111  TRP111     -0.1227
     64  CA        27.0600   20.5480    0.1510 C.3   111  TRP111      0.1737
     65  C         25.8770   20.0380    0.9550 C.2   111  TRP111      0.2595
     66  O         25.2040   20.8020    1.6530 O.2   111  TRP111     -0.2718
     67  CB        28.3080   20.2470    0.9800 C.3   111  TRP111      0.0564
     68  CG        29.6140   20.6810    0.4120 C.ar  111  TRP111      0.0003
     69  CD1       30.4930   19.9160   -0.3000 C.ar  111  TRP111      0.0946
     70  CD2       30.2200   21.9710    0.5440 C.ar  111  TRP111      0.0152
     71  NE1       31.6090   20.6520   -0.6210 N.ar  111  TRP111     -0.2442
     72  CE2       31.4660   21.9170   -0.1130 C.ar  111  TRP111      0.0810
     73  CE3       29.8320   23.1660    1.1660 C.ar  111  TRP111      0.0012
     74  CZ2       32.3280   23.0120   -0.1770 C.ar  111  TRP111      0.0191
     75  CZ3       30.6960   24.2590    1.1070 C.ar  111  TRP111      0.0001
     76  CH2       31.9240   24.1740    0.4350 C.ar  111  TRP111      0.0015
     77  N         25.6620   18.7300    0.8970 N.am  112  ALA112     -0.1966
     78  CA        24.7320   18.0850    1.8080 C.3   112  ALA112      0.1728
     79  C         25.2590   18.2080    3.2360 C.2   112  ALA112      0.2616
     80  O         26.4620   18.0830    3.4790 O.2   112  ALA112     -0.2715
     81  CB        24.5790   16.6200    1.4480 C.3   112  ALA112      0.0334
     82  N         24.3630   18.4400    4.1870 N.am  113  ASN113     -0.1958
     83  CA        24.7440   18.3420    5.5910 C.3   113  ASN113      0.1819
     84  C         24.9060   16.8600    5.9350 C.2   113  ASN113      0.2621
     85  O         23.9240   16.1110    5.9670 O.2   113  ASN113     -0.2715
     86  CB        23.6930   19.0000    6.4870 C.3   113  ASN113      0.1195
     87  CG        24.0960   19.0060    7.9470 C.2   113  ASN113      0.2630
     88  OD1       24.7260   18.0710    8.4260 O.2   113  ASN113     -0.2716
     89  ND2       23.7310   20.0640    8.6630 N.am  113  ASN113     -0.0877
     90  N         26.1470   16.4340    6.1570 N.am  114  GLU114     -0.1963
     91  CA        26.4520   15.0150    6.3480 C.3   114  GLU114      0.1733
     92  C         26.2440   14.5370    7.7830 C.2   114  GLU114      0.2617
     93  O         26.2960   13.3380    8.0610 O.2   114  GLU114     -0.2715
     94  CB        27.8880   14.7220    5.9100 C.3   114  GLU114      0.0429
     95  CG        28.1210   14.9390    4.4150 C.3   114  GLU114      0.1163
     96  CD        27.4990   13.8630    3.5370 C.2   114  GLU114      0.3649
     97  OE1       27.0240   12.8290    4.0640 O.co2 114  GLU114     -0.2457
     98  OE2       27.5050   14.0520    2.3020 O.co2 114  GLU114     -0.2457
     99  N         25.9950   15.4740    8.6880 N.am  115  GLY115     -0.1940
    100  CA        25.7520   15.1330   10.0760 C.3   115  GLY115      0.2014
    101  C         26.1730   16.2490   11.0050 C.2   115  GLY115      0.2638
    102  O         27.0370   17.0600   10.6670 O.2   115  GLY115     -0.2714
    103  N         25.5740   16.2920   12.1870 N.am  116  GLU116     -0.1977
    104  CA        25.7900   17.4290   13.0710 C.3   116  GLU116      0.1602
    105  C         27.0500   17.2950   13.9230 C.2   116  GLU116      0.2287
    106  O         27.4130   18.2110   14.6640 O.2   116  GLU116     -0.2864
    107  CB        24.5430   17.7130   13.9170 C.3   116  GLU116      0.0415
    108  CG        23.4860   18.5250   13.1660 C.3   116  GLU116      0.1163
    109  CD        24.0320   19.8520   12.6430 C.2   116  GLU116      0.3649
    110  OE1       25.0280   20.3500   13.2100 O.co2 116  GLU116     -0.2457
    111  OE2       23.4750   20.3960   11.6630 O.co2 116  GLU116     -0.2457
    112  N         31.2860   16.0940   14.3640 N.3   118  THR118     -0.1218
    113  CA        32.5700   15.7740   13.7650 C.3   118  THR118      0.1862
    114  C         33.2080   14.7390   14.6710 C.2   118  THR118      0.2287
    115  O         32.7880   14.5540   15.8160 O.2   118  THR118     -0.2866
    116  CB        33.5180   16.9810   13.6730 C.3   118  THR118      0.1770
    117  OG1       33.8840   17.4090   14.9920 O.3   118  THR118     -0.2211
    118  CG2       32.8610   18.1290   12.9340 C.3   118  THR118      0.0375
    119  N         42.2330   15.8260    9.7820 N.3   170  LYS170     -0.1245
    120  CA        42.1960   15.8770   11.2380 C.3   170  LYS170      0.1561
    121  C         40.7910   15.4820   11.6570 C.2   170  LYS170      0.2260
    122  O         39.8720   15.5130   10.8380 O.2   170  LYS170     -0.2867
    123  CB        42.5440   17.2780   11.7630 C.3   170  LYS170      0.0271
    124  CG        41.6490   18.3920   11.2360 C.3   170  LYS170      0.0035
    125  CD        42.2250   19.7560   11.6170 C.3   170  LYS170      0.0206
    126  CE        41.3240   20.8910   11.1350 C.3   170  LYS170      0.1093
    127  NZ        42.1010   22.0890   10.7350 N.3   170  LYS170     -0.1314
    128  N         38.5730   17.0830   13.2800 N.3   172  ALA172     -0.1231
    129  CA        37.6140   18.1530   13.0080 C.3   172  ALA172      0.1694
    130  C         37.0800   18.1670   11.5680 C.2   172  ALA172      0.2592
    131  O         36.0220   18.7490   11.3030 O.2   172  ALA172     -0.2718
    132  CB        38.2220   19.4920   13.3520 C.3   172  ALA172      0.0304
    133  N         37.8090   17.5470   10.6420 N.am  173  ASN173     -0.1974
    134  CA        37.3670   17.5030    9.2490 C.3   173  ASN173      0.1688
    135  C         36.8860   16.1370    8.8230 C.2   173  ASN173      0.2292
    136  O         36.9500   15.7830    7.6360 O.2   173  ASN173     -0.2864
    137  CB        38.4610   17.9630    8.3020 C.3   173  ASN173      0.1181
    138  CG        38.5920   19.4710    8.2650 C.2   173  ASN173      0.2629
    139  OD1       37.6440   20.2100    8.5800 O.2   173  ASN173     -0.2716
    140  ND2       39.7580   19.9410    7.8620 N.am  173  ASN173     -0.0877
    141  N         33.3570   13.6760    9.4060 N.3   175  ILE175     -0.1245
    142  CA        32.0100   13.5370    9.9330 C.3   175  ILE175      0.1561
    143  C         31.5540   12.0920    9.7880 C.2   175  ILE175      0.2260
    144  O         31.7410   11.4900    8.7290 O.2   175  ILE175     -0.2867
    145  CB        31.0210   14.4650    9.1940 C.3   175  ILE175      0.0252
    146  CG1       31.4030   15.9310    9.4230 C.3   175  ILE175      0.0019
    147  CG2       29.5850   14.2120    9.6420 C.3   175  ILE175      0.0019
    148  CD1       30.4810   16.9320    8.7480 C.3   175  ILE175      0.0001
    149  N         35.5770   16.4930    5.1410 N.3   187  ILE187     -0.1231
    150  CA        35.0710   17.7870    4.7040 C.3   187  ILE187      0.1692
    151  C         36.2370   18.7460    4.5170 C.2   187  ILE187      0.2592
    152  O         37.3780   18.4470    4.8930 O.2   187  ILE187     -0.2718
    153  CB        34.0640   18.4020    5.7060 C.3   187  ILE187      0.0266
    154  CG1       34.6670   18.4450    7.1110 C.3   187  ILE187      0.0019
    155  CG2       32.7580   17.6170    5.7100 C.3   187  ILE187      0.0020
    156  CD1       33.8320   19.2400    8.1070 C.3   187  ILE187      0.0001
    157  N         35.9340   19.9170    3.9670 N.am  188  ASP188     -0.1974
    158  CA        36.9010   21.0020    3.8700 C.3   188  ASP188      0.1709
    159  C         38.0550   20.7060    2.9200 C.2   188  ASP188      0.2293
    160  O         39.1440   20.3250    3.3500 O.2   188  ASP188     -0.2864
    161  CB        37.4460   21.3550    5.2570 C.3   188  ASP188      0.1436
    162  CG        37.9260   22.7900    5.3470 C.2   188  ASP188      0.3671
    163  OD1       38.1160   23.4220    4.2860 O.co2 188  ASP188     -0.2456
    164  OD2       38.1140   23.2860    6.4770 O.co2 188  ASP188     -0.2456
@<TRIPOS>BOND
     1    71    69   ar
     2    71    72   ar
     3    61    60    2
     4    69    68   ar
     5    74    72   ar
     6    74    76   ar
     7    72    70   ar
     8    63    64    1
     9    52    51    2
    10    64    65    1
    11    64    67    1
    12    60    59    1
    13    68    70   ar
    14    68    67    1
    15    76    75   ar
    16    70    73   ar
    17    77    65   am
    18    77    78    1
    19    65    66    2
    20    75    73   ar
    21    51    50    1
    22    81    78    1
    23    78    79    1
    24    58    59    1
    25    59    62    1
    26    49    50    1
    27    45    44    2
    28    53    50    1
    29    53    54    1
    30    55    54    1
    31    55    56    1
    32    98    96   ar
    33    56    57    1
    34   159   160    2
    35   159   158    1
    36    44    43    1
    37    79    80    2
    38    79    82   am
    39    96    97   ar
    40    96    95    1
    41    42    43    1
    42   158   157    1
    43   158   161    1
    44   157   151   am
    45    32    31    1
    46    32    33    1
    47    82    83    1
    48   163   162   ar
    49    43    46    1
    50    95    94    1
    51   151   150    1
    52   151   152    2
    53   150   149    1
    54   150   153    1
    55    46    47    1
    56    46    48    1
    57    29    28    2
    58    33    34    2
    59   161   162    1
    60   162   164   ar
    61    83    84    1
    62    83    86    1
    63    28    27    1
    64    28    30   am
    65   153   155    1
    66   153   154    1
    67    94    91    1
    68    84    85    2
    69    84    90   am
    70    41    39    1
    71    27    24    1
    72    25    26    2
    73    25    24    1
    74    90    91    1
    75    91    92    1
    76    86    87    1
    77    36    35    1
    78    36    39    1
    79    36    37    1
    80    24    23    1
    81    40    39    1
    82   154   156    1
    83    37    38    2
    84    23    21   am
    85   136   135    2
    86    92    93    2
    87    92    99   am
    88   140   138   am
    89    87    88    2
    90    87    89   am
    91   138   137    1
    92   138   139    2
    93   137   134    1
    94    21    20    1
    95    21    22    2
    96    99   100    1
    97   144   143    2
    98   148   146    1
    99   135   134    1
   100    20    19    1
   101   145   146    1
   102   145   147    1
   103   145   142    1
   104   134   133    1
   105   141   142    1
   106     8     6    1
   107   119   120    1
   108   143   142    1
   109   100   101    1
   110    16    15    2
   111    19    15   am
   112   133   130   am
   113   102   101    2
   114   127   126    1
   115     5     6    1
   116     5     2    1
   117   122   121    2
   118     6     7    1
   119   101   103   am
   120    15    14    1
   121   126   125    1
   122    12    11    2
   123     1     2    1
   124   124   125    1
   125   124   123    1
   126   120   121    1
   127   120   123    1
   128   131   130    2
   129   130   129    1
   130   111   109   ar
   131     2     3    1
   132     9     3   am
   133     9    10    1
   134    11    10    1
   135    11    13   am
   136   103   104    1
   137     3     4    2
   138    14    13    1
   139    14    17    1
   140   109   108    1
   141   109   110   ar
   142   118   116    1
   143    18    17    1
   144   129   128    1
   145   129   132    1
   146   104   107    1
   147   104   105    1
   148   108   107    1
   149   116   113    1
   150   116   117    1
   151   113   112    1
   152   113   114    1
   153   105   106    2
   154   114   115    2
