@<TRIPOS>MOLECULE
tmp/4ix5A00.pdb
 164 155 0 0 0
SMALL
GASTEIGER

@<TRIPOS>ATOM
      1  N         32.9750   37.1920   18.7090 N.3    28  LEU28      -0.1231
      2  CA        32.4960   38.3800   18.0210 C.3    28  LEU28       0.1693
      3  C         33.0770   38.3660   16.6180 C.2    28  LEU28       0.2593
      4  O         32.6780   39.1470   15.7540 O.2    28  LEU28      -0.2718
      5  CB        32.9280   39.6450   18.7620 C.3    28  LEU28       0.0284
      6  CG        32.6560   39.6750   20.2670 C.3    28  LEU28       0.0019
      7  CD1       33.3820   40.8410   20.9210 C.3    28  LEU28       0.0001
      8  CD2       31.1620   39.7470   20.5420 C.3    28  LEU28       0.0001
      9  N         34.0260   37.4610   16.4060 N.am   29  GLY29      -0.1942
     10  CA        34.6500   37.2960   15.1160 C.3    29  GLY29       0.2014
     11  C         35.9770   36.5790   15.2260 C.2    29  GLY29       0.2640
     12  O         36.6050   36.5130   16.2920 O.2    29  GLY29      -0.2714
     13  N         36.3960   36.0220   14.1020 N.am   30  SER30      -0.1935
     14  CA        37.6930   35.3880   14.0020 C.3    30  SER30       0.2055
     15  C         38.4150   36.0150   12.8250 C.2    30  SER30       0.2643
     16  O         37.8500   36.1590   11.7360 O.2    30  SER30      -0.2714
     17  CB        37.5370   33.8870   13.7880 C.3    30  SER30       0.2130
     18  OG        36.8010   33.6420   12.6060 O.3    30  SER30      -0.2179
     19  N         39.6580   36.4110   13.0620 N.am   31  GLY31      -0.1954
     20  CA        40.4780   37.0060   12.0290 C.3    31  GLY31       0.1869
     21  C         41.4460   35.9720   11.5180 C.2    31  GLY31       0.2309
     22  O         41.2580   34.7790   11.7260 O.2    31  GLY31      -0.2863
     23  N         43.4170   34.6260   15.0650 N.3    34  GLY34      -0.1225
     24  CA        42.8940   34.6080   16.4210 C.3    34  GLY34       0.1811
     25  C         41.3860   34.7090   16.5210 C.2    34  GLY34       0.2280
     26  O         40.7010   34.8890   15.5170 O.2    34  GLY34      -0.2866
     27  N         38.1400   36.5190   18.8810 N.3    36  VAL36      -0.1245
     28  CA        37.7600   37.5360   19.8570 C.3    36  VAL36       0.1561
     29  C         36.4550   37.1910   20.5660 C.2    36  VAL36       0.2260
     30  O         35.4710   36.8090   19.9250 O.2    36  VAL36      -0.2867
     31  CB        37.6220   38.9120   19.1830 C.3    36  VAL36       0.0252
     32  CG1       37.0990   39.9360   20.1780 C.3    36  VAL36       0.0019
     33  CG2       38.9660   39.3480   18.5960 C.3    36  VAL36       0.0019
     34  N         37.0180   42.9340   25.9910 N.3    48  VAL48      -0.1245
     35  CA        37.0860   41.9760   24.8960 C.3    48  VAL48       0.1561
     36  C         38.4270   41.2540   24.9550 C.2    48  VAL48       0.2260
     37  O         39.4450   41.8170   25.3820 O.2    48  VAL48      -0.2867
     38  CB        36.8410   42.6330   23.5250 C.3    48  VAL48       0.0252
     39  CG1       35.5640   43.4730   23.5790 C.3    48  VAL48       0.0019
     40  CG2       38.0230   43.4740   23.1220 C.3    48  VAL48       0.0019
     41  N         41.1690   38.2700   23.1920 N.3    50  LYS50      -0.1245
     42  CA        41.5650   37.5990   21.9660 C.3    50  LYS50       0.1561
     43  C         42.6050   36.5400   22.2590 C.2    50  LYS50       0.2260
     44  O         43.5510   36.7940   23.0110 O.2    50  LYS50      -0.2867
     45  CB        42.0990   38.6180   20.9500 C.3    50  LYS50       0.0271
     46  CG        42.5800   37.9930   19.6610 C.3    50  LYS50       0.0035
     47  CD        43.1110   39.0270   18.6940 C.3    50  LYS50       0.0206
     48  CE        43.5120   38.3660   17.3660 C.3    50  LYS50       0.1093
     49  NZ        43.8730   39.3730   16.3090 N.3    50  LYS50      -0.1314
     50  N         51.1420   41.2850   17.7130 N.3    66  GLU66      -0.1245
     51  CA        50.0070   42.1570   18.0190 C.3    66  GLU66       0.1567
     52  C         50.1010   42.6950   19.4490 C.2    66  GLU66       0.2260
     53  O         49.8250   43.8710   19.7050 O.2    66  GLU66      -0.2867
     54  CB        48.6690   41.4170   17.7990 C.3    66  GLU66       0.0388
     55  CG        47.4390   42.2730   18.1060 C.3    66  GLU66       0.1160
     56  CD        46.1360   41.6220   17.7120 C.2    66  GLU66       0.3649
     57  OE1       46.1640   40.5170   17.1190 O.co2  66  GLU66      -0.2457
     58  OE2       45.0840   42.2240   18.0010 O.co2  66  GLU66      -0.2457
     59  N         41.4290   51.0760   20.5770 N.3    82  ALA82      -0.1245
     60  CA        40.7940   50.5490   21.7920 C.3    82  ALA82       0.1562
     61  C         41.7980   50.4390   22.9330 C.2    82  ALA82       0.2260
     62  O         42.9240   49.9840   22.7400 O.2    82  ALA82      -0.2867
     63  CB        40.1870   49.1960   21.5240 C.3    82  ALA82       0.0290
     64  N         41.2320   44.0710   25.9850 N.3   111  TRP111     -0.1227
     65  CA        40.9870   45.4920   25.7850 C.3   111  TRP111      0.1737
     66  C         39.6450   45.8700   26.4060 C.2   111  TRP111      0.2595
     67  O         38.7740   45.0160   26.5940 O.2   111  TRP111     -0.2718
     68  CB        40.8760   45.8190   24.2870 C.3   111  TRP111      0.0564
     69  CG        42.0440   45.4870   23.4260 C.ar  111  TRP111      0.0003
     70  CD1       43.0450   46.3420   23.0340 C.ar  111  TRP111      0.0946
     71  CD2       42.3260   44.2270   22.8020 C.ar  111  TRP111      0.0152
     72  NE1       43.9380   45.6810   22.2180 N.ar  111  TRP111     -0.2442
     73  CE2       43.5240   44.3810   22.0690 C.ar  111  TRP111      0.0810
     74  CE3       41.6810   42.9780   22.7940 C.ar  111  TRP111      0.0012
     75  CZ2       44.0840   43.3470   21.3220 C.ar  111  TRP111      0.0191
     76  CZ3       42.2370   41.9500   22.0490 C.ar  111  TRP111      0.0001
     77  CH2       43.4310   42.1370   21.3280 C.ar  111  TRP111      0.0015
     78  N         39.4650   47.1590   26.6790 N.am  112  ALA112     -0.1966
     79  CA        38.1390   47.6810   26.9870 C.3   112  ALA112      0.1728
     80  C         37.1910   47.4260   25.8270 C.2   112  ALA112      0.2616
     81  O         37.5550   47.6070   24.6620 O.2   112  ALA112     -0.2715
     82  CB        38.2030   49.1960   27.2540 C.3   112  ALA112      0.0334
     83  N         35.9670   47.0210   26.1420 N.am  113  ASN113     -0.1958
     84  CA        34.9300   46.9930   25.1250 C.3   113  ASN113      0.1819
     85  C         34.5210   48.4300   24.8270 C.2   113  ASN113      0.2621
     86  O         33.8740   49.0870   25.6460 O.2   113  ASN113     -0.2715
     87  CB        33.7330   46.1490   25.5830 C.3   113  ASN113      0.1195
     88  CG        32.6770   46.0070   24.4990 C.2   113  ASN113      0.2630
     89  OD1       32.5180   46.8920   23.6770 O.2   113  ASN113     -0.2716
     90  ND2       31.9500   44.8900   24.5010 N.am  113  ASN113     -0.0877
     91  N         34.9210   48.9280   23.6590 N.am  114  GLU114     -0.1963
     92  CA        34.6990   50.3310   23.3070 C.3   114  GLU114      0.1733
     93  C         33.3070   50.6170   22.7440 C.2   114  GLU114      0.2617
     94  O         32.9390   51.7840   22.5490 O.2   114  GLU114     -0.2715
     95  CB        35.7490   50.7860   22.2900 C.3   114  GLU114      0.0429
     96  CG        37.1860   50.6780   22.8130 C.3   114  GLU114      0.1163
     97  CD        37.5330   51.7930   23.7930 C.2   114  GLU114      0.3649
     98  OE1       36.7430   52.7620   23.9150 O.co2 114  GLU114     -0.2457
     99  OE2       38.5860   51.6860   24.4420 O.co2 114  GLU114     -0.2457
    100  N         32.5430   49.5660   22.4630 N.am  115  GLY115     -0.1940
    101  CA        31.1960   49.7440   21.9360 C.3   115  GLY115      0.2014
    102  C         30.7410   48.5610   21.1160 C.2   115  GLY115      0.2639
    103  O         31.5660   47.8470   20.5540 O.2   115  GLY115     -0.2714
    104  N         29.4260   48.3540   21.0250 N.am  116  GLU116     -0.1963
    105  CA        28.9130   47.1600   20.3580 C.3   116  GLU116      0.1733
    106  C         28.8290   47.2990   18.8460 C.2   116  GLU116      0.2616
    107  O         28.4760   46.3560   18.1390 O.2   116  GLU116     -0.2715
    108  CB        27.5780   46.7170   20.9620 C.3   116  GLU116      0.0429
    109  CG        27.7530   45.9180   22.2590 C.3   116  GLU116      0.1163
    110  CD        28.6450   44.6880   22.0810 C.2   116  GLU116      0.3649
    111  OE1       28.5100   43.9910   21.0510 O.co2 116  GLU116     -0.2457
    112  OE2       29.4890   44.4210   22.9660 O.co2 116  GLU116     -0.2457
    113  N         29.2080   48.4690   18.3580 N.am  117  ASN117     -0.1958
    114  CA        29.1130   48.7800   16.9540 C.3   117  ASN117      0.1819
    115  C         30.4630   48.6450   16.2580 C.2   117  ASN117      0.2621
    116  O         31.5020   48.4780   16.9140 O.2   117  ASN117     -0.2715
    117  CB        28.6590   50.2290   16.8370 C.3   117  ASN117      0.1195
    118  CG        29.6820   51.1980   17.4340 C.2   117  ASN117      0.2630
    119  OD1       29.5750   51.6250   18.5940 O.2   117  ASN117     -0.2716
    120  ND2       30.6960   51.5220   16.6470 N.am  117  ASN117     -0.0877
    121  N         30.4430   48.6720   14.9320 N.am  118  THR118     -0.1951
    122  CA        31.5980   49.1340   14.1650 C.3   118  THR118      0.1897
    123  C         31.0290   50.1760   13.2180 C.2   118  THR118      0.2313
    124  O         29.8090   50.2580   13.0430 O.2   118  THR118     -0.2863
    125  CB        32.2860   48.0470   13.3110 C.3   118  THR118      0.1794
    126  OG1       31.3530   47.5070   12.3570 O.3   118  THR118     -0.2208
    127  CG2       32.8510   46.9290   14.1890 C.3   118  THR118      0.0378
    128  N         35.1870   48.4550    9.2510 N.3   172  ALA172     -0.1231
    129  CA        34.9960   47.3500   10.1840 C.3   172  ALA172      0.1694
    130  C         35.9480   47.4080   11.3800 C.2   172  ALA172      0.2592
    131  O         35.6930   46.7910   12.4210 O.2   172  ALA172     -0.2718
    132  CB        35.1100   45.9890    9.4580 C.3   172  ALA172      0.0304
    133  N         37.0430   48.1540   11.2350 N.am  173  ASN173     -0.1974
    134  CA        38.0230   48.2740   12.3210 C.3   173  ASN173      0.1688
    135  C         37.9770   49.6330   13.0000 C.2   173  ASN173      0.2292
    136  O         38.9780   50.1050   13.5500 O.2   173  ASN173     -0.2864
    137  CB        39.4370   47.9970   11.8280 C.3   173  ASN173      0.1181
    138  CG        39.7350   46.5180   11.7480 C.2   173  ASN173      0.2629
    139  OD1       39.0630   45.7070   12.3930 O.2   173  ASN173     -0.2716
    140  ND2       40.7280   46.1590   10.9630 N.am  173  ASN173     -0.0877
    141  N         35.4140   51.7750   15.7630 N.3   175  ILE175     -0.1245
    142  CA        34.2830   51.7560   16.6740 C.3   175  ILE175      0.1561
    143  C         33.9850   53.1760   17.1420 C.2   175  ILE175      0.2260
    144  O         34.8910   53.9060   17.5400 O.2   175  ILE175     -0.2867
    145  CB        34.5700   50.8350   17.8790 C.3   175  ILE175      0.0252
    146  CG1       34.7130   49.3780   17.3950 C.3   175  ILE175      0.0019
    147  CG2       33.4700   50.9620   18.9470 C.3   175  ILE175      0.0019
    148  CD1       34.9930   48.3780   18.5180 C.3   175  ILE175      0.0001
    149  N         40.4990   49.5340   15.9410 N.3   187  ILE187     -0.1231
    150  CA        40.8120   48.2580   16.5680 C.3   187  ILE187      0.1692
    151  C         41.6960   47.4460   15.6590 C.2   187  ILE187      0.2592
    152  O         41.8940   47.7920   14.4900 O.2   187  ILE187     -0.2718
    153  CB        39.5550   47.4400   16.8840 C.3   187  ILE187      0.0266
    154  CG1       38.6990   47.3020   15.6230 C.3   187  ILE187      0.0019
    155  CG2       38.7990   48.0780   18.0630 C.3   187  ILE187      0.0020
    156  CD1       37.5340   46.3330   15.7860 C.3   187  ILE187      0.0001
    157  N         42.2430   46.3660   16.2150 N.am  188  ASP188     -0.1974
    158  CA        42.9110   45.3310   15.4300 C.3   188  ASP188      0.1709
    159  C         44.2650   45.7280   14.8370 C.2   188  ASP188      0.2293
    160  O         44.3960   46.0450   13.6370 O.2   188  ASP188     -0.2864
    161  CB        41.9540   44.7750   14.3540 C.3   188  ASP188      0.1436
    162  CG        42.5370   43.5920   13.6140 C.2   188  ASP188      0.3671
    163  OD1       43.5680   43.0300   14.0620 O.co2 188  ASP188     -0.2456
    164  OD2       41.9590   43.2260   12.5770 O.co2 188  ASP188     -0.2456
@<TRIPOS>BOND
     1   128   129    1
     2   132   129    1
     3   129   130    1
     4   140   138   am
     5   133   130   am
     6   133   134    1
     7   130   131    2
     8    21    22    2
     9    21    20    1
    10    16    15    2
    11   138   137    1
    12   138   139    2
    13   137   134    1
    14    20    19    1
    15   134   135    1
    16   126   125    1
    17   164   162   ar
    18    18    17    1
    19    15    19   am
    20    15    14    1
    21   135   136    2
    22   124   123    2
    23   123   122    1
    24   125   122    1
    25   125   127    1
    26   162   163   ar
    27   162   161    1
    28   160   159    2
    29    17    14    1
    30    14    13    1
    31    13    11   am
    32   122   121    1
    33   161   158    1
    34   152   151    2
    35   159   158    1
    36   121   115   am
    37    23    24    1
    38    10    11    1
    39    10     9    1
    40    11    12    2
    41   158   157    1
    42    26    25    2
    43   154   156    1
    44   154   153    1
    45   151   157   am
    46   151   150    1
    47     4     3    2
    48   141   142    1
    49   149   150    1
    50   115   116    2
    51   115   114    1
    52    49    48    1
    53     9     3   am
    54    24    25    1
    55   150   153    1
    56     3     2    1
    57   120   118   am
    58   142   143    1
    59   142   145    1
    60   117   114    1
    61   117   118    1
    62   153   155    1
    63   114   113    1
    64    57    56   ar
    65   143   144    2
    66    48    47    1
    67   146   145    1
    68   146   148    1
    69   118   119    2
    70    56    58   ar
    71    56    55    1
    72    50    51    1
    73    54    51    1
    74    54    55    1
    75   145   147    1
    76    51    52    1
    77     2     1    1
    78     2     5    1
    79   107   106    2
    80   113   106   am
    81    33    31    1
    82    47    46    1
    83     5     6    1
    84   106   105    1
    85    27    28    1
    86    31    28    1
    87    31    32    1
    88    52    53    2
    89    46    45    1
    90    28    29    1
    91    30    29    2
    92     6     8    1
    93     6     7    1
    94   105   108    1
    95   105   104    1
    96   103   102    2
    97    59    60    1
    98    45    42    1
    99   108   109    1
   100   104   102   am
   101   111   110   ar
   102   102   101    1
   103    75    77   ar
   104    75    73   ar
   105    77    76   ar
   106    63    60    1
   107    60    61    1
   108   101   100    1
   109    42    43    1
   110    42    41    1
   111    76    74   ar
   112    73    72   ar
   113    73    71   ar
   114   110   109    1
   115   110   112   ar
   116    72    70   ar
   117    43    44    2
   118    95    96    1
   119    95    92    1
   120   100    93   am
   121    94    93    2
   122    62    61    2
   123    93    92    1
   124    74    71   ar
   125    71    69   ar
   126    96    97    1
   127    70    69   ar
   128    40    38    1
   129    92    91    1
   130    69    68    1
   131    38    39    1
   132    38    35    1
   133    91    85   am
   134    89    88    2
   135    97    98   ar
   136    97    99   ar
   137    68    65    1
   138    88    90   am
   139    88    87    1
   140    81    80    2
   141    85    84    1
   142    85    86    2
   143    35    36    1
   144    35    34    1
   145    36    37    2
   146    84    87    1
   147    84    83    1
   148    65    64    1
   149    65    66    1
   150    80    83   am
   151    80    79    1
   152    66    67    2
   153    66    78   am
   154    78    79    1
   155    79    82    1
