@<TRIPOS>MOLECULE
tmp/4ix9D00.pdb
 71 68 0 0 0
SMALL
GASTEIGER

@<TRIPOS>ATOM
      1  N         22.4640    3.3960   61.6670 N.3     2  THR2       -0.1203
      2  CA        22.2230    2.3460   62.6600 C.3     2  THR2        0.1994
      3  C         21.5550    2.8980   63.9290 C.2     2  THR2        0.2618
      4  O         21.0600    2.1220   64.7580 O.2     2  THR2       -0.2717
      5  CB        23.5580    1.6860   63.1200 C.3     2  THR2        0.1784
      6  OG1       24.5860    2.6920   63.2810 O.3     2  THR2       -0.2211
      7  CG2       24.0190    0.5970   62.1240 C.3     2  THR2        0.0376
      8  N         21.5530    4.2280   64.0730 N.am    3  LEU3       -0.1965
      9  CA        21.0470    4.8800   65.2750 C.3     3  LEU3        0.1728
     10  C         19.5130    4.9810   65.3760 C.2     3  LEU3        0.2616
     11  O         18.7980    5.0300   64.3650 O.2     3  LEU3       -0.2715
     12  CB        21.6820    6.2440   65.4010 C.3     3  LEU3        0.0311
     13  CG        23.0240    6.4010   66.1420 C.3     3  LEU3        0.0022
     14  CD1       23.8380    5.1430   66.4080 C.3     3  LEU3        0.0001
     15  CD2       23.8710    7.4360   65.4350 C.3     3  LEU3        0.0001
     16  N         19.0150    4.9330   66.6110 N.am    4  ILE4       -0.1977
     17  CA        17.6440    5.2580   66.8880 C.3     4  ILE4        0.1596
     18  C         17.6170    6.6580   67.5290 C.2     4  ILE4        0.2287
     19  O         18.3280    6.9180   68.4910 O.2     4  ILE4       -0.2864
     20  CB        16.9600    4.1980   67.7650 C.3     4  ILE4        0.0276
     21  CG1       17.1160    2.8090   67.1390 C.3     4  ILE4        0.0022
     22  CG2       15.4560    4.3990   67.7770 C.3     4  ILE4        0.0022
     23  CD1       16.4890    1.6970   67.9560 C.3     4  ILE4        0.0001
     24  N         18.2430    1.2500   76.7490 N.3    20  GLY20      -0.1210
     25  CA        19.4380    1.5730   75.9490 C.3    20  GLY20       0.1956
     26  C         19.1360    2.2180   74.6010 C.2    20  GLY20       0.2612
     27  O         19.8810    2.0130   73.6460 O.2    20  GLY20      -0.2717
     28  N         18.0230    2.9560   74.4960 N.am   21  ILE21      -0.1965
     29  CA        17.6210    3.6060   73.2280 C.3    21  ILE21       0.1727
     30  C         17.6000    5.1310   73.3840 C.2    21  ILE21       0.2617
     31  O         17.0470    5.6290   74.3610 O.2    21  ILE21      -0.2715
     32  CB        16.2200    3.1440   72.7790 C.3    21  ILE21       0.0290
     33  CG1       16.2870    1.6710   72.2810 C.3    21  ILE21       0.0022
     34  CG2       15.6810    4.1060   71.7270 C.3    21  ILE21       0.0023
     35  CD1       14.9890    1.1410   71.6990 C.3    21  ILE21       0.0001
     36  N         18.2090    5.8500   72.4330 N.am   22  GLY22      -0.1940
     37  CA        18.2190    7.3040   72.4050 C.3    22  GLY22       0.2014
     38  C         19.4220    7.8630   73.1390 C.2    22  GLY22       0.2639
     39  O         19.5180    9.0800   73.3730 O.2    22  GLY22      -0.2714
     40  N         20.3450    6.9830   73.5270 N.am   23  GLN23      -0.1963
     41  CA        21.5680    7.4370   74.1840 C.3    23  GLN23       0.1733
     42  C         22.4640    8.0980   73.1510 C.2    23  GLN23       0.2616
     43  O         22.2780    8.0070   71.9300 O.2    23  GLN23      -0.2715
     44  CB        22.3250    6.3060   74.8910 C.3    23  GLN23       0.0408
     45  CG        21.4780    5.1860   75.4370 C.3    23  GLN23       0.0908
     46  CD        21.1930    5.3050   76.8940 C.2    23  GLN23       0.2608
     47  OE1       21.7750    6.1340   77.6050 O.2    23  GLN23      -0.2717
     48  NE2       20.2910    4.4710   77.3690 N.am   23  GLN23      -0.0878
     49  N         23.4290    8.8020   73.6880 N.am   24  ILE24      -0.1977
     50  CA        24.4120    9.5870   72.9930 C.3    24  ILE24       0.1596
     51  C         25.2560    8.7840   71.9290 C.2    24  ILE24       0.2287
     52  O         25.6150    7.6240   72.1460 O.2    24  ILE24      -0.2864
     53  CB        25.1930   10.3470   74.1160 C.3    24  ILE24       0.0276
     54  CG1       26.6900   10.3480   73.9120 C.3    24  ILE24       0.0022
     55  CG2       24.8360    9.8130   75.5400 C.3    24  ILE24       0.0022
     56  CD1       27.1990   11.7280   74.2470 C.3    24  ILE24       0.0001
     57  N         28.3890    7.3430   70.5450 N.3    26  PRO26      -0.2116
     58  CA        29.6860    7.3540   71.2200 C.3    26  PRO26       0.1372
     59  C         30.7320    8.2210   70.5260 C.2    26  PRO26       0.2244
     60  O         31.3580    9.0340   71.2100 O.2    26  PRO26      -0.2868
     61  CB        30.1010    5.8880   71.2460 C.3    26  PRO26       0.0268
     62  CG        28.8060    5.1410   71.2430 C.3    26  PRO26       0.0207
     63  CD        27.8690    5.9660   70.3850 C.3    26  PRO26       0.0892
     64  N         20.7800   11.9890   70.9820 N.3    32  ASN32      -0.1240
     65  CA        19.8080   11.2520   70.1260 C.3    32  ASN32       0.1653
     66  C         18.3570   11.2350   70.6240 C.2    32  ASN32       0.2266
     67  O         17.5380   10.4520   70.1560 O.2    32  ASN32      -0.2867
     68  CB        20.2820    9.8240   69.8410 C.3    32  ASN32       0.1155
     69  CG        21.5390    9.7930   68.9840 C.2    32  ASN32       0.2627
     70  OD1       22.5670    9.2260   69.3710 O.2    32  ASN32      -0.2716
     71  ND2       21.4600   10.4090   67.8270 N.am   32  ASN32      -0.0877
@<TRIPOS>BOND
     1     1     2    1
     2     7     5    1
     3     2     5    1
     4     2     3    1
     5     5     6    1
     6     3     8   am
     7     3     4    2
     8     8     9    1
     9    11    10    2
    10     9    10    1
    11     9    12    1
    12    10    16   am
    13    12    13    1
    14    15    13    1
    15    13    14    1
    16    16    17    1
    17    17    18    1
    18    17    20    1
    19    21    20    1
    20    21    23    1
    21    18    19    2
    22    20    22    1
    23    71    69   am
    24    69    70    2
    25    69    68    1
    26    68    65    1
    27    65    66    1
    28    65    64    1
    29    67    66    2
    30    63    57    1
    31    63    62    1
    32    59    60    2
    33    59    58    1
    34    57    58    1
    35    58    61    1
    36    62    61    1
    37    35    33    1
    38    34    32    1
    39    51    52    2
    40    51    50    1
    41    43    42    2
    42    33    32    1
    43    37    36    1
    44    37    38    1
    45    36    30   am
    46    32    29    1
    47    50    49    1
    48    50    53    1
    49    38    39    2
    50    38    40   am
    51    42    49   am
    52    42    41    1
    53    29    30    1
    54    29    28    1
    55    30    31    2
    56    40    41    1
    57    27    26    2
    58    54    53    1
    59    54    56    1
    60    53    55    1
    61    41    44    1
    62    28    26   am
    63    26    25    1
    64    44    45    1
    65    45    46    1
    66    25    24    1
    67    46    48   am
    68    46    47    2
