@<TRIPOS>MOLECULE
tmp/4ixcA01.pdb
 215 210 0 0 0
SMALL
GASTEIGER

@<TRIPOS>ATOM
      1  N         52.1040   16.0430   11.4710 N.3    49  TYR49      -0.1227
      2  CA        52.1700   14.9980   12.4980 C.3    49  TYR49       0.1736
      3  C         53.5200   14.9170   13.2340 C.2    49  TYR49       0.2595
      4  O         53.8200   13.9620   13.9330 O.2    49  TYR49      -0.2718
      5  CB        51.6850   13.6480   11.9200 C.3    49  TYR49       0.0548
      6  CG        50.2050   13.7440   11.6080 C.ar   49  TYR49      -0.0200
      7  CD1       49.2690   13.4440   12.6000 C.ar   49  TYR49      -0.0009
      8  CD2       49.7540   14.2000   10.3780 C.ar   49  TYR49      -0.0009
      9  CE1       47.9270   13.5650   12.3800 C.ar   49  TYR49       0.0417
     10  CE2       48.3930   14.3120   10.1330 C.ar   49  TYR49       0.0417
     11  CZ        47.4960   14.0100   11.1660 C.ar   49  TYR49       0.1957
     12  OH        46.1580   14.1300   10.9970 O.3    49  TYR49      -0.2866
     13  N         54.3690   15.9080   13.0780 N.am   50  VAL50      -0.1966
     14  CA        55.5790   15.9890   13.9040 C.3    50  VAL50       0.1727
     15  C         55.1670   16.8080   15.1300 C.2    50  VAL50       0.2616
     16  O         54.7450   17.9770   15.0030 O.2    50  VAL50      -0.2715
     17  CB        56.7350   16.6920   13.1330 C.3    50  VAL50       0.0290
     18  CG1       57.9070   17.0740   14.0430 C.3    50  VAL50       0.0023
     19  CG2       57.2370   15.8160   11.9870 C.3    50  VAL50       0.0023
     20  N         55.3100   16.2330   16.2920 N.am   51  ARG51      -0.1963
     21  CA        54.8340   16.8440   17.5620 C.3    51  ARG51       0.1729
     22  C         55.9500   17.1740   18.4980 C.2    51  ARG51       0.2617
     23  O         56.9620   16.4670   18.5540 O.2    51  ARG51      -0.2715
     24  CB        53.9770   15.9040   18.4150 C.3    51  ARG51       0.0348
     25  CG        53.0160   14.9850   17.7770 C.3    51  ARG51       0.0492
     26  CD        51.8490   15.6710   17.1920 C.3    51  ARG51       0.2205
     27  NE        50.7650   14.6990   16.8210 N.pl3  51  ARG51      -0.0865
     28  CZ        49.5340   14.6740   17.3700 C.cat  51  ARG51       0.5346
     29  NH1       48.6310   13.8440   16.8800 N.pl3  51  ARG51       0.1354
     30  NH2       49.1920   15.4770   18.3990 N.pl3  51  ARG51       0.1354
     31  N         55.7000   18.1650   19.3750 N.am   52  SER52      -0.1936
     32  CA        56.5740   18.3690   20.5730 C.3    52  SER52       0.2055
     33  C         56.4320   17.1280   21.4480 C.2    52  SER52       0.2644
     34  O         55.3480   16.5430   21.5920 O.2    52  SER52      -0.2714
     35  CB        56.2390   19.6760   21.3570 C.3    52  SER52       0.2130
     36  OG        54.8580   19.7180   21.6890 O.3    52  SER52      -0.2179
     37  N         57.5530   16.6800   21.9730 N.am   53  THR53      -0.1937
     38  CA        57.5910   15.4260   22.6470 C.3    53  THR53       0.2013
     39  C         58.8780   15.4790   23.4840 C.2    53  THR53       0.2484
     40  O         59.7740   16.2540   23.1480 O.2    53  THR53      -0.2729
     41  CB        57.5740   14.2820   21.6100 C.3    53  THR53       0.1807
     42  OG1       57.2040   13.0750   22.2340 O.3    53  THR53      -0.2208
     43  CG2       58.9570   14.0930   20.9160 C.3    53  THR53       0.0379
     44  N         58.9470   14.7060   24.5970 N.am   54  PRO54      -0.2715
     45  CA        60.1900   14.5350   25.3640 C.3    54  PRO54       0.1536
     46  C         61.3960   14.1420   24.4660 C.2    54  PRO54       0.2598
     47  O         61.2230   13.4140   23.5300 O.2    54  PRO54      -0.2715
     48  CB        59.8490   13.3620   26.3180 C.3    54  PRO54       0.0310
     49  CG        58.3730   13.4460   26.5020 C.3    54  PRO54       0.0237
     50  CD        57.8450   13.8780   25.1470 C.3    54  PRO54       0.0939
     51  N         62.5800   14.6620   24.7460 N.am   55  GLU55      -0.1964
     52  CA        63.7370   14.4460   23.8990 C.3    55  GLU55       0.1733
     53  C         64.2000   13.0020   23.9410 C.2    55  GLU55       0.2617
     54  O         64.1100   12.3190   24.9960 O.2    55  GLU55      -0.2715
     55  CB        64.8830   15.3990   24.2510 C.3    55  GLU55       0.0429
     56  CG        65.6240   15.1040   25.5400 C.3    55  GLU55       0.1163
     57  CD        66.8940   15.9200   25.6740 C.2    55  GLU55       0.3649
     58  OE1       67.0420   16.5530   26.7160 O.co2  55  GLU55      -0.2457
     59  OE2       67.7150   15.9660   24.7310 O.co2  55  GLU55      -0.2457
     60  N         64.6520   12.5060   22.7800 N.am   56  GLY56      -0.1940
     61  CA        65.1820   11.1580   22.7200 C.3    56  GLY56       0.2014
     62  C         64.5700   10.3810   21.5710 C.2    56  GLY56       0.2639
     63  O         63.5320   10.7210   21.0340 O.2    56  GLY56      -0.2714
     64  N         65.2680    9.3380   21.1880 N.am   57  SER57      -0.1949
     65  CA        64.8590    8.5370   20.0910 C.3    57  SER57       0.1924
     66  C         65.3610    7.1260   20.3620 C.2    57  SER57       0.2314
     67  O         66.0730    6.8910   21.3470 O.2    57  SER57      -0.2863
     68  CB        65.5370    9.1250   18.8560 C.3    57  SER57       0.2116
     69  OG        66.9260    8.9310   18.8830 O.3    57  SER57      -0.2180
     70  N         72.6010    6.8380   15.5230 N.3    79  VAL79      -0.1245
     71  CA        72.2430    7.5500   16.7510 C.3    79  VAL79       0.1561
     72  C         72.6750    6.6230   17.9290 C.2    79  VAL79       0.2260
     73  O         72.3610    5.4070   17.9530 O.2    79  VAL79      -0.2867
     74  CB        70.7340    7.8150   16.9020 C.3    79  VAL79       0.0252
     75  CG1       70.3960    8.5930   18.1900 C.3    79  VAL79       0.0019
     76  CG2       70.1630    8.5780   15.7320 C.3    79  VAL79       0.0019
     77  N         74.0180   12.0310   24.0670 N.3    84  TRP84      -0.1241
     78  CA        73.6790   11.5600   22.6940 C.3    84  TRP84       0.1605
     79  C         74.7420   11.8670   21.6990 C.2    84  TRP84       0.2264
     80  O         75.3380   12.9360   21.7550 O.2    84  TRP84      -0.2867
     81  CB        72.3850   12.1400   22.1550 C.3    84  TRP84       0.0550
     82  CG        71.2390   11.7130   22.9400 C.ar   84  TRP84       0.0003
     83  CD1       70.7650   12.3600   24.0170 C.ar   84  TRP84       0.0946
     84  CD2       70.4530   10.5080   22.8180 C.ar   84  TRP84       0.0152
     85  NE1       69.6930   11.7040   24.5270 N.ar   84  TRP84      -0.2442
     86  CE2       69.4660   10.5700   23.8030 C.ar   84  TRP84       0.0810
     87  CE3       70.4510    9.4350   21.9560 C.ar   84  TRP84       0.0012
     88  CZ2       68.5070    9.5860   23.9650 C.ar   84  TRP84       0.0191
     89  CZ3       69.4990    8.4870   22.1080 C.ar   84  TRP84       0.0001
     90  CH2       68.5370    8.5610   23.1050 C.ar   84  TRP84       0.0015
     91  N         49.2970   11.0550    8.3770 N.3   143  ASP143     -0.1225
     92  CA        50.0530   10.5350    9.5260 C.3   143  ASP143      0.1805
     93  C         51.5360   10.8130    9.2250 C.2   143  ASP143      0.2597
     94  O         51.8590   11.3230    8.1520 O.2   143  ASP143     -0.2718
     95  CB        49.8130    9.0310    9.7040 C.3   143  ASP143      0.1424
     96  CG        50.0800    8.5450   11.1670 C.2   143  ASP143      0.3668
     97  OD1       50.7600    9.2390   12.0140 O.co2 143  ASP143     -0.2456
     98  OD2       49.6280    7.4310   11.4260 O.co2 143  ASP143     -0.2456
     99  N         52.4060   10.4510   10.1520 N.am  144  ILE144     -0.1980
    100  CA        53.8410   10.6060   10.0010 C.3   144  ILE144      0.1595
    101  C         54.4140    9.8330    8.7520 C.2   144  ILE144      0.2287
    102  O         55.4200   10.2310    8.2430 O.2   144  ILE144     -0.2864
    103  CB        54.6030   10.1860   11.2910 C.3   144  ILE144      0.0276
    104  CG1       56.0510   10.6390   11.2870 C.3   144  ILE144      0.0022
    105  CG2       54.6020    8.6830   11.5410 C.3   144  ILE144      0.0022
    106  CD1       56.2790   12.1150   11.2090 C.3   144  ILE144      0.0001
    107  N         64.3310   21.6820   10.6160 N.3   195  MET195     -0.1230
    108  CA        64.0260   22.0920   11.9650 C.3   195  MET195      0.1702
    109  C         64.3540   21.0400   13.0010 C.2   195  MET195      0.2592
    110  O         64.8780   21.3630   14.0670 O.2   195  MET195     -0.2718
    111  CB        62.5640   22.5020   12.1000 C.3   195  MET195      0.0401
    112  CG        62.0830   22.7730   13.5310 C.3   195  MET195      0.0596
    113  SD        60.2540   22.7780   13.6100 S.3   195  MET195     -0.1393
    114  CE        59.8860   21.0300   13.5010 C.3   195  MET195      0.0692
    115  N         63.9970   19.7960   12.7200 N.am  196  ILE196     -0.1980
    116  CA        64.2810   18.6650   13.6570 C.3   196  ILE196      0.1595
    117  C         65.7900   18.5200   13.8710 C.2   196  ILE196      0.2287
    118  O         66.2780   18.4510   15.0280 O.2   196  ILE196     -0.2864
    119  CB        63.6270   17.3900   13.0980 C.3   196  ILE196      0.0276
    120  CG1       62.1060   17.5850   13.0120 C.3   196  ILE196      0.0022
    121  CG2       64.0710   16.1040   13.7940 C.3   196  ILE196      0.0022
    122  CD1       61.4300   16.3370   12.6410 C.3   196  ILE196      0.0001
    123  N         66.8890   21.3330   16.0170 N.3   199  TYR199     -0.1227
    124  CA        66.3970   21.1680   17.3740 C.3   199  TYR199      0.1736
    125  C         67.3340   20.2760   18.1520 C.2   199  TYR199      0.2595
    126  O         67.6150   20.5010   19.3420 O.2   199  TYR199     -0.2718
    127  CB        64.9860   20.5990   17.3900 C.3   199  TYR199      0.0548
    128  CG        64.4810   20.2560   18.7700 C.ar  199  TYR199     -0.0200
    129  CD1       64.8200   19.0510   19.3570 C.ar  199  TYR199     -0.0009
    130  CD2       63.7120   21.1530   19.5290 C.ar  199  TYR199     -0.0009
    131  CE1       64.4240   18.7380   20.6320 C.ar  199  TYR199      0.0417
    132  CE2       63.3040   20.8190   20.8040 C.ar  199  TYR199      0.0417
    133  CZ        63.6620   19.6060   21.3400 C.ar  199  TYR199      0.1957
    134  OH        63.2750   19.1860   22.6010 O.3   199  TYR199     -0.2866
    135  N         67.7970   19.2350   17.4870 N.am  200  TYR200     -0.1976
    136  CA        68.7180   18.3080   18.1120 C.3   200  TYR200      0.1639
    137  C         69.9370   19.0430   18.6680 C.2   200  TYR200      0.2290
    138  O         70.3670   18.7090   19.7180 O.2   200  TYR200     -0.2864
    139  CB        69.1580   17.2230   17.1530 C.3   200  TYR200      0.0560
    140  CG        70.3200   16.4200   17.6560 C.ar  200  TYR200     -0.0198
    141  CD1       70.1180   15.3890   18.5260 C.ar  200  TYR200     -0.0009
    142  CD2       71.6290   16.7000   17.2600 C.ar  200  TYR200     -0.0009
    143  CE1       71.1680   14.6620   19.0360 C.ar  200  TYR200      0.0417
    144  CE2       72.6930   15.9700   17.7500 C.ar  200  TYR200      0.0417
    145  CZ        72.4410   14.9500   18.6610 C.ar  200  TYR200      0.1957
    146  OH        73.4300   14.1420   19.1710 O.3   200  TYR200     -0.2866
    147  N         67.5860   23.2900   21.5060 N.3   203  HIS203     -0.1241
    148  CA        66.1840   23.0500   21.8100 C.3   203  HIS203      0.1621
    149  C         65.2710   24.2430   21.6390 C.2   203  HIS203      0.2264
    150  O         64.0950   24.0910   21.7460 O.2   203  HIS203     -0.2867
    151  CB        66.0010   22.4810   23.2110 C.3   203  HIS203      0.0745
    152  CG        66.4300   21.0640   23.3680 C.ar  203  HIS203      0.0817
    153  ND1       67.0570   20.3460   22.3630 N.ar  203  HIS203     -0.2268
    154  CD2       66.3460   20.2310   24.4310 C.ar  203  HIS203      0.1154
    155  CE1       67.3300   19.1320   22.8000 C.ar  203  HIS203      0.1986
    156  NE2       66.9100   19.0370   24.0530 N.ar  203  HIS203     -0.2212
    157  N         65.0690   25.6630   18.8060 N.3   205  CYS205     -0.1221
    158  CA        64.8390   25.7220   17.3800 C.3   205  CYS205      0.1808
    159  C         63.4290   25.1840   17.1050 C.2   205  CYS205      0.2601
    160  O         63.1590   23.9900   17.2900 O.2   205  CYS205     -0.2717
    161  CB        65.8740   24.8800   16.6630 C.3   205  CYS205      0.0970
    162  SG        65.9610   25.1570   14.8880 S.3   205  CYS205     -0.0800
    163  N         62.5160   26.0740   16.6910 N.am  206  GLU206     -0.1979
    164  CA        61.1460   25.6660   16.4250 C.3   206  GLU206      0.1602
    165  C         60.6450   26.1700   15.0890 C.2   206  GLU206      0.2287
    166  O         59.4770   26.1540   14.8240 O.2   206  GLU206     -0.2864
    167  CB        60.2130   26.0910   17.5660 C.3   206  GLU206      0.0415
    168  CG        60.5120   25.4800   18.8950 C.3   206  GLU206      0.1163
    169  CD        59.4710   25.9260   19.8940 C.2   206  GLU206      0.3649
    170  OE1       58.3700   25.3320   19.8110 O.co2 206  GLU206     -0.2457
    171  OE2       59.7130   26.9240   20.7010 O.co2 206  GLU206     -0.2457
    172  N         56.4600   25.3000   14.8210 N.3   220  MET220     -0.1245
    173  CA        55.6700   24.6250   15.8190 C.3   220  MET220      0.1570
    174  C         54.4930   25.5200   16.2460 C.2   220  MET220      0.2261
    175  O         54.7240   26.5650   16.8540 O.2   220  MET220     -0.2867
    176  CB        56.5400   24.3240   17.0610 C.3   220  MET220      0.0387
    177  CG        57.7060   23.3680   16.8390 C.3   220  MET220      0.0595
    178  SD        57.2740   21.8650   15.9700 S.3   220  MET220     -0.1393
    179  CE        56.2490   21.0830   17.1710 C.3   220  MET220      0.0692
    180  N         66.3660   11.4170   11.9890 N.3   435  LEU435     -0.1231
    181  CA        66.0950   11.6120   13.4300 C.3   435  LEU435      0.1693
    182  C         64.6130   11.5250   13.7370 C.2   435  LEU435      0.2591
    183  O         64.1980   11.0020   14.8010 O.2   435  LEU435     -0.2718
    184  CB        66.6610   12.9790   13.8930 C.3   435  LEU435      0.0284
    185  CG        68.2000   13.1660   13.8440 C.3   435  LEU435      0.0019
    186  CD1       68.5390   14.6080   14.1760 C.3   435  LEU435      0.0001
    187  CD2       68.9100   12.2080   14.7700 C.3   435  LEU435      0.0001
    188  N         63.7700   11.9790   12.7900 N.am  436  VAL436     -0.1980
    189  CA        62.3270   11.8290   12.9990 C.3   436  VAL436      0.1595
    190  C         61.9340   10.3570   13.0240 C.2   436  VAL436      0.2287
    191  O         61.0360    9.9640   13.7610 O.2   436  VAL436     -0.2864
    192  CB        61.4520   12.6440   11.9820 C.3   436  VAL436      0.0276
    193  CG1       61.4120   12.0170   10.5950 C.3   436  VAL436      0.0022
    194  CG2       60.0480   12.7410   12.5120 C.3   436  VAL436      0.0022
    195  N         62.6960    8.7830   16.3780 N.3   439  VAL439     -0.1231
    196  CA        61.6600    9.1980   17.3150 C.3   439  VAL439      0.1692
    197  C         60.4030    8.4050   17.0220 C.2   439  VAL439      0.2591
    198  O         59.8460    7.7910   17.9390 O.2   439  VAL439     -0.2718
    199  CB        61.4230   10.7130   17.2670 C.3   439  VAL439      0.0266
    200  CG1       60.3130   11.1330   18.2270 C.3   439  VAL439      0.0020
    201  CG2       62.6760   11.4590   17.6810 C.3   439  VAL439      0.0020
    202  N         59.9800    8.3260   15.7590 N.am  440  ALA440     -0.1980
    203  CA        58.8290    7.5080   15.4140 C.3   440  ALA440      0.1597
    204  C         58.9660    6.0300   15.8450 C.2   440  ALA440      0.2287
    205  O         58.0020    5.4180   16.3400 O.2   440  ALA440     -0.2864
    206  CB        58.5450    7.5750   13.9060 C.3   440  ALA440      0.0319
    207  N         58.3010    3.4770   19.4270 N.3   443  LYS443     -0.1245
    208  CA        56.8520    3.1150   19.4770 C.3   443  LYS443      0.1561
    209  C         56.5570    1.8160   18.7030 C.2   443  LYS443      0.2260
    210  O         55.9940    1.8490   17.5960 O.2   443  LYS443     -0.2867
    211  CB        55.9640    4.2020   18.9040 C.3   443  LYS443      0.0271
    212  CG        55.7960    5.4260   19.7920 C.3   443  LYS443      0.0035
    213  CD        56.2290    6.6860   19.0230 C.3   443  LYS443      0.0206
    214  CE        56.3680    7.9300   19.8960 C.3   443  LYS443      0.1093
    215  NZ        56.5540    9.1360   19.0310 N.3   443  LYS443     -0.1314
@<TRIPOS>BOND
     1    94    93    2
     2   102   101    2
     3    91    92    1
     4   101   100    1
     5    93    92    1
     6    93    99   am
     7    92    95    1
     8    95    96    1
     9   100    99    1
    10   100   103    1
    11    10     8   ar
    12    10    11   ar
    13     8     6   ar
    14   193   192    1
    15   107   108    1
    16    12    11    1
    17    11     9   ar
    18    96    98   ar
    19    96    97   ar
    20   106   104    1
    21   104   103    1
    22   103   105    1
    23     1     2    1
    24     6     5    1
    25     6     7   ar
    26     5     2    1
    27   108   111    1
    28   108   109    1
    29   192   194    1
    30   192   189    1
    31    19    17    1
    32   180   181    1
    33   111   112    1
    34     9     7   ar
    35     2     3    1
    36   122   120    1
    37   115   109   am
    38   115   116    1
    39   188   189    1
    40   188   182   am
    41   189   190    1
    42   109   110    2
    43   120   119    1
    44   190   191    2
    45    13     3   am
    46    13    14    1
    47   119   116    1
    48   119   121    1
    49    17    14    1
    50    17    18    1
    51     3     4    2
    52   181   182    1
    53   181   184    1
    54   114   113    1
    55   112   113    1
    56   116   117    1
    57   182   183    2
    58   185   184    1
    59   185   186    1
    60   185   187    1
    61   117   118    2
    62    14    15    1
    63   206   203    1
    64   172   173    1
    65   166   165    2
    66   162   161    1
    67    16    15    2
    68   165   164    1
    69    15    20   am
    70   203   202    1
    71   203   204    1
    72    70    71    1
    73    76    74    1
    74   202   197   am
    75   173   174    1
    76   173   176    1
    77   204   205    2
    78   178   177    1
    79   178   179    1
    80   123   124    1
    81   174   175    2
    82    20    21    1
    83   195   196    1
    84   164   163    1
    85   164   167    1
    86   161   158    1
    87   163   159   am
    88    71    74    1
    89    71    72    1
    90    27    26    1
    91    27    28    2
    92   177   176    1
    93    29    28    1
    94    74    75    1
    95   197   196    1
    96   197   198    2
    97   159   160    2
    98   159   158    1
    99   139   140    1
   100   139   136    1
   101    26    25    1
   102   142   140   ar
   103   142   144   ar
   104   199   196    1
   105   199   201    1
   106   199   200    1
   107    28    30    1
   108   124   127    1
   109   124   125    1
   110   158   157    1
   111   127   128    1
   112   135   136    1
   113   135   125   am
   114    21    24    1
   115    21    22    1
   116   167   168    1
   117   210   209    2
   118   140   141   ar
   119   144   145   ar
   120    25    24    1
   121    72    73    2
   122   136   137    1
   123   125   126    2
   124    22    23    2
   125    22    31   am
   126   141   143   ar
   127   145   143   ar
   128   145   146    1
   129   137   138    2
   130   209   208    1
   131   128   129   ar
   132   128   130   ar
   133    68    69    1
   134    68    65    1
   135   168   169    1
   136   211   208    1
   137   211   212    1
   138   213   212    1
   139   213   214    1
   140   215   214    1
   141   129   131   ar
   142    31    32    1
   143   207   208    1
   144   130   132   ar
   145   170   169   ar
   146   169   171   ar
   147    65    66    1
   148    65    64    1
   149    66    67    2
   150    32    35    1
   151    32    33    1
   152   131   133   ar
   153   132   133   ar
   154    43    41    1
   155    63    62    2
   156    64    62   am
   157   133   134    1
   158    35    36    1
   159    33    34    2
   160    33    37   am
   161   147   148    1
   162    62    61    1
   163    41    42    1
   164    41    38    1
   165   149   150    2
   166   149   148    1
   167    79    80    2
   168    79    78    1
   169   148   151    1
   170    87    89   ar
   171    87    84   ar
   172    37    38    1
   173    89    90   ar
   174    81    78    1
   175    81    82    1
   176   153   155   ar
   177   153   152   ar
   178    38    39    1
   179    78    77    1
   180    61    60    1
   181    60    53   am
   182   155   156   ar
   183    84    82   ar
   184    84    86   ar
   185    82    83   ar
   186    90    88   ar
   187    40    39    2
   188   151   152    1
   189   152   154   ar
   190    39    44   am
   191    47    46    2
   192    86    88   ar
   193    86    85   ar
   194    52    53    1
   195    52    55    1
   196    52    51    1
   197    53    54    2
   198    83    85   ar
   199   156   154   ar
   200    55    56    1
   201    46    51   am
   202    46    45    1
   203    44    50    1
   204    44    45    1
   205    59    57   ar
   206    50    49    1
   207    45    48    1
   208    56    57    1
   209    57    58   ar
   210    48    49    1
