@<TRIPOS>MOLECULE
tmp/4ixdA00.pdb
 146 133 0 0 0
SMALL
GASTEIGER

@<TRIPOS>ATOM
      1  N         15.8790   56.5390   77.4880 N.3     3  VAL3       -0.1245
      2  CA        17.0830   55.7090   77.5160 C.3     3  VAL3        0.1561
      3  C         16.9560   54.6640   78.6190 C.2     3  VAL3        0.2260
      4  O         16.7800   55.0040   79.7920 O.2     3  VAL3       -0.2867
      5  CB        18.3790   56.5390   77.7220 C.3     3  VAL3        0.0252
      6  CG1       19.6030   55.6240   77.7490 C.3     3  VAL3        0.0019
      7  CG2       18.5340   57.5920   76.6250 C.3     3  VAL3        0.0019
      8  N         19.1290   52.0220   80.4120 N.3     5  LEU5       -0.1245
      9  CA        20.5510   51.7170   80.5820 C.3     5  LEU5        0.1561
     10  C         20.7700   50.6020   81.5960 C.2     5  LEU5        0.2260
     11  O         20.2410   50.6470   82.7050 O.2     5  LEU5       -0.2867
     12  CB        21.3240   52.9810   80.9900 C.3     5  LEU5        0.0270
     13  CG        22.8570   52.9390   80.9870 C.3     5  LEU5        0.0019
     14  CD1       23.4140   54.3150   80.6690 C.3     5  LEU5        0.0001
     15  CD2       23.4120   52.4280   82.3210 C.3     5  LEU5        0.0001
     16  N         30.6890   53.7200   91.3050 N.3    26  PHE26      -0.1241
     17  CA        30.6400   54.3210   89.9710 C.3    26  PHE26       0.1605
     18  C         29.2300   54.2260   89.3900 C.2    26  PHE26       0.2264
     19  O         28.6970   55.2060   88.8620 O.2    26  PHE26      -0.2867
     20  CB        31.6570   53.6610   89.0310 C.3    26  PHE26       0.0534
     21  CG        31.5950   54.1730   87.6170 C.ar   26  PHE26      -0.0203
     22  CD1       32.2650   55.3410   87.2580 C.ar   26  PHE26      -0.0042
     23  CD2       30.8610   53.4930   86.6450 C.ar   26  PHE26      -0.0042
     24  CE1       32.2080   55.8250   85.9530 C.ar   26  PHE26      -0.0003
     25  CE2       30.7920   53.9730   85.3340 C.ar   26  PHE26      -0.0003
     26  CZ        31.4690   55.1410   84.9900 C.ar   26  PHE26      -0.0000
     27  N         26.6960   57.4950   88.5760 N.3    30  VAL30      -0.1245
     28  CA        26.0280   57.7320   87.2910 C.3    30  VAL30       0.1561
     29  C         24.5170   57.8670   87.4830 C.2    30  VAL30       0.2260
     30  O         23.9060   58.8170   86.9930 O.2    30  VAL30      -0.2867
     31  CB        26.3650   56.6270   86.2530 C.3    30  VAL30       0.0252
     32  CG1       25.5270   56.7990   84.9810 C.3    30  VAL30       0.0019
     33  CG2       27.8540   56.6620   85.9120 C.3    30  VAL30       0.0019
     34  N         21.9560   61.2090   87.0170 N.3    34  LEU34      -0.1245
     35  CA        20.8780   61.1380   86.0220 C.3    34  LEU34       0.1561
     36  C         19.5010   60.8150   86.6210 C.2    34  LEU34       0.2260
     37  O         18.6030   60.3360   85.9250 O.2    34  LEU34      -0.2867
     38  CB        21.2540   60.1520   84.9050 C.3    34  LEU34       0.0270
     39  CG        22.5120   60.5100   84.1030 C.3    34  LEU34       0.0019
     40  CD1       22.9510   59.3460   83.2090 C.3    34  LEU34       0.0001
     41  CD2       22.3100   61.7850   83.2780 C.3    34  LEU34       0.0001
     42  N         16.2750   58.7370   81.7080 N.3    39  TYR39      -0.1241
     43  CA        17.0190   57.4980   81.9580 C.3    39  TYR39       0.1605
     44  C         16.3290   56.6510   83.0140 C.2    39  TYR39       0.2264
     45  O         15.8640   57.1610   84.0370 O.2    39  TYR39      -0.2867
     46  CB        18.4450   57.7850   82.4400 C.3    39  TYR39       0.0534
     47  CG        19.3950   58.2760   81.3760 C.ar   39  TYR39      -0.0201
     48  CD1       19.3160   59.5830   80.8950 C.ar   39  TYR39      -0.0009
     49  CD2       20.3880   57.4430   80.8650 C.ar   39  TYR39      -0.0009
     50  CE1       20.1890   60.0400   79.9250 C.ar   39  TYR39       0.0417
     51  CE2       21.2750   57.8940   79.8890 C.ar   39  TYR39       0.0417
     52  CZ        21.1650   59.1950   79.4240 C.ar   39  TYR39       0.1957
     53  OH        22.0270   59.6610   78.4620 O.3    39  TYR39      -0.2866
     54  N         16.0780   54.0280   73.6200 N.3   104  THR104     -0.1218
     55  CA        17.4760   53.8070   73.2790 C.3   104  THR104      0.1862
     56  C         18.0690   52.8970   74.3520 C.2   104  THR104      0.2287
     57  O         17.9720   53.1910   75.5400 O.2   104  THR104     -0.2866
     58  CB        18.2510   55.1340   73.2120 C.3   104  THR104      0.1770
     59  OG1       17.6550   55.9800   72.2210 O.3   104  THR104     -0.2211
     60  CG2       19.7140   54.8910   72.8490 C.3   104  THR104      0.0375
     61  N         21.2210   51.1420   76.2340 N.3   106  VAL106     -0.1245
     62  CA        22.6400   51.3410   76.5370 C.3   106  VAL106      0.1561
     63  C         23.1250   50.2910   77.5400 C.2   106  VAL106      0.2260
     64  O         22.4190   49.9500   78.4930 O.2   106  VAL106     -0.2867
     65  CB        22.9320   52.7660   77.0930 C.3   106  VAL106      0.0252
     66  CG1       24.4280   52.9540   77.3430 C.3   106  VAL106      0.0019
     67  CG2       22.4220   53.8430   76.1350 C.3   106  VAL106      0.0019
     68  N         26.5370   49.5180   79.9930 N.3   108  ILE108     -0.1245
     69  CA        27.8570   49.8490   80.5160 C.3   108  ILE108      0.1561
     70  C         28.3820   48.5790   81.1720 C.2   108  ILE108      0.2260
     71  O         27.8680   48.1440   82.2030 O.2   108  ILE108     -0.2867
     72  CB        27.8230   51.0240   81.5160 C.3   108  ILE108      0.0252
     73  CG1       27.3900   52.3110   80.8040 C.3   108  ILE108      0.0019
     74  CG2       29.1970   51.2120   82.1730 C.3   108  ILE108      0.0019
     75  CD1       27.1230   53.4960   81.7310 C.3   108  ILE108      0.0001
     76  N         23.7350   50.1170   72.4830 N.3   128  ILE128     -0.1245
     77  CA        24.9430   50.9330   72.5340 C.3   128  ILE128      0.1561
     78  C         25.7810   50.4180   73.7020 C.2   128  ILE128      0.2260
     79  O         25.3480   50.4720   74.8510 O.2   128  ILE128     -0.2867
     80  CB        24.6120   52.4310   72.7330 C.3   128  ILE128      0.0252
     81  CG1       23.7950   52.9590   71.5480 C.3   128  ILE128      0.0019
     82  CG2       25.9000   53.2420   72.9380 C.3   128  ILE128      0.0019
     83  CD1       23.2430   54.3630   71.7370 C.3   128  ILE128      0.0001
     84  N         29.2110   50.3030   75.9700 N.3   130  TYR130     -0.1241
     85  CA        30.4860   50.7550   76.5280 C.3   130  TYR130      0.1605
     86  C         31.0720   49.6360   77.3740 C.2   130  TYR130      0.2264
     87  O         30.3350   48.8940   78.0270 O.2   130  TYR130     -0.2867
     88  CB        30.3000   52.0030   77.4010 C.3   130  TYR130      0.0534
     89  CG        29.9770   53.2540   76.6230 C.ar  130  TYR130     -0.0201
     90  CD1       28.6640   53.5530   76.2530 C.ar  130  TYR130     -0.0009
     91  CD2       30.9860   54.1460   76.2570 C.ar  130  TYR130     -0.0009
     92  CE1       28.3670   54.7070   75.5290 C.ar  130  TYR130      0.0417
     93  CE2       30.6960   55.3050   75.5340 C.ar  130  TYR130      0.0417
     94  CZ        29.3860   55.5740   75.1790 C.ar  130  TYR130      0.1957
     95  OH        29.0950   56.7110   74.4570 O.3   130  TYR130     -0.2866
     96  N         34.3010   49.0590   80.2710 N.3   132  ILE132     -0.1245
     97  CA        35.3520   49.6080   81.1060 C.3   132  ILE132      0.1561
     98  C         36.1660   48.4320   81.6360 C.2   132  ILE132      0.2260
     99  O         35.6560   47.6080   82.3970 O.2   132  ILE132     -0.2867
    100  CB        34.7780   50.4480   82.2720 C.3   132  ILE132      0.0252
    101  CG1       33.8240   51.5270   81.7420 C.3   132  ILE132      0.0019
    102  CG2       35.9080   51.0800   83.0850 C.3   132  ILE132      0.0019
    103  CD1       32.8650   52.0770   82.7860 C.3   132  ILE132      0.0001
    104  N         37.0010   51.8180   77.3870 N.3   160  LYS160     -0.1245
    105  CA        37.7760   52.5860   78.3610 C.3   160  LYS160      0.1561
    106  C         38.6770   51.6490   79.1550 C.2   160  LYS160      0.2260
    107  O         38.1880   50.7380   79.8170 O.2   160  LYS160     -0.2867
    108  CB        36.8510   53.3290   79.3310 C.3   160  LYS160      0.0271
    109  CG        35.7630   54.1700   78.6840 C.3   160  LYS160      0.0035
    110  CD        36.3520   55.3160   77.8890 C.3   160  LYS160      0.0206
    111  CE        35.2720   56.0840   77.1560 C.3   160  LYS160      0.1093
    112  NZ        35.8680   57.1730   76.3400 N.3   160  LYS160     -0.1314
    113  N         37.0300   58.8450   85.5810 N.3   171  LEU171     -0.1245
    114  CA        36.1390   58.5250   84.4600 C.3   171  LEU171      0.1561
    115  C         34.7720   59.1940   84.6280 C.2   171  LEU171      0.2260
    116  O         34.2150   59.7250   83.6640 O.2   171  LEU171     -0.2867
    117  CB        35.9910   57.0070   84.2720 C.3   171  LEU171      0.0270
    118  CG        35.1880   56.5170   83.0530 C.3   171  LEU171      0.0019
    119  CD1       35.7910   56.9960   81.7340 C.3   171  LEU171      0.0001
    120  CD2       35.0620   54.9960   83.0600 C.3   171  LEU171      0.0001
    121  N         35.0550   62.8500   83.8230 N.3   174  GLU174     -0.1231
    122  CA        35.0590   63.0220   82.3730 C.3   174  GLU174      0.1699
    123  C         33.6700   62.8330   81.7740 C.2   174  GLU174      0.2592
    124  O         33.2560   63.6150   80.9180 O.2   174  GLU174     -0.2718
    125  CB        36.0470   62.0580   81.7110 C.3   174  GLU174      0.0402
    126  CG        37.5020   62.2410   82.1320 C.3   174  GLU174      0.1161
    127  CD        38.3970   61.0960   81.6730 C.2   174  GLU174      0.3649
    128  OE1       37.9020   60.1730   80.9860 O.co2 174  GLU174     -0.2457
    129  OE2       39.6080   61.1250   81.9890 O.co2 174  GLU174     -0.2457
    130  N         32.9580   61.7990   82.2300 N.am  175  LEU175     -0.1980
    131  CA        31.6080   61.4840   81.7350 C.3   175  LEU175      0.1596
    132  C         30.6580   62.6740   81.9040 C.2   175  LEU175      0.2287
    133  O         29.8860   63.0000   81.0000 O.2   175  LEU175     -0.2864
    134  CB        31.0440   60.2490   82.4550 C.3   175  LEU175      0.0297
    135  CG        29.6700   59.6760   82.0730 C.3   175  LEU175      0.0022
    136  CD1       29.5980   58.1920   82.4240 C.3   175  LEU175      0.0001
    137  CD2       28.5150   60.4310   82.7340 C.3   175  LEU175      0.0001
    138  N         30.1180   65.5350   79.5250 N.3   178  LYS178     -0.1245
    139  CA        29.3510   65.1950   78.3300 C.3   178  LYS178      0.1561
    140  C         27.8410   65.2600   78.5710 C.2   178  LYS178      0.2260
    141  O         27.0520   64.8120   77.7360 O.2   178  LYS178     -0.2867
    142  CB        29.7610   63.8080   77.8150 C.3   178  LYS178      0.0271
    143  CG        31.1820   63.7530   77.2380 C.3   178  LYS178      0.0035
    144  CD        31.2910   64.5520   75.9430 C.3   178  LYS178      0.0206
    145  CE        32.7090   64.5450   75.3980 C.3   178  LYS178      0.1093
    146  NZ        32.7940   65.3330   74.1330 N.3   178  LYS178     -0.1314
@<TRIPOS>BOND
     1    81    83    1
     2    81    80    1
     3    59    58    1
     4    76    77    1
     5    77    80    1
     6    77    78    1
     7    80    82    1
     8    60    58    1
     9    58    55    1
    10    55    54    1
    11    55    56    1
    12    78    79    2
    13   146   145    1
    14    56    57    2
    15    95    94    1
    16    94    92   ar
    17    94    93   ar
    18   145   144    1
    19    92    90   ar
    20    93    91   ar
    21   144   143    1
    22    84    85    1
    23    67    65    1
    24    61    62    1
    25    90    89   ar
    26    91    89   ar
    27   112   111    1
    28    85    86    1
    29    85    88    1
    30    62    65    1
    31    62    63    1
    32    89    88    1
    33     7     5    1
    34    65    66    1
    35   111   110    1
    36   143   142    1
    37    86    87    2
    38   104   105    1
    39     1     2    1
    40     2     5    1
    41     2     3    1
    42    63    64    2
    43     5     6    1
    44   141   140    2
    45   142   139    1
    46   110   109    1
    47   139   140    1
    48   139   138    1
    49   105   106    1
    50   105   108    1
    51    53    52    1
    52     3     4    2
    53   109   108    1
    54   106   107    2
    55    52    51   ar
    56    52    50   ar
    57    51    49   ar
    58    50    48   ar
    59    68    69    1
    60    96    97    1
    61     8     9    1
    62    69    70    1
    63    69    72    1
    64     9    12    1
    65     9    10    1
    66    14    13    1
    67    73    72    1
    68    73    75    1
    69    49    47   ar
    70    48    47   ar
    71   124   123    2
    72   128   127   ar
    73    13    12    1
    74    13    15    1
    75   133   132    2
    76    97    98    1
    77    97   100    1
    78    70    71    2
    79    47    46    1
    80    72    74    1
    81    10    11    2
    82    98    99    2
    83   127   129   ar
    84   127   126    1
    85    42    43    1
    86   125   126    1
    87   125   122    1
    88   119   118    1
    89   131   132    1
    90   131   130    1
    91   131   134    1
    92   101   100    1
    93   101   103    1
    94   123   130   am
    95   123   122    1
    96    43    46    1
    97    43    44    1
    98   135   136    1
    99   135   134    1
   100   135   137    1
   101   100   102    1
   102   122   121    1
   103    44    45    2
   104   118   120    1
   105   118   117    1
   106    40    39    1
   107    41    39    1
   108   116   115    2
   109    39    38    1
   110   117   114    1
   111   114   115    1
   112   114   113    1
   113    38    35    1
   114    32    31    1
   115    26    25   ar
   116    26    24   ar
   117    25    23   ar
   118    33    31    1
   119    37    36    2
   120    24    22   ar
   121    35    36    1
   122    35    34    1
   123    31    28    1
   124    23    21   ar
   125    30    29    2
   126    22    21   ar
   127    28    29    1
   128    28    27    1
   129    21    20    1
   130    19    18    2
   131    20    17    1
   132    18    17    1
   133    17    16    1
