@<TRIPOS>MOLECULE
tmp/4ixeA00.pdb
 161 153 0 0 0
SMALL
GASTEIGER

@<TRIPOS>ATOM
      1  N          5.9550   -0.8960   15.5300 N.3    10  ILE10      -0.1231
      2  CA         6.5020   -1.7390   14.4080 C.3    10  ILE10       0.1692
      3  C          7.9470   -2.0340   14.8080 C.2    10  ILE10       0.2592
      4  O          8.6850   -1.1500   15.2700 O.2    10  ILE10      -0.2718
      5  CB         6.3030   -0.9870   13.0390 C.3    10  ILE10       0.0266
      6  CG1        6.9250   -1.8710   11.9390 C.3    10  ILE10       0.0019
      7  CG2        6.9640    0.4150   13.0560 C.3    10  ILE10       0.0020
      8  CD1        6.3670   -1.4340   10.5590 C.3    10  ILE10       0.0001
      9  N          8.3440   -3.2900   14.6090 N.am   11  VAL11      -0.1966
     10  CA         9.6380   -3.7920   15.0590 C.3    11  VAL11       0.1727
     11  C         10.1070   -4.9810   14.2050 C.2    11  VAL11       0.2616
     12  O          9.2750   -5.7100   13.6850 O.2    11  VAL11      -0.2715
     13  CB         9.5660   -4.2590   16.5900 C.3    11  VAL11       0.0290
     14  CG1        8.4870   -5.3500   16.8650 C.3    11  VAL11       0.0023
     15  CG2       10.9680   -4.6580   17.0990 C.3    11  VAL11       0.0023
     16  N         11.4120   -5.1490   14.0520 N.am   12  ALA12      -0.1977
     17  CA        11.9880   -6.3570   13.4840 C.3    12  ALA12       0.1597
     18  C         12.7900   -6.9680   14.5990 C.2    12  ALA12       0.2287
     19  O         13.6140   -6.2750   15.2630 O.2    12  ALA12      -0.2864
     20  CB        12.9710   -5.9370   12.3270 C.3    12  ALA12       0.0319
     21  N         21.0150   -2.1600   12.8550 N.3    25  LEU25      -0.1245
     22  CA        20.2810   -3.4650   12.7220 C.3    25  LEU25       0.1561
     23  C         21.2010   -4.4670   12.0830 C.2    25  LEU25       0.2260
     24  O         21.6870   -4.2000   10.9550 O.2    25  LEU25      -0.2867
     25  CB        19.0850   -3.2630   11.8150 C.3    25  LEU25       0.0270
     26  CG        18.0700   -2.2270   12.2830 C.3    25  LEU25       0.0019
     27  CD1       16.8040   -2.3560   11.4750 C.3    25  LEU25       0.0001
     28  CD2       17.6630   -2.4820   13.7000 C.3    25  LEU25       0.0001
     29  N         12.2810   -6.0880    3.9300 N.3    32  GLU32      -0.1231
     30  CA        11.9230   -5.4870    5.2150 C.3    32  GLU32       0.1699
     31  C         11.9490   -3.9810    5.0770 C.2    32  GLU32       0.2592
     32  O         11.1120   -3.2490    5.6260 O.2    32  GLU32      -0.2718
     33  CB        12.9130   -5.9380    6.3090 C.3    32  GLU32       0.0402
     34  CG        12.2350   -6.3180    7.6410 C.3    32  GLU32       0.1161
     35  CD        11.6340   -5.1120    8.3510 C.2    32  GLU32       0.3649
     36  OE1       12.3580   -4.1060    8.5740 O.co2  32  GLU32      -0.2457
     37  OE2       10.4420   -5.1730    8.6770 O.co2  32  GLU32      -0.2457
     38  N         12.9220   -3.4710    4.3180 N.am   33  ILE33      -0.1980
     39  CA        13.0060   -2.0400    4.0190 C.3    33  ILE33       0.1595
     40  C         11.7180   -1.5380    3.3310 C.2    33  ILE33       0.2287
     41  O         11.1610   -0.4870    3.7400 O.2    33  ILE33      -0.2864
     42  CB        14.2530   -1.8340    3.1590 C.3    33  ILE33       0.0276
     43  CG1       15.4820   -2.0720    4.0790 C.3    33  ILE33       0.0022
     44  CG2       14.2400   -0.4310    2.5700 C.3    33  ILE33       0.0022
     45  CD1       16.8510   -2.2280    3.3700 C.3    33  ILE33       0.0001
     46  N          8.8330   -2.8840    3.2720 N.3    35  TYR35      -0.1227
     47  CA         7.6840   -3.1000    4.1300 C.3    35  TYR35       0.1736
     48  C          7.6140   -2.0250    5.1880 C.2    35  TYR35       0.2595
     49  O          6.5310   -1.4220    5.3600 O.2    35  TYR35      -0.2718
     50  CB         7.7810   -4.4730    4.7900 C.3    35  TYR35       0.0548
     51  CG         6.6000   -4.8010    5.7050 C.ar   35  TYR35      -0.0200
     52  CD1        5.3920   -5.2600    5.1720 C.ar   35  TYR35      -0.0009
     53  CD2        6.7610   -4.6900    7.0720 C.ar   35  TYR35      -0.0009
     54  CE1        4.3600   -5.5930    5.9930 C.ar   35  TYR35       0.0417
     55  CE2        5.7200   -5.0130    7.9700 C.ar   35  TYR35       0.0417
     56  CZ         4.5240   -5.4670    7.3980 C.ar   35  TYR35       0.1957
     57  OH         3.4420   -5.8590    8.1680 O.3    35  TYR35      -0.2866
     58  N          8.7450   -1.6960    5.8220 N.am   36  PHE36      -0.1976
     59  CA         8.6880   -0.6320    6.8400 C.3    36  PHE36       0.1639
     60  C          8.2530    0.6820    6.2240 C.2    36  PHE36       0.2290
     61  O          7.4080    1.4140    6.7960 O.2    36  PHE36      -0.2864
     62  CB        10.0730   -0.5260    7.4990 C.3    36  PHE36       0.0560
     63  CG        10.1920    0.6630    8.4200 C.ar   36  PHE36      -0.0200
     64  CD1        9.7630    0.5810    9.7550 C.ar   36  PHE36      -0.0042
     65  CD2       10.7390    1.8420    7.9400 C.ar   36  PHE36      -0.0042
     66  CE1        9.8650    1.6980   10.5910 C.ar   36  PHE36      -0.0003
     67  CE2       10.8370    2.9750    8.7670 C.ar   36  PHE36      -0.0003
     68  CZ        10.4070    2.8890   10.1060 C.ar   36  PHE36      -0.0000
     69  N         17.8990    6.2590   18.1270 N.3    61  THR61      -0.1218
     70  CA        17.4260    5.7960   16.8120 C.3    61  THR61       0.1862
     71  C         17.4890    6.9530   15.7860 C.2    61  THR61       0.2287
     72  O         17.9110    6.7750   14.6140 O.2    61  THR61      -0.2866
     73  CB        16.0220    5.1370   16.9030 C.3    61  THR61       0.1770
     74  OG1       16.0790    3.9760   17.7340 O.3    61  THR61      -0.2211
     75  CG2       15.4350    4.7920   15.5420 C.3    61  THR61       0.0375
     76  N         20.8510    7.4050   14.5990 N.3    64  SER64      -0.1202
     77  CA        21.2900    6.2600   13.7640 C.3    64  SER64       0.2020
     78  C         20.7970    6.3510   12.3140 C.2    64  SER64       0.2619
     79  O         21.2740    5.6020   11.4310 O.2    64  SER64      -0.2717
     80  CB        20.9120    4.9190   14.4110 C.3    64  SER64       0.2103
     81  OG        19.5560    4.4870   14.1130 O.3    64  SER64      -0.2182
     82  N         19.8650    7.2540   12.0410 N.am   65  ILE65      -0.1966
     83  CA        19.4070    7.3860   10.6930 C.3    65  ILE65       0.1712
     84  C         20.3770    8.2600    9.9300 C.2    65  ILE65       0.2458
     85  O         20.6170    9.3810   10.3690 O.2    65  ILE65      -0.2730
     86  CB        17.9990    8.0170   10.6290 C.3    65  ILE65       0.0289
     87  CG1       17.0560    7.0920   11.4020 C.3    65  ILE65       0.0022
     88  CG2       17.5580    8.0900    9.1520 C.3    65  ILE65       0.0023
     89  CD1       15.7010    7.7450   11.5680 C.3    65  ILE65       0.0001
     90  N         20.8780    7.7830    8.7730 N.am   66  PRO66      -0.2727
     91  CA        21.8030    8.7020    8.0560 C.3    66  PRO66       0.1402
     92  C         21.1040   10.0100    7.7100 C.2    66  PRO66       0.2269
     93  O         19.9270   10.0280    7.3270 O.2    66  PRO66      -0.2865
     94  CB        22.1110    7.9090    6.7600 C.3    66  PRO66       0.0296
     95  CG        22.1220    6.4770    7.2330 C.3    66  PRO66       0.0237
     96  CD        20.8380    6.4630    8.1040 C.3    66  PRO66       0.0939
     97  N         18.6270   10.3970    4.8400 N.3    69  PHE69      -0.1241
     98  CA        17.3160    9.7370    4.9060 C.3    69  PHE69       0.1605
     99  C         16.4330   10.3860    5.9800 C.2    69  PHE69       0.2264
    100  O         15.3330    9.8160    6.3150 O.2    69  PHE69      -0.2867
    101  CB        17.5160    8.2560    5.2490 C.3    69  PHE69       0.0534
    102  CG        18.3430    7.4960    4.2320 C.ar   69  PHE69      -0.0203
    103  CD1       17.9980    7.5780    2.8580 C.ar   69  PHE69      -0.0042
    104  CD2       19.4270    6.6990    4.6250 C.ar   69  PHE69      -0.0042
    105  CE1       18.7470    6.9040    1.8970 C.ar   69  PHE69      -0.0003
    106  CE2       20.1800    6.0080    3.6540 C.ar   69  PHE69      -0.0003
    107  CZ        19.8180    6.1080    2.3030 C.ar   69  PHE69      -0.0000
    108  N         12.3160   11.0170    8.0430 N.3    72  LEU72      -0.1245
    109  CA        11.6920    9.9690    7.2010 C.3    72  LEU72       0.1561
    110  C         10.5470   10.5750    6.4220 C.2    72  LEU72       0.2260
    111  O          9.5440   11.0520    7.0040 O.2    72  LEU72      -0.2867
    112  CB        11.1770    8.8260    8.0990 C.3    72  LEU72       0.0270
    113  CG        12.2840    8.1710    8.9080 C.3    72  LEU72       0.0019
    114  CD1       11.6790    7.0790    9.8040 C.3    72  LEU72       0.0001
    115  CD2       13.3370    7.5380    8.0240 C.3    72  LEU72       0.0001
    116  N          6.0530   11.3090    6.3880 N.3    75  ARG75      -0.1245
    117  CA         5.5170   10.9520    7.7260 C.3    75  ARG75       0.1563
    118  C          5.8580   12.0950    8.6500 C.2    75  ARG75       0.2260
    119  O          6.8840   12.7510    8.4820 O.2    75  ARG75      -0.2867
    120  CB         6.1350    9.6470    8.2640 C.3    75  ARG75       0.0307
    121  CG         5.6180    8.4150    7.4870 C.3    75  ARG75       0.0489
    122  CD         6.6850    7.3370    7.4550 C.3    75  ARG75       0.2205
    123  NE         7.6940    7.6950    6.4560 N.pl3  75  ARG75      -0.0865
    124  CZ         8.7050    6.9140    6.1170 C.cat  75  ARG75       0.5346
    125  NH1        8.8740    5.7450    6.6630 N.pl3  75  ARG75       0.1354
    126  NH2        9.5820    7.3180    5.1830 N.pl3  75  ARG75       0.1354
    127  N          8.6410    3.4730   16.4600 N.3   123  ILE123     -0.1245
    128  CA         9.6180    2.8040   15.5500 C.3   123  ILE123      0.1561
    129  C         10.9580    2.4170   16.1760 C.2   123  ILE123      0.2260
    130  O         11.9160    2.0070   15.4740 O.2   123  ILE123     -0.2867
    131  CB         9.8230    3.5630   14.2150 C.3   123  ILE123      0.0252
    132  CG1       10.6390    4.8260   14.4430 C.3   123  ILE123      0.0019
    133  CG2        8.4740    3.8020   13.5000 C.3   123  ILE123      0.0019
    134  CD1       11.2950    5.3220   13.1140 C.3   123  ILE123      0.0001
    135  N         10.5830    1.5120   23.0160 N.3   129  TYR129     -0.1241
    136  CA         9.6750    0.3390   23.0120 C.3   129  TYR129      0.1605
    137  C          9.2100   -0.0440   24.4550 C.2   129  TYR129      0.2264
    138  O          8.0850   -0.4910   24.5950 O.2   129  TYR129     -0.2867
    139  CB        10.3030   -0.8660   22.3980 C.3   129  TYR129      0.0534
    140  CG        10.5350   -0.8360   20.8660 C.ar  129  TYR129     -0.0201
    141  CD1        9.5160   -0.3670   19.9880 C.ar  129  TYR129     -0.0009
    142  CD2       11.6620   -1.4560   20.3330 C.ar  129  TYR129     -0.0009
    143  CE1        9.6650   -0.3660   18.5940 C.ar  129  TYR129      0.0417
    144  CE2       11.8400   -1.4880   18.9320 C.ar  129  TYR129      0.0417
    145  CZ        10.8130   -0.9690   18.0860 C.ar  129  TYR129      0.1957
    146  OH        11.1160   -1.0560   16.7210 O.3   129  TYR129     -0.2866
    147  N          3.3030   -4.5960   14.7380 N.3   142  MET142     -0.1245
    148  CA         3.6320   -5.1410   13.3770 C.3   142  MET142      0.1570
    149  C          5.0650   -5.6750   13.5600 C.2   142  MET142      0.2261
    150  O          6.0550   -4.9320   13.7040 O.2   142  MET142     -0.2867
    151  CB         3.6180   -4.0340   12.3540 C.3   142  MET142      0.0387
    152  CG         2.3210   -3.1460   12.3150 C.3   142  MET142      0.0595
    153  SD         0.8460   -4.1050   12.0190 S.3   142  MET142     -0.1393
    154  CE         1.0200   -4.4060   10.2310 C.3   142  MET142      0.0692
    155  N          8.2580   -8.0940   12.4920 N.3   144  THR144     -0.1218
    156  CA         8.9610   -8.9170   11.5030 C.3   144  THR144      0.1862
    157  C          9.8030   -9.8830   12.2680 C.2   144  THR144      0.2287
    158  O         10.7640   -9.4440   12.9510 O.2   144  THR144     -0.2866
    159  CB         9.8700   -8.0770   10.6370 C.3   144  THR144      0.1770
    160  OG1        9.0760   -7.0850    9.9380 O.3   144  THR144     -0.2211
    161  CG2       10.6270   -8.9680    9.6190 C.3   144  THR144      0.0375
@<TRIPOS>BOND
     1   105   107   ar
     2   105   103   ar
     3   107   106   ar
     4    44    42    1
     5   103   102   ar
     6    42    39    1
     7    42    43    1
     8    46    47    1
     9    40    41    2
    10    40    39    1
    11    45    43    1
    12   106   104   ar
    13    29    30    1
    14    39    38    1
    15    47    50    1
    16    47    48    1
    17   102   104   ar
    18   102   101    1
    19    38    31   am
    20    50    51    1
    21    97    98    1
    22    98   101    1
    23    98    99    1
    24    31    30    1
    25    31    32    2
    26    52    51   ar
    27    52    54   ar
    28   126   124    1
    29    48    49    2
    30    48    58   am
    31    30    33    1
    32    51    53   ar
    33    58    59    1
    34    99   100    2
    35    54    56   ar
    36   124   123    2
    37   124   125    1
    38    60    61    2
    39    60    59    1
    40    33    34    1
    41   116   117    1
    42   110   111    2
    43   110   109    1
    44   123   122    1
    45    94    95    1
    46    94    91    1
    47    59    62    1
    48    53    55   ar
    49   109   108    1
    50   109   112    1
    51    95    96    1
    52    93    92    2
    53    56    55   ar
    54    56    57    1
    55   122   121    1
    56   121   120    1
    57    62    63    1
    58    34    35    1
    59    92    91    1
    60   117   120    1
    61   117   118    1
    62    65    63   ar
    63    65    67   ar
    64   115   113    1
    65    91    90    1
    66   112   113    1
    67    96    90    1
    68    35    36   ar
    69    35    37   ar
    70    63    64   ar
    71   119   118    2
    72    67    68   ar
    73    90    84   am
    74   113   114    1
    75    88    86    1
    76   161   159    1
    77    64    66   ar
    78    84    85    2
    79    84    83    1
    80   160   159    1
    81    68    66   ar
    82   154   153    1
    83     8     6    1
    84    86    83    1
    85    86    87    1
    86   159   156    1
    87    83    82    1
    88    24    23    2
    89    87    89    1
    90    79    78    2
    91    27    26    1
    92   156   157    1
    93   156   155    1
    94    25    26    1
    95    25    22    1
    96     6     5    1
    97   153   152    1
    98    82    78   am
    99    23    22    1
   100   157   158    2
   101    26    28    1
   102    78    77    1
   103   152   151    1
   104    20    17    1
   105   151   148    1
   106    22    21    1
   107     5     7    1
   108     5     2    1
   109   134   132    1
   110   148   149    1
   111   148   147    1
   112    17    16    1
   113    17    18    1
   114   133   131    1
   115   149   150    2
   116    12    11    2
   117    77    80    1
   118    77    76    1
   119    16    11   am
   120    81    80    1
   121    11    10    1
   122   131   132    1
   123   131   128    1
   124     2     3    1
   125     2     1    1
   126    18    19    2
   127     9     3   am
   128     9    10    1
   129    72    71    2
   130     3     4    2
   131    10    13    1
   132   130   129    2
   133    75    73    1
   134   128   129    1
   135   128   127    1
   136    71    70    1
   137    13    14    1
   138    13    15    1
   139   146   145    1
   140    70    73    1
   141    70    69    1
   142    73    74    1
   143   145   143   ar
   144   145   144   ar
   145   143   141   ar
   146   144   142   ar
   147   141   140   ar
   148   142   140   ar
   149   140   139    1
   150   139   136    1
   151   136   135    1
   152   136   137    1
   153   137   138    2
