@<TRIPOS>MOLECULE
tmp/4ixfA01.pdb
 153 147 0 0 0
SMALL
GASTEIGER

@<TRIPOS>ATOM
      1  N        -13.3640   -0.9350   16.8890 N.3    10  ILE10      -0.1231
      2  CA       -12.8270   -1.7420   15.7470 C.3    10  ILE10       0.1692
      3  C        -11.3550   -2.0460   16.0800 C.2    10  ILE10       0.2592
      4  O        -10.6050   -1.1840   16.5770 O.2    10  ILE10      -0.2718
      5  CB       -12.9690   -1.0010   14.3860 C.3    10  ILE10       0.0266
      6  CG1      -12.3510   -1.8500   13.2050 C.3    10  ILE10       0.0019
      7  CG2      -12.3470    0.4270   14.4040 C.3    10  ILE10       0.0020
      8  CD1      -12.9700   -1.5110   11.8570 C.3    10  ILE10       0.0001
      9  N        -11.0000   -3.2770   15.7990 N.am   11  VAL11      -0.1966
     10  CA        -9.6910   -3.8360   16.2340 C.3    11  VAL11       0.1727
     11  C         -9.2900   -4.9800   15.3330 C.2    11  VAL11       0.2612
     12  O        -10.1520   -5.7360   14.9150 O.2    11  VAL11      -0.2715
     13  CB        -9.7760   -4.3040   17.7550 C.3    11  VAL11       0.0290
     14  CG1      -10.7710   -5.4690   18.0010 C.3    11  VAL11       0.0023
     15  CG2       -8.3760   -4.6540   18.3280 C.3    11  VAL11       0.0023
     16  N         -7.9750   -5.1930   15.1890 N.am   12  ALA12      -0.2031
     17  CA        -7.4330   -6.3570   14.5490 C.3    12  ALA12       0.1283
     18  C         -6.5550   -6.9810   15.6310 C.3    12  ALA12       0.2036
     19  O         -5.7610   -6.2580   16.3420 O.3    12  ALA12      -0.2185
     20  CB        -6.5900   -5.9660   13.3360 C.3    12  ALA12       0.0262
     21  N          1.9360   -1.8510   14.3950 N.3    25  LEU25      -0.1245
     22  CA         1.1770   -3.0860   14.1770 C.3    25  LEU25       0.1561
     23  C          2.1500   -4.1600   13.8030 C.2    25  LEU25       0.2260
     24  O          3.0330   -3.9050   12.9730 O.2    25  LEU25      -0.2867
     25  CB         0.1890   -2.8720   13.0140 C.3    25  LEU25       0.0270
     26  CG        -0.7790   -1.7200   13.1780 C.3    25  LEU25       0.0019
     27  CD1       -1.5590   -1.5200   11.9010 C.3    25  LEU25       0.0001
     28  CD2       -1.6890   -2.0920   14.3630 C.3    25  LEU25       0.0001
     29  N          1.9900   -6.6010   11.8090 N.3    27  TRP27      -0.1241
     30  CA         1.7590   -7.1800   10.5420 C.3    27  TRP27       0.1605
     31  C          1.6110   -5.9940    9.6170 C.2    27  TRP27       0.2264
     32  O          1.4860   -4.8440   10.0690 O.2    27  TRP27      -0.2867
     33  CB         0.4940   -8.0170   10.5700 C.3    27  TRP27       0.0550
     34  CG        -0.6770   -7.2740   11.2350 C.ar   27  TRP27       0.0003
     35  CD1       -1.4400   -6.2120   10.7180 C.ar   27  TRP27       0.0946
     36  CD2       -1.1760   -7.4830   12.6010 C.ar   27  TRP27       0.0152
     37  NE1       -2.3970   -5.8040   11.6420 N.ar   27  TRP27      -0.2442
     38  CE2       -2.2780   -6.5250   12.7980 C.ar   27  TRP27       0.0810
     39  CE3       -0.8390   -8.3540   13.6240 C.ar   27  TRP27       0.0012
     40  CZ2       -2.9870   -6.4550   13.9980 C.ar   27  TRP27       0.0191
     41  CZ3       -1.5670   -8.2970   14.8350 C.ar   27  TRP27       0.0001
     42  CH2       -2.6020   -7.3580   15.0160 C.ar   27  TRP27       0.0015
     43  N         -6.4550   -5.5470    4.9650 N.3    32  GLU32      -0.1231
     44  CA        -7.0110   -5.3600    6.3290 C.3    32  GLU32       0.1699
     45  C         -7.1050   -3.8410    6.5830 C.2    32  GLU32       0.2592
     46  O         -8.1570   -3.3350    7.0040 O.2    32  GLU32      -0.2718
     47  CB        -6.2030   -6.0690    7.4210 C.3    32  GLU32       0.0402
     48  CG        -7.0540   -6.4420    8.6720 C.3    32  GLU32       0.1161
     49  CD        -7.5290   -5.2580    9.5080 C.2    32  GLU32       0.3649
     50  OE1       -6.7340   -4.3360    9.8330 O.co2  32  GLU32      -0.2457
     51  OE2       -8.7090   -5.2390    9.8840 O.co2  32  GLU32      -0.2457
     52  N         -6.0630   -3.0910    6.2860 N.am   33  ILE33      -0.1980
     53  CA        -6.1230   -1.6170    6.4300 C.3    33  ILE33       0.1595
     54  C         -7.2450   -1.0360    5.5510 C.2    33  ILE33       0.2287
     55  O         -7.9340   -0.0820    5.9410 O.2    33  ILE33      -0.2864
     56  CB        -4.7400   -0.9980    6.0770 C.3    33  ILE33       0.0276
     57  CG1       -3.7250   -1.4080    7.1390 C.3    33  ILE33       0.0022
     58  CG2       -4.8180    0.5260    5.8550 C.3    33  ILE33       0.0022
     59  CD1       -3.6550   -0.5020    8.3490 C.3    33  ILE33       0.0001
     60  N        -10.1070   -2.5580    4.6060 N.3    35  TYR35      -0.1227
     61  CA       -11.3260   -2.8620    5.3860 C.3    35  TYR35       0.1736
     62  C        -11.5060   -1.8090    6.5220 C.2    35  TYR35       0.2595
     63  O        -12.5810   -1.2550    6.6710 O.2    35  TYR35      -0.2718
     64  CB       -11.2020   -4.2310    6.0390 C.3    35  TYR35       0.0548
     65  CG       -12.3990   -4.6020    6.8800 C.ar   35  TYR35      -0.0200
     66  CD1      -13.6260   -4.9860    6.2750 C.ar   35  TYR35      -0.0009
     67  CD2      -12.3310   -4.5910    8.2770 C.ar   35  TYR35      -0.0009
     68  CE1      -14.7140   -5.3880    7.0390 C.ar   35  TYR35       0.0417
     69  CE2      -13.4120   -4.9870    9.0270 C.ar   35  TYR35       0.0417
     70  CZ       -14.5990   -5.3930    8.4060 C.ar   35  TYR35       0.1957
     71  OH       -15.6980   -5.7610    9.1760 O.3    35  TYR35      -0.2866
     72  N        -10.4590   -1.5780    7.3170 N.am   36  PHE36      -0.1976
     73  CA       -10.4980   -0.5390    8.3830 C.3    36  PHE36       0.1639
     74  C        -10.9440    0.8100    7.8420 C.2    36  PHE36       0.2290
     75  O        -11.8530    1.4510    8.4140 O.2    36  PHE36      -0.2864
     76  CB        -9.1390   -0.4080    9.1150 C.3    36  PHE36       0.0560
     77  CG        -9.0310    0.7990   10.0280 C.ar   36  PHE36      -0.0200
     78  CD1       -9.5480    0.7860   11.3660 C.ar   36  PHE36      -0.0042
     79  CD2       -8.4130    1.9510    9.5560 C.ar   36  PHE36      -0.0042
     80  CE1       -9.4360    1.9690   12.1340 C.ar   36  PHE36      -0.0003
     81  CE2       -8.2830    3.1010   10.3280 C.ar   36  PHE36      -0.0003
     82  CZ        -8.7910    3.0960   11.6400 C.ar   36  PHE36      -0.0000
     83  N         -1.5690    5.6000   20.0300 N.3    61  THR61      -0.1218
     84  CA        -2.0930    5.2780   18.6860 C.3    61  THR61       0.1862
     85  C         -1.9500    6.4470   17.7490 C.2    61  THR61       0.2287
     86  O         -1.5830    6.2530   16.5640 O.2    61  THR61      -0.2866
     87  CB        -3.5380    4.7650   18.7500 C.3    61  THR61       0.1770
     88  OG1       -3.5120    3.5730   19.5190 O.3    61  THR61      -0.2211
     89  CG2       -4.1060    4.4590   17.3430 C.3    61  THR61       0.0375
     90  N          1.5080    6.5000   16.5740 N.3    64  SER64      -0.1202
     91  CA         1.8140    5.3330   15.7410 C.3    64  SER64       0.2020
     92  C          1.4030    5.5100   14.2900 C.2    64  SER64       0.2619
     93  O          1.8470    4.7240   13.4340 O.2    64  SER64      -0.2717
     94  CB         1.1470    4.0850   16.3150 C.3    64  SER64       0.2103
     95  OG        -0.2070    3.9690   15.8420 O.3    64  SER64      -0.2182
     96  N          0.5750    6.5170   13.9780 N.am   65  ILE65      -0.1966
     97  CA         0.1380    6.7140   12.6060 C.3    65  ILE65       0.1712
     98  C          1.2530    7.4860   11.8740 C.2    65  ILE65       0.2458
     99  O          1.7380    8.4780   12.4190 O.2    65  ILE65      -0.2730
    100  CB        -1.2070    7.4770   12.5000 C.3    65  ILE65       0.0289
    101  CG1       -2.3410    6.6700   13.1620 C.3    65  ILE65       0.0022
    102  CG2       -1.5660    7.7410   11.0440 C.3    65  ILE65       0.0023
    103  CD1       -3.5160    7.4910   13.6340 C.3    65  ILE65       0.0001
    104  N          1.6740    7.0230   10.6540 N.am   66  PRO66      -0.2727
    105  CA         2.7310    7.7950   10.0220 C.3    66  PRO66       0.1402
    106  C          2.3250    9.2470    9.9580 C.2    66  PRO66       0.2269
    107  O          1.1680    9.5450    9.6490 O.2    66  PRO66      -0.2865
    108  CB         2.8400    7.1580    8.6170 C.3    66  PRO66       0.0296
    109  CG         2.5250    5.7100    8.8500 C.3    66  PRO66       0.0237
    110  CD         1.4480    5.7270    9.9680 C.3    66  PRO66       0.0939
    111  N          0.1950   10.5470    7.2660 N.3    69  ASN69      -0.1240
    112  CA        -1.1390    9.9420    7.2190 C.3    69  ASN69       0.1653
    113  C         -2.1610   10.4460    8.2460 C.2    69  ASN69       0.2266
    114  O         -3.3090    9.9560    8.2750 O.2    69  ASN69      -0.2867
    115  CB        -0.9780    8.4540    7.3820 C.3    69  ASN69       0.1155
    116  CG        -0.3680    7.8400    6.1780 C.2    69  ASN69       0.2627
    117  OD1       -0.8940    8.0010    5.0790 O.2    69  ASN69      -0.2716
    118  ND2        0.7530    7.1340    6.3550 N.am   69  ASN69      -0.0877
    119  N         -6.4180   10.9890   10.2560 N.3    72  LEU72      -0.1245
    120  CA        -6.9370    9.9900    9.3360 C.3    72  LEU72       0.1561
    121  C         -8.0110   10.6150    8.4580 C.2    72  LEU72       0.2260
    122  O         -9.0280   11.1710    8.9560 O.2    72  LEU72      -0.2867
    123  CB        -7.5040    8.7750   10.1200 C.3    72  LEU72       0.0270
    124  CG        -6.4490    7.8620   10.7350 C.3    72  LEU72       0.0019
    125  CD1       -7.2080    6.7910   11.5300 C.3    72  LEU72       0.0001
    126  CD2       -5.5650    7.2230    9.6460 C.3    72  LEU72       0.0001
    127  N        -10.7870    3.3390   17.9860 N.3   123  ILE123     -0.1245
    128  CA        -9.8790    2.6210   17.0500 C.3   123  ILE123      0.1561
    129  C         -8.5660    2.1930   17.7420 C.2   123  ILE123      0.2260
    130  O         -7.6300    1.7110   17.0670 O.2   123  ILE123     -0.2867
    131  CB        -9.5590    3.4330   15.7550 C.3   123  ILE123      0.0252
    132  CG1       -8.7440    4.6890   16.1030 C.3   123  ILE123      0.0019
    133  CG2      -10.8550    3.7890   15.0170 C.3   123  ILE123      0.0019
    134  CD1       -7.9470    5.2760   14.9200 C.3   123  ILE123      0.0001
    135  N         -9.1450    1.1650   24.6250 N.3   129  TYR129     -0.1241
    136  CA       -10.0660    0.0760   24.3820 C.3   129  TYR129      0.1605
    137  C        -10.5790   -0.3770   25.7640 C.2   129  TYR129      0.2264
    138  O        -11.7100   -0.7800   25.9220 O.2   129  TYR129     -0.2867
    139  CB        -9.4090   -1.1440   23.7930 C.3   129  TYR129      0.0534
    140  CG        -9.1810   -1.1140   22.2840 C.ar  129  TYR129     -0.0201
    141  CD1      -10.1260   -0.5340   21.4070 C.ar  129  TYR129     -0.0009
    142  CD2       -8.0560   -1.7230   21.7690 C.ar  129  TYR129     -0.0009
    143  CE1       -9.8850   -0.5910   19.9920 C.ar  129  TYR129      0.0417
    144  CE2       -7.8250   -1.7790   20.4020 C.ar  129  TYR129      0.0417
    145  CZ        -8.7410   -1.1510   19.5340 C.ar  129  TYR129      0.1957
    146  OH        -8.4130   -1.2560   18.1630 O.3   129  TYR129     -0.2866
    147  N        -11.0620   -8.1130   13.5850 N.3   144  THR144     -0.1218
    148  CA       -10.3900   -8.9450   12.5560 C.3   144  THR144      0.1862
    149  C         -9.5610   -9.9360   13.3430 C.2   144  THR144      0.2287
    150  O         -8.6630   -9.5100   14.0560 O.2   144  THR144     -0.2866
    151  CB        -9.5090   -8.1180   11.6610 C.3   144  THR144      0.1770
    152  OG1      -10.3310   -7.1360   11.0400 O.3   144  THR144     -0.2211
    153  CG2       -8.8580   -9.0500   10.5870 C.3   144  THR144      0.0375
@<TRIPOS>BOND
     1    60    61    1
     2    43    44    1
     3   117   116    2
     4    61    64    1
     5    61    62    1
     6    54    55    2
     7    54    53    1
     8    58    56    1
     9    64    65    1
    10    56    53    1
    11    56    57    1
    12   116   118   am
    13   116   115    1
    14    66    65   ar
    15    66    68   ar
    16    52    53    1
    17    52    45   am
    18    44    45    1
    19    44    47    1
    20    62    63    2
    21    62    72   am
    22    45    46    2
    23    65    67   ar
    24    68    70   ar
    25    57    59    1
    26   112   111    1
    27   112   115    1
    28   112   113    1
    29    72    73    1
    30    47    48    1
    31    74    73    1
    32    74    75    2
    33   113   114    2
    34    67    69   ar
    35    73    76    1
    36    70    69   ar
    37    70    71    1
    38   121   122    2
    39   121   120    1
    40   108   109    1
    41   108   105    1
    42    48    49    1
    43   109   110    1
    44    76    77    1
    45   120   123    1
    46   120   119    1
    47    49    50   ar
    48    49    51   ar
    49    79    77   ar
    50    79    81   ar
    51    31    32    2
    52    31    30    1
    53   126   124    1
    54   107   106    2
    55   106   105    1
    56   110   104    1
    57   105   104    1
    58    77    78   ar
    59   123   124    1
    60    81    82   ar
    61    30    33    1
    62    30    29    1
    63    33    34    1
    64   153   151    1
    65   104    98   am
    66    35    34   ar
    67    35    37   ar
    68   124   125    1
    69   152   151    1
    70   102   100    1
    71    34    36   ar
    72    78    80   ar
    73    82    80   ar
    74    37    38   ar
    75   151   148    1
    76     8     6    1
    77    98    99    2
    78    98    97    1
    79    27    26    1
    80   100    97    1
    81   100   101    1
    82   148   149    1
    83   148   147    1
    84    36    38   ar
    85    36    39   ar
    86    97    96    1
    87    38    40   ar
    88    24    23    2
    89    25    26    1
    90    25    22    1
    91   101   103    1
    92    26    28    1
    93     6     5    1
    94    20    17    1
    95   149   150    2
    96    93    92    2
    97    39    41   ar
    98    23    22    1
    99    96    92   am
   100    40    42   ar
   101    22    21    1
   102    92    91    1
   103     5     7    1
   104     5     2    1
   105    17    16    1
   106    17    18    1
   107    41    42   ar
   108    12    11    2
   109   134   132    1
   110   133   131    1
   111    16    11   am
   112    11    10    1
   113    18    19    1
   114    91    94    1
   115    91    90    1
   116     2     3    1
   117     2     1    1
   118   131   132    1
   119   131   128    1
   120     9     3   am
   121     9    10    1
   122    95    94    1
   123     3     4    2
   124    10    13    1
   125    86    85    2
   126   128   129    1
   127   128   127    1
   128   130   129    2
   129    89    87    1
   130    85    84    1
   131    13    14    1
   132    13    15    1
   133   146   145    1
   134    84    87    1
   135    84    83    1
   136    87    88    1
   137   145   143   ar
   138   145   144   ar
   139   143   141   ar
   140   144   142   ar
   141   141   140   ar
   142   142   140   ar
   143   140   139    1
   144   139   136    1
   145   136   135    1
   146   136   137    1
   147   137   138    2
