@<TRIPOS>MOLECULE
tmp/4ixgA01.pdb
 153 147 0 0 0
SMALL
GASTEIGER

@<TRIPOS>ATOM
      1  N          5.3940   -0.9590   16.6620 N.3    10  ILE10      -0.1231
      2  CA         5.9710   -1.7590   15.5580 C.3    10  ILE10       0.1692
      3  C          7.4490   -2.0430   15.8750 C.2    10  ILE10       0.2592
      4  O          8.2070   -1.1710   16.2780 O.2    10  ILE10      -0.2718
      5  CB         5.7350   -1.0230   14.1800 C.3    10  ILE10       0.0266
      6  CG1        6.1220   -1.9840   13.0090 C.3    10  ILE10       0.0019
      7  CG2        6.4680    0.3650   14.1910 C.3    10  ILE10       0.0020
      8  CD1        5.6940   -1.4630   11.6170 C.3    10  ILE10       0.0001
      9  N          7.8180   -3.2840   15.6970 N.am   11  VAL11      -0.1966
     10  CA         9.1310   -3.7940   16.0650 C.3    11  VAL11       0.1727
     11  C          9.5350   -4.9890   15.1840 C.2    11  VAL11       0.2616
     12  O          8.6970   -5.8070   14.7370 O.2    11  VAL11      -0.2715
     13  CB         9.0570   -4.2130   17.5720 C.3    11  VAL11       0.0290
     14  CG1        8.0730   -5.3580   17.7830 C.3    11  VAL11       0.0023
     15  CG2       10.4250   -4.6620   18.0980 C.3    11  VAL11       0.0023
     16  N         10.8210   -5.1480   14.9840 N.am   12  ALA12      -0.1977
     17  CA        11.3680   -6.3540   14.3840 C.3    12  ALA12       0.1597
     18  C         12.2640   -6.9720   15.4880 C.2    12  ALA12       0.2287
     19  O         13.0820   -6.2920   16.0850 O.2    12  ALA12      -0.2864
     20  CB        12.1400   -6.0330   13.2010 C.3    12  ALA12       0.0319
     21  N         20.6550   -1.6830   14.2120 N.3    25  LEU25      -0.1245
     22  CA        19.9370   -2.9330   13.9830 C.3    25  LEU25       0.1561
     23  C         20.9390   -4.0210   13.7190 C.2    25  LEU25       0.2260
     24  O         21.9710   -3.7870   13.0650 O.2    25  LEU25      -0.2867
     25  CB        18.9630   -2.7660   12.8130 C.3    25  LEU25       0.0270
     26  CG        17.9910   -1.5980   13.0130 C.3    25  LEU25       0.0019
     27  CD1       17.0120   -1.6200   11.8610 C.3    25  LEU25       0.0001
     28  CD2       17.2290   -1.7900   14.3170 C.3    25  LEU25       0.0001
     29  N         20.7060   -6.6080   11.7820 N.3    27  TRP27      -0.1241
     30  CA        20.5490   -7.1750   10.4690 C.3    27  TRP27       0.1605
     31  C         20.4830   -6.0010    9.5490 C.2    27  TRP27       0.2264
     32  O         20.4410   -4.8610    9.9880 O.2    27  TRP27      -0.2867
     33  CB        19.2470   -8.0010   10.4110 C.3    27  TRP27       0.0550
     34  CG        18.1030   -7.2770   11.1230 C.ar   27  TRP27       0.0003
     35  CD1       17.3410   -6.2310   10.6390 C.ar   27  TRP27       0.0946
     36  CD2       17.6390   -7.4910   12.4900 C.ar   27  TRP27       0.0152
     37  NE1       16.4070   -5.8210   11.5680 N.ar   27  TRP27      -0.2442
     38  CE2       16.5560   -6.5380   12.7170 C.ar   27  TRP27       0.0810
     39  CE3       18.0150   -8.3630   13.5270 C.ar   27  TRP27       0.0012
     40  CZ2       15.8690   -6.4720   13.9260 C.ar   27  TRP27       0.0191
     41  CZ3       17.2960   -8.3030   14.7430 C.ar   27  TRP27       0.0001
     42  CH2       16.2550   -7.3640   14.9320 C.ar   27  TRP27       0.0015
     43  N         12.3330   -5.4100    4.8180 N.3    32  GLU32      -0.1231
     44  CA        11.7310   -5.2830    6.1680 C.3    32  GLU32       0.1699
     45  C         11.5730   -3.7770    6.4510 C.2    32  GLU32       0.2592
     46  O         10.5100   -3.3360    6.9090 O.2    32  GLU32      -0.2718
     47  CB        12.5890   -5.9730    7.2520 C.3    32  GLU32       0.0402
     48  CG        11.7960   -6.4020    8.5190 C.3    32  GLU32       0.1161
     49  CD        11.2650   -5.2130    9.3590 C.2    32  GLU32       0.3649
     50  OE1       12.0480   -4.2460    9.6210 O.co2  32  GLU32      -0.2457
     51  OE2       10.0900   -5.2060    9.7680 O.co2  32  GLU32      -0.2457
     52  N         12.6080   -2.9900    6.1510 N.am   33  ILE33      -0.1980
     53  CA        12.5210   -1.5160    6.2620 C.3    33  ILE33       0.1595
     54  C         11.4460   -0.9320    5.3540 C.2    33  ILE33       0.2287
     55  O         10.7260   -0.0510    5.7720 O.2    33  ILE33      -0.2864
     56  CB        13.8830   -0.7850    6.0330 C.3    33  ILE33       0.0276
     57  CG1       14.9890   -1.3560    6.8990 C.3    33  ILE33       0.0022
     58  CG2       13.7710    0.7400    6.2430 C.3    33  ILE33       0.0022
     59  CD1       15.2560   -0.6020    8.1850 C.3    33  ILE33       0.0001
     60  N          8.6370   -2.4800    4.5400 N.3    35  TYR35      -0.1227
     61  CA         7.4180   -2.8180    5.2470 C.3    35  TYR35       0.1736
     62  C          7.1790   -1.7900    6.3900 C.2    35  TYR35       0.2595
     63  O          6.0800   -1.2170    6.5360 O.2    35  TYR35      -0.2718
     64  CB         7.5790   -4.2060    5.8730 C.3    35  TYR35       0.0548
     65  CG         6.3790   -4.6160    6.7020 C.ar   35  TYR35      -0.0200
     66  CD1        5.2120   -5.0890    6.0950 C.ar   35  TYR35      -0.0009
     67  CD2        6.3960   -4.5330    8.0900 C.ar   35  TYR35      -0.0009
     68  CE1        4.1050   -5.4900    6.8430 C.ar   35  TYR35       0.0417
     69  CE2        5.3040   -4.9250    8.8340 C.ar   35  TYR35       0.0417
     70  CZ         4.1520   -5.3940    8.2240 C.ar   35  TYR35       0.1957
     71  OH         3.0540   -5.7750    9.0140 O.3    35  TYR35      -0.2866
     72  N          8.2500   -1.5290    7.1600 N.am   36  PHE36      -0.1976
     73  CA         8.1890   -0.5640    8.3050 C.3    36  PHE36       0.1639
     74  C          7.7690    0.7960    7.7700 C.2    36  PHE36       0.2290
     75  O          6.8410    1.4250    8.2890 O.2    36  PHE36      -0.2864
     76  CB         9.5460   -0.4570    8.9740 C.3    36  PHE36       0.0560
     77  CG         9.6730    0.7230    9.8800 C.ar   36  PHE36      -0.0200
     78  CD1        9.1480    0.6800   11.2040 C.ar   36  PHE36      -0.0042
     79  CD2       10.2770    1.8730    9.4220 C.ar   36  PHE36      -0.0042
     80  CE1        9.2410    1.8090   12.0050 C.ar   36  PHE36      -0.0003
     81  CE2       10.3920    2.9890   10.2420 C.ar   36  PHE36      -0.0003
     82  CZ         9.8750    2.9490   11.5420 C.ar   36  PHE36      -0.0000
     83  N         17.2900    5.6480   19.7710 N.3    61  THR61      -0.1218
     84  CA        16.7670    5.2750   18.4160 C.3    61  THR61       0.1862
     85  C         16.9180    6.3970   17.3850 C.2    61  THR61       0.2287
     86  O         17.2280    6.1640   16.1910 O.2    61  THR61      -0.2866
     87  CB        15.2710    4.7910   18.4930 C.3    61  THR61       0.1770
     88  OG1       15.2320    3.5900   19.2790 O.3    61  THR61      -0.2211
     89  CG2       14.6580    4.5030   17.1030 C.3    61  THR61       0.0375
     90  N         20.5370    6.4910   16.4390 N.3    64  SER64      -0.1202
     91  CA        20.7290    5.3090   15.6210 C.3    64  SER64       0.2020
     92  C         20.3250    5.4750   14.1500 C.2    64  SER64       0.2619
     93  O         20.8200    4.7350   13.3220 O.2    64  SER64      -0.2717
     94  CB        19.8960    4.1600   16.2200 C.3    64  SER64       0.2103
     95  OG        19.8570    3.0410   15.3560 O.3    64  SER64      -0.2182
     96  N         19.4380    6.4030   13.8120 N.am   65  ILE65      -0.1966
     97  CA        19.0230    6.5150   12.3820 C.3    65  ILE65       0.1712
     98  C         20.1120    7.2930   11.5860 C.2    65  ILE65       0.2458
     99  O         20.5830    8.3270   12.0600 O.2    65  ILE65      -0.2730
    100  CB        17.6140    7.1190   12.1840 C.3    65  ILE65       0.0289
    101  CG1       16.5100    6.2450   12.8400 C.3    65  ILE65       0.0022
    102  CG2       17.2920    7.2920   10.7010 C.3    65  ILE65       0.0023
    103  CD1       15.2780    7.0380   13.1910 C.3    65  ILE65       0.0001
    104  N         20.5420    6.7700   10.4050 N.am   66  PRO66      -0.2727
    105  CA        21.5490    7.5130    9.6160 C.3    66  PRO66       0.1402
    106  C         20.9960    8.8840    9.3360 C.2    66  PRO66       0.2269
    107  O         19.8290    8.9870    8.9790 O.2    66  PRO66      -0.2865
    108  CB        21.6620    6.6980    8.3050 C.3    66  PRO66       0.0296
    109  CG        21.2400    5.3090    8.7020 C.3    66  PRO66       0.0237
    110  CD        20.1490    5.5080    9.7340 C.3    66  PRO66       0.0939
    111  N         18.4490    9.9190    6.7540 N.3    69  ASN69      -0.1240
    112  CA        17.0770    9.3970    6.8730 C.3    69  ASN69       0.1653
    113  C         16.2530   10.0250    8.0110 C.2    69  ASN69       0.2266
    114  O         15.2310    9.4630    8.3940 O.2    69  ASN69      -0.2867
    115  CB        17.0440    7.8610    7.0310 C.3    69  ASN69       0.1155
    116  CG        17.8170    7.1060    5.9570 C.2    69  ASN69       0.2627
    117  OD1       18.7190    6.3250    6.2800 O.2    69  ASN69      -0.2716
    118  ND2       17.4400    7.2810    4.6930 N.am   69  ASN69      -0.0877
    119  N         12.3540   10.8380    9.9310 N.3    72  LEU72      -0.1245
    120  CA        11.7150    9.8260    9.1320 C.3    72  LEU72       0.1561
    121  C         10.7050   10.5230    8.2510 C.2    72  LEU72       0.2260
    122  O          9.7660   11.1880    8.7360 O.2    72  LEU72      -0.2867
    123  CB        11.0970    8.7200    9.9840 C.3    72  LEU72       0.0270
    124  CG        12.0770    7.7380   10.6520 C.3    72  LEU72       0.0019
    125  CD1       11.2280    6.7120   11.3980 C.3    72  LEU72       0.0001
    126  CD2       12.9980    7.0100    9.6650 C.3    72  LEU72       0.0001
    127  N          8.0250    3.3580   17.7420 N.3   123  ILE123     -0.1245
    128  CA         9.0090    2.6200   16.8340 C.3   123  ILE123      0.1561
    129  C         10.2640    2.2060   17.5310 C.2   123  ILE123      0.2260
    130  O         11.1920    1.6580   16.9260 O.2   123  ILE123     -0.2867
    131  CB         9.3930    3.4520   15.5680 C.3   123  ILE123      0.0252
    132  CG1       10.1540    4.7550   15.9060 C.3   123  ILE123      0.0019
    133  CG2        8.1250    3.8700   14.8390 C.3   123  ILE123      0.0019
    134  CD1       10.9320    5.3570   14.7480 C.3   123  ILE123      0.0001
    135  N          9.7470    1.2630   24.3490 N.3   129  TYR129     -0.1241
    136  CA         8.8670    0.1340   24.2360 C.3   129  TYR129      0.1605
    137  C          8.3110   -0.2720   25.6340 C.2   129  TYR129      0.2264
    138  O          7.1990   -0.7440   25.7910 O.2   129  TYR129     -0.2867
    139  CB         9.5870   -1.0730   23.6080 C.3   129  TYR129      0.0534
    140  CG         9.7500   -1.0650   22.0500 C.ar  129  TYR129     -0.0201
    141  CD1        8.8010   -0.4960   21.2090 C.ar  129  TYR129     -0.0009
    142  CD2       10.8440   -1.6540   21.4770 C.ar  129  TYR129     -0.0009
    143  CE1        8.9770   -0.5180   19.7910 C.ar  129  TYR129      0.0417
    144  CE2       11.0410   -1.7300   20.1030 C.ar  129  TYR129      0.0417
    145  CZ        10.1230   -1.1160   19.2550 C.ar  129  TYR129      0.1957
    146  OH        10.4180   -1.2240   17.8930 O.3   129  TYR129     -0.2866
    147  N          7.7450   -8.0070   13.4790 N.3   144  THR144     -0.1218
    148  CA         8.4880   -8.8410   12.5240 C.3   144  THR144      0.1862
    149  C          9.3460   -9.8410   13.2460 C.2   144  THR144      0.2287
    150  O         10.2350   -9.4720   13.9780 O.2   144  THR144     -0.2866
    151  CB         9.3520   -8.0010   11.5610 C.3   144  THR144      0.1770
    152  OG1        8.5310   -7.0130   10.9350 O.3   144  THR144     -0.2211
    153  CG2        9.9380   -8.8730   10.4570 C.3   144  THR144      0.0375
@<TRIPOS>BOND
     1    60    61    1
     2   118   116   am
     3    43    44    1
     4    61    64    1
     5    61    62    1
     6    54    55    2
     7    54    53    1
     8    64    65    1
     9   116   117    2
    10   116   115    1
    11    56    58    1
    12    56    53    1
    13    56    57    1
    14    66    65   ar
    15    66    68   ar
    16    52    53    1
    17    52    45   am
    18    44    45    1
    19    44    47    1
    20    62    63    2
    21    62    72   am
    22    45    46    2
    23    65    67   ar
    24   111   112    1
    25    68    70   ar
    26   112   115    1
    27   112   113    1
    28    57    59    1
    29    72    73    1
    30    47    48    1
    31    74    75    2
    32    74    73    1
    33   113   114    2
    34    67    69   ar
    35    70    69   ar
    36    70    71    1
    37   121   122    2
    38   121   120    1
    39    73    76    1
    40   108   109    1
    41   108   105    1
    42    48    49    1
    43   109   110    1
    44    76    77    1
    45   107   106    2
    46   120   119    1
    47   120   123    1
    48   106   105    1
    49    49    50   ar
    50    49    51   ar
    51    79    77   ar
    52    79    81   ar
    53    31    32    2
    54    31    30    1
    55   105   104    1
    56   126   124    1
    57   110   104    1
    58    77    78   ar
    59   123   124    1
    60    81    82   ar
    61   104    98   am
    62    33    30    1
    63    33    34    1
    64   153   151    1
    65    30    29    1
    66    35    34   ar
    67    35    37   ar
    68   124   125    1
    69   102   100    1
    70   152   151    1
    71    34    36   ar
    72    78    80   ar
    73    82    80   ar
    74   151   148    1
    75    37    38   ar
    76    98    99    2
    77    98    97    1
    78     8     6    1
    79    27    26    1
    80   100    97    1
    81   100   101    1
    82    97    96    1
    83    36    38   ar
    84    36    39   ar
    85   148   149    1
    86   148   147    1
    87    38    40   ar
    88    25    26    1
    89    25    22    1
    90   101   103    1
    91     6     5    1
    92    26    28    1
    93    24    23    2
    94    20    17    1
    95   149   150    2
    96    93    92    2
    97    39    41   ar
    98    23    22    1
    99    96    92   am
   100    40    42   ar
   101    22    21    1
   102    92    91    1
   103     5     7    1
   104     5     2    1
   105    17    16    1
   106    17    18    1
   107    12    11    2
   108    41    42   ar
   109   134   132    1
   110   133   131    1
   111    16    11   am
   112    11    10    1
   113    95    94    1
   114    18    19    2
   115     2     3    1
   116     2     1    1
   117   131   132    1
   118   131   128    1
   119    91    94    1
   120    91    90    1
   121     9     3   am
   122     9    10    1
   123     3     4    2
   124    10    13    1
   125    86    85    2
   126   128   129    1
   127   128   127    1
   128   130   129    2
   129    89    87    1
   130    85    84    1
   131    13    14    1
   132    13    15    1
   133   146   145    1
   134    84    87    1
   135    84    83    1
   136    87    88    1
   137   145   143   ar
   138   145   144   ar
   139   143   141   ar
   140   144   142   ar
   141   141   140   ar
   142   142   140   ar
   143   140   139    1
   144   139   136    1
   145   136   135    1
   146   136   137    1
   147   137   138    2
