@<TRIPOS>MOLECULE
tmp/4ixhB02.pdb
 130 120 0 0 0
SMALL
GASTEIGER

@<TRIPOS>ATOM
      1  N         29.3780  -15.1220  -53.5210 N.3    72  LYS72      -0.1245
      2  CA        29.7770  -15.6930  -54.7940 C.3    72  LYS72       0.1561
      3  C         28.7310  -16.6610  -55.3340 C.2    72  LYS72       0.2260
      4  O         28.9420  -17.2750  -56.3790 O.2    72  LYS72      -0.2867
      5  CB        31.1190  -16.4110  -54.6480 C.3    72  LYS72       0.0271
      6  CG        31.0890  -17.5030  -53.5960 C.3    72  LYS72       0.0035
      7  CD        32.4510  -18.1270  -53.3830 C.3    72  LYS72       0.0206
      8  CE        32.3870  -19.2100  -52.3080 C.3    72  LYS72       0.1093
      9  NZ        33.6920  -19.8970  -52.1220 N.3    72  LYS72      -0.1314
     10  N         37.6270  -17.1600  -49.8490 N.3   120  ASP120     -0.1225
     11  CA        36.9050  -17.8890  -48.7990 C.3   120  ASP120      0.1805
     12  C         36.9790  -19.3950  -48.9650 C.2   120  ASP120      0.2598
     13  O         36.8130  -19.9170  -50.0740 O.2   120  ASP120     -0.2718
     14  CB        35.4210  -17.5140  -48.8380 C.3   120  ASP120      0.1424
     15  CG        35.0870  -16.3340  -47.9600 C.2   120  ASP120      0.3668
     16  OD1       35.7570  -16.1570  -46.9190 O.co2 120  ASP120     -0.2456
     17  OD2       34.1420  -15.5930  -48.3100 O.co2 120  ASP120     -0.2456
     18  N         37.2000  -20.0900  -47.8540 N.am  121  SER121     -0.1938
     19  CA        37.1210  -21.5500  -47.8130 C.3   121  SER121      0.2055
     20  C         36.7930  -22.0520  -46.4080 C.2   121  SER121      0.2643
     21  O         37.0900  -21.3840  -45.4250 O.2   121  SER121     -0.2714
     22  CB        38.4280  -22.1850  -48.3010 C.3   121  SER121      0.2130
     23  OG        38.4550  -23.5790  -48.0290 O.3   121  SER121     -0.2179
     24  N         36.1870  -23.2370  -46.3200 N.am  122  ALA122     -0.1963
     25  CA        35.9210  -23.8520  -45.0240 C.3   122  ALA122      0.1728
     26  C         37.2500  -24.0840  -44.3300 C.2   122  ALA122      0.2616
     27  O         37.3580  -23.9760  -43.1100 O.2   122  ALA122     -0.2715
     28  CB        35.1850  -25.1710  -45.1960 C.3   122  ALA122      0.0334
     29  N         38.2700  -24.3880  -45.1230 N.am  123  HIS123     -0.1973
     30  CA        39.5720  -24.7200  -44.5730 C.3   123  HIS123      0.1656
     31  C         40.6630  -23.8980  -45.2450 C.2   123  HIS123      0.2291
     32  O         41.2770  -24.3360  -46.2050 O.2   123  HIS123     -0.2864
     33  CB        39.8310  -26.2230  -44.7240 C.3   123  HIS123      0.0771
     34  CG        41.0360  -26.7120  -43.9810 C.ar  123  HIS123      0.0820
     35  ND1       41.5970  -26.0210  -42.9300 N.ar  123  HIS123     -0.2267
     36  CD2       41.7910  -27.8240  -44.1440 C.ar  123  HIS123      0.1154
     37  CE1       42.6420  -26.6850  -42.4720 C.ar  123  HIS123      0.1986
     38  NE2       42.7800  -27.7860  -43.1890 N.ar  123  HIS123     -0.2212
     39  N         44.9660  -24.7080  -46.5100 N.3   126  SER126     -0.1202
     40  CA        45.0820  -25.8340  -47.4270 C.3   126  SER126      0.2020
     41  C         45.9290  -25.4790  -48.6530 C.2   126  SER126      0.2619
     42  O         46.0590  -24.3080  -49.0160 O.2   126  SER126     -0.2717
     43  CB        43.6930  -26.3290  -47.8450 C.3   126  SER126      0.2103
     44  OG        42.9550  -25.3100  -48.4990 O.3   126  SER126     -0.2182
     45  N         46.5050  -26.5000  -49.2820 N.am  127  LEU127     -0.1965
     46  CA        47.4450  -26.3070  -50.3830 C.3   127  LEU127      0.1728
     47  C         46.8270  -25.5600  -51.5610 C.2   127  LEU127      0.2616
     48  O         47.4790  -24.7090  -52.1690 O.2   127  LEU127     -0.2715
     49  CB        48.0230  -27.6520  -50.8410 C.3   127  LEU127      0.0311
     50  CG        48.9740  -27.6130  -52.0500 C.3   127  LEU127      0.0022
     51  CD1       50.0990  -26.6010  -51.8550 C.3   127  LEU127      0.0001
     52  CD2       49.5450  -29.0030  -52.3270 C.3   127  LEU127      0.0001
     53  N         45.5700  -25.8580  -51.8750 N.am  128  ASN128     -0.1972
     54  CA        44.9230  -25.2030  -53.0110 C.3   128  ASN128      0.1688
     55  C         44.4900  -23.7640  -52.7310 C.2   128  ASN128      0.2292
     56  O         44.3210  -22.9780  -53.6580 O.2   128  ASN128     -0.2864
     57  CB        43.7620  -26.0380  -53.5670 C.3   128  ASN128      0.1181
     58  CG        42.6470  -26.2350  -52.5630 C.2   128  ASN128      0.2629
     59  OD1       42.8390  -26.0590  -51.3590 O.2   128  ASN128     -0.2716
     60  ND2       41.4720  -26.6170  -53.0520 N.am  128  ASN128     -0.0877
     61  N         36.4420  -21.1180  -37.4180 N.3   170  ILE170     -0.1245
     62  CA        35.9700  -22.4440  -37.8390 C.3   170  ILE170      0.1561
     63  C         35.0770  -22.9830  -36.7200 C.2   170  ILE170      0.2260
     64  O         35.5230  -23.1600  -35.5850 O.2   170  ILE170     -0.2867
     65  CB        37.1430  -23.3840  -38.2070 C.3   170  ILE170      0.0252
     66  CG1       37.9320  -22.7540  -39.3670 C.3   170  ILE170      0.0019
     67  CG2       36.6460  -24.8110  -38.6070 C.3   170  ILE170      0.0019
     68  CD1       39.1770  -23.5010  -39.7850 C.3   170  ILE170      0.0001
     69  N         26.2470  -22.7020  -38.3360 N.3   176  CYS176     -0.1235
     70  CA        27.2970  -23.6610  -38.6640 C.3   176  CYS176      0.1677
     71  C         27.1630  -24.9790  -37.8880 C.2   176  CYS176      0.2270
     72  O         26.9290  -24.9740  -36.6730 O.2   176  CYS176     -0.2867
     73  CB        28.6460  -23.0170  -38.3600 C.3   176  CYS176      0.0956
     74  SG        30.0340  -24.1390  -38.3940 S.3   176  CYS176     -0.0801
     75  N         29.6040  -27.4660  -38.5240 N.3   178  THR178     -0.1218
     76  CA        30.9260  -28.0630  -38.7040 C.3   178  THR178      0.1862
     77  C         31.4060  -28.8040  -37.4590 C.2   178  THR178      0.2287
     78  O         31.8900  -29.9340  -37.5390 O.2   178  THR178     -0.2866
     79  CB        31.9540  -26.9910  -39.0860 C.3   178  THR178      0.1770
     80  OG1       31.6160  -26.4680  -40.3750 O.3   178  THR178     -0.2211
     81  CG2       33.3650  -27.5730  -39.1330 C.3   178  THR178      0.0375
     82  N         31.7750  -32.5690  -38.4800 N.3   182  ALA182     -0.1245
     83  CA        33.1810  -32.9590  -38.6000 C.3   182  ALA182      0.1562
     84  C         33.9160  -33.0600  -37.2630 C.2   182  ALA182      0.2260
     85  O         35.0030  -33.6310  -37.1970 O.2   182  ALA182     -0.2867
     86  CB        33.9220  -32.0270  -39.5420 C.3   182  ALA182      0.0290
     87  N         25.9770  -21.1420  -46.1590 N.3   259  MET259     -0.1230
     88  CA        26.3480  -21.3970  -47.5440 C.3   259  MET259      0.1702
     89  C         26.7600  -22.8620  -47.7330 C.2   259  MET259      0.2592
     90  O         26.9620  -23.3250  -48.8440 O.2   259  MET259     -0.2718
     91  CB        27.4550  -20.4400  -47.9750 C.3   259  MET259      0.0401
     92  CG        27.0390  -18.9810  -47.8590 C.3   259  MET259      0.0596
     93  SD        25.7590  -18.5860  -49.0730 S.3   259  MET259     -0.1393
     94  CE        26.7320  -18.6570  -50.5680 C.3   259  MET259      0.0692
     95  N         26.8740  -23.5860  -46.6300 N.am  260  GLY260     -0.1957
     96  CA        27.1790  -25.0000  -46.6900 C.3   260  GLY260      0.1869
     97  C         25.9420  -25.8120  -46.3740 C.2   260  GLY260      0.2309
     98  O         26.0350  -26.9800  -46.0060 O.2   260  GLY260     -0.2863
     99  N         23.8930  -25.1910  -51.4830 N.3   265  MET265     -0.1245
    100  CA        24.8210  -25.9650  -52.3000 C.3   265  MET265      0.1570
    101  C         24.2210  -26.3480  -53.6520 C.2   265  MET265      0.2261
    102  O         24.9420  -26.4920  -54.6430 O.2   265  MET265     -0.2867
    103  CB        25.2990  -27.2100  -51.5440 C.3   265  MET265      0.0387
    104  CG        26.2460  -26.9150  -50.3830 C.3   265  MET265      0.0595
    105  SD        26.7810  -28.3940  -49.4840 S.3   265  MET265     -0.1393
    106  CE        27.5400  -29.3470  -50.8000 C.3   265  MET265      0.0692
    107  N         29.5720  -34.3030  -50.7910 N.3   268  MET268     -0.1230
    108  CA        29.7920  -33.4250  -49.6340 C.3   268  MET268      0.1702
    109  C         28.5680  -33.3130  -48.7300 C.2   268  MET268      0.2592
    110  O         27.5100  -32.8360  -49.1380 O.2   268  MET268     -0.2718
    111  CB        30.2370  -32.0200  -50.0640 C.3   268  MET268      0.0401
    112  CG        31.7430  -31.8460  -50.2490 C.3   268  MET268      0.0596
    113  SD        32.6890  -31.8750  -48.7110 S.3   268  MET268     -0.1393
    114  CE        34.2640  -31.2190  -49.2670 C.3   268  MET268      0.0692
    115  N         28.7360  -33.7580  -47.4930 N.am  269  VAL269     -0.1980
    116  CA        27.7180  -33.6320  -46.4640 C.3   269  VAL269      0.1595
    117  C         27.6430  -32.1650  -45.9940 C.2   269  VAL269      0.2287
    118  O         28.6770  -31.5060  -45.8700 O.2   269  VAL269     -0.2864
    119  CB        28.0510  -34.6190  -45.3230 C.3   269  VAL269      0.0276
    120  CG1       27.4120  -34.2200  -44.0120 C.3   269  VAL269      0.0022
    121  CG2       27.6510  -36.0270  -45.7380 C.3   269  VAL269      0.0022
    122  N         27.3030  -28.6810  -43.7690 N.3   271  GLU271     -0.1245
    123  CA        27.8800  -28.2380  -42.5030 C.3   271  GLU271      0.1567
    124  C         27.2740  -26.8970  -42.0880 C.2   271  GLU271      0.2260
    125  O         27.9040  -26.0950  -41.3950 O.2   271  GLU271     -0.2867
    126  CB        29.4060  -28.1130  -42.5960 C.3   271  GLU271      0.0388
    127  CG        30.1500  -29.4280  -42.8260 C.3   271  GLU271      0.1160
    128  CD        31.6650  -29.2570  -42.7890 C.2   271  GLU271      0.3649
    129  OE1       32.1530  -28.2880  -42.1630 O.co2 271  GLU271     -0.2457
    130  OE2       32.3730  -30.0860  -43.3930 O.co2 271  GLU271     -0.2457
@<TRIPOS>BOND
     1     4     3    2
     2     3     2    1
     3     2     5    1
     4     2     1    1
     5     5     6    1
     6   102   101    2
     7    56    55    2
     8   101   100    1
     9     6     7    1
    10    57    54    1
    11    57    58    1
    12     7     8    1
    13    60    58   am
    14    54    55    1
    15    54    53    1
    16    58    59    2
    17    52    50    1
    18     8     9    1
    19   100   103    1
    20   100    99    1
    21    48    47    2
    22    50    51    1
    23    50    49    1
    24    53    47   am
    25    47    46    1
    26   103   104    1
    27    49    46    1
    28   106   105    1
    29   107   108    1
    30    94    93    1
    31   104   105    1
    32    46    45    1
    33   112   111    1
    34   112   113    1
    35    13    12    2
    36   111   108    1
    37    10    11    1
    38   108   109    1
    39    45    41   am
    40   114   113    1
    41   110   109    2
    42    93    92    1
    43    42    41    2
    44    12    11    1
    45    12    18   am
    46    90    89    2
    47    14    11    1
    48    14    15    1
    49   109   115   am
    50    41    40    1
    51    44    43    1
    52    17    15   ar
    53    22    23    1
    54    22    19    1
    55    91    92    1
    56    91    88    1
    57    15    16   ar
    58    18    19    1
    59    43    40    1
    60    19    20    1
    61    89    88    1
    62    89    95   am
    63    88    87    1
    64   115   116    1
    65    40    39    1
    66    96    95    1
    67    96    97    1
    68   116   117    1
    69   116   119    1
    70    20    24   am
    71    20    21    2
    72    97    98    2
    73    24    25    1
    74    32    31    2
    75   117   118    2
    76   121   119    1
    77   119   120    1
    78    31    30    1
    79    28    25    1
    80    29    30    1
    81    29    26   am
    82    25    26    1
    83    33    30    1
    84    33    34    1
    85    26    27    2
    86    36    34   ar
    87    36    38   ar
    88    34    35   ar
    89   122   123    1
    90   130   128   ar
    91    38    37   ar
    92    35    37   ar
    93   127   128    1
    94   127   126    1
    95   128   129   ar
    96   126   123    1
    97   123   124    1
    98   124   125    2
    99    80    79    1
   100    68    66    1
   101    86    83    1
   102    66    65    1
   103    81    79    1
   104    79    76    1
   105    76    75    1
   106    76    77    1
   107    70    73    1
   108    70    69    1
   109    70    71    1
   110    67    65    1
   111    83    82    1
   112    83    84    1
   113    74    73    1
   114    65    62    1
   115    71    72    2
   116    62    61    1
   117    62    63    1
   118    78    77    2
   119    84    85    2
   120    63    64    2
