@<TRIPOS>MOLECULE
tmp/4ixqD07.pdb
 128 126 0 0 0
SMALL
GASTEIGER

@<TRIPOS>ATOM
      1  N        145.1020   64.8360   21.7750 N.3   127  ARG127     -0.1245
      2  CA       144.5630   63.4930   21.9600 C.3   127  ARG127      0.1563
      3  C        144.1180   63.2810   23.4080 C.2   127  ARG127      0.2260
      4  O        144.7220   63.8210   24.3330 O.2   127  ARG127     -0.2867
      5  CB       145.5960   62.4440   21.5350 C.3   127  ARG127      0.0307
      6  CG       146.1380   62.6650   20.1240 C.3   127  ARG127      0.0489
      7  CD       147.3590   61.8090   19.8480 C.3   127  ARG127      0.2205
      8  NE       146.9970   60.5010   19.3160 N.pl3 127  ARG127     -0.0865
      9  CZ       147.8450   59.4850   19.2000 C.cat 127  ARG127      0.5346
     10  NH1      149.1080   59.6260   19.5810 N.pl3 127  ARG127      0.1354
     11  NH2      147.4300   58.3270   18.7070 N.pl3 127  ARG127      0.1354
     12  N        144.3390   60.9940   25.6280 N.3   129  TYR129     -0.1241
     13  CA       145.0230   59.9410   26.3760 C.3   129  TYR129      0.1605
     14  C        145.0920   60.2920   27.8680 C.2   129  TYR129      0.2264
     15  O        145.4950   59.4710   28.6940 O.2   129  TYR129     -0.2867
     16  CB       146.4280   59.6830   25.8040 C.3   129  TYR129      0.0534
     17  CG       146.4390   58.8620   24.5210 C.ar  129  TYR129     -0.0201
     18  CD1      147.2940   57.7740   24.3740 C.ar  129  TYR129     -0.0009
     19  CD2      145.5700   59.1520   23.4760 C.ar  129  TYR129     -0.0009
     20  CE1      147.3000   57.0170   23.2130 C.ar  129  TYR129      0.0417
     21  CE2      145.5690   58.4010   22.3140 C.ar  129  TYR129      0.0417
     22  CZ       146.4330   57.3360   22.1880 C.ar  129  TYR129      0.1957
     23  OH       146.4240   56.5950   21.0290 O.3   129  TYR129     -0.2866
     24  N        141.7040   58.5720   29.0130 N.3   132  ILE132     -0.1245
     25  CA       141.8930   57.1280   29.0630 C.3   132  ILE132      0.1561
     26  C        142.6150   56.7350   30.3440 C.2   132  ILE132      0.2260
     27  O        142.2280   55.7880   31.0280 O.2   132  ILE132     -0.2867
     28  CB       142.7050   56.6180   27.8570 C.3   132  ILE132      0.0252
     29  CG1      142.1200   57.1420   26.5430 C.3   132  ILE132      0.0019
     30  CG2      142.7550   55.1020   27.8520 C.3   132  ILE132      0.0019
     31  CD1      140.7590   56.5840   26.2070 C.3   132  ILE132      0.0001
     32  N        140.8210   56.7140   33.7690 N.3   135  SER135     -0.1217
     33  CA       139.8650   55.6370   33.9760 C.3   135  SER135      0.1889
     34  C        140.2690   54.7280   35.1310 C.2   135  SER135      0.2288
     35  O        139.4130   54.2210   35.8560 O.2   135  SER135     -0.2866
     36  CB       139.7180   54.8090   32.7000 C.3   135  SER135      0.2089
     37  OG       140.9300   54.1490   32.3800 O.3   135  SER135     -0.2183
     38  N        158.3470   57.9340   22.1250 N.3   253  ARG253     -0.1231
     39  CA       156.9130   57.7420   21.9770 C.3   253  ARG253      0.1694
     40  C        156.4680   56.4610   22.6780 C.2   253  ARG253      0.2592
     41  O        155.3890   56.4160   23.2660 O.2   253  ARG253     -0.2718
     42  CB       156.5220   57.7130   20.4990 C.3   253  ARG253      0.0321
     43  CG       156.6900   59.0560   19.7960 C.3   253  ARG253      0.0489
     44  CD       156.0090   59.0630   18.4320 C.3   253  ARG253      0.2205
     45  NE       155.9900   60.3940   17.8280 N.pl3 253  ARG253     -0.0865
     46  CZ       155.2970   60.7140   16.7380 C.cat 253  ARG253      0.5346
     47  NH1      154.5580   59.7990   16.1240 N.pl3 253  ARG253      0.1354
     48  NH2      155.3430   61.9510   16.2600 N.pl3 253  ARG253      0.1354
     49  N        157.3020   55.4270   22.6310 N.am  254  TRP254     -0.1976
     50  CA       156.9940   54.1930   23.3470 C.3   254  TRP254      0.1640
     51  C        157.2580   54.3360   24.8410 C.2   254  TRP254      0.2290
     52  O        156.4780   53.8570   25.6630 O.2   254  TRP254     -0.2864
     53  CB       157.8060   53.0160   22.8010 C.3   254  TRP254      0.0576
     54  CG       157.7650   51.8220   23.7170 C.ar  254  TRP254      0.0006
     55  CD1      158.7930   51.3250   24.4670 C.ar  254  TRP254      0.0946
     56  CD2      156.6270   50.9910   23.9990 C.ar  254  TRP254      0.0152
     57  NE1      158.3720   50.2310   25.1840 N.ar  254  TRP254     -0.2442
     58  CE2      157.0460   50.0070   24.9170 C.ar  254  TRP254      0.0810
     59  CE3      155.2980   50.9840   23.5590 C.ar  254  TRP254      0.0012
     60  CZ2      156.1800   49.0240   25.4050 C.ar  254  TRP254      0.0191
     61  CZ3      154.4410   50.0060   24.0440 C.ar  254  TRP254      0.0001
     62  CH2      154.8870   49.0400   24.9570 C.ar  254  TRP254      0.0015
     63  N        154.2610   56.1290   26.4100 N.3   257  PHE257     -0.1241
     64  CA       153.0510   55.3350   26.4470 C.3   257  PHE257      0.1605
     65  C        153.2020   54.2820   27.5400 C.2   257  PHE257      0.2264
     66  O        152.2520   53.9890   28.2620 O.2   257  PHE257     -0.2867
     67  CB       152.7650   54.6790   25.0980 C.3   257  PHE257      0.0534
     68  CG       151.6910   53.6360   25.1620 C.ar  257  PHE257     -0.0203
     69  CD1      150.3830   53.9890   25.4450 C.ar  257  PHE257     -0.0042
     70  CD2      151.9940   52.3000   24.9680 C.ar  257  PHE257     -0.0042
     71  CE1      149.3960   53.0280   25.5190 C.ar  257  PHE257     -0.0003
     72  CE2      151.0090   51.3350   25.0390 C.ar  257  PHE257     -0.0003
     73  CZ       149.7090   51.7000   25.3140 C.ar  257  PHE257     -0.0000
     74  N        152.2930   55.3860   30.7470 N.3   260  LEU260     -0.1231
     75  CA       150.8420   55.4460   30.8820 C.3   260  LEU260      0.1693
     76  C        150.3100   54.0660   31.2230 C.2   260  LEU260      0.2592
     77  O        149.5420   53.8950   32.1630 O.2   260  LEU260     -0.2718
     78  CB       150.1950   55.9700   29.5870 C.3   260  LEU260      0.0284
     79  CG       148.6970   56.3170   29.4870 C.3   260  LEU260      0.0019
     80  CD1      148.4370   57.1220   28.2190 C.3   260  LEU260      0.0001
     81  CD2      147.7800   55.0950   29.5050 C.3   260  LEU260      0.0001
     82  N        150.7410   53.0840   30.4440 N.am  261  PHE261     -0.1976
     83  CA       150.2670   51.7170   30.5660 C.3   261  PHE261      0.1639
     84  C        150.4420   51.1160   31.9620 C.2   261  PHE261      0.2290
     85  O        149.4680   50.6760   32.5780 O.2   261  PHE261     -0.2864
     86  CB       150.9850   50.8540   29.5300 C.3   261  PHE261      0.0560
     87  CG       150.5370   49.4340   29.5150 C.ar  261  PHE261     -0.0200
     88  CD1      149.3480   49.0770   28.9030 C.ar  261  PHE261     -0.0042
     89  CD2      151.3100   48.4490   30.1060 C.ar  261  PHE261     -0.0042
     90  CE1      148.9320   47.7620   28.8840 C.ar  261  PHE261     -0.0003
     91  CE2      150.9020   47.1320   30.0910 C.ar  261  PHE261     -0.0003
     92  CZ       149.7100   46.7870   29.4790 C.ar  261  PHE261     -0.0000
     93  N        148.3190   52.5020   35.0260 N.3   264  VAL264     -0.1231
     94  CA       146.8910   52.4250   34.7300 C.3   264  VAL264      0.1692
     95  C        146.4150   50.9810   34.7470 C.2   264  VAL264      0.2592
     96  O        145.3480   50.6640   35.2810 O.2   264  VAL264     -0.2718
     97  CB       146.5640   53.0530   33.3460 C.3   264  VAL264      0.0266
     98  CG1      145.1500   52.6950   32.8920 C.3   264  VAL264      0.0020
     99  CG2      146.7650   54.5650   33.3770 C.3   264  VAL264      0.0020
    100  N        147.2480   50.1010   34.2090 N.am  265  THR265     -0.1953
    101  CA       146.9140   48.6920   34.1260 C.3   265  THR265      0.1897
    102  C        146.8690   48.0870   35.5190 C.2   265  THR265      0.2313
    103  O        145.9710   47.3110   35.8430 O.2   265  THR265     -0.2863
    104  CB       147.9280   47.9300   33.2640 C.3   265  THR265      0.1794
    105  OG1      147.9910   48.5230   31.9600 O.3   265  THR265     -0.2208
    106  CG2      147.5300   46.4690   33.1490 C.3   265  THR265      0.0378
    107  N        143.8090   48.9760   37.4910 N.3   268  TRP268     -0.1227
    108  CA       142.6920   48.2190   36.9430 C.3   268  TRP268      0.1737
    109  C        142.6510   46.7750   37.4580 C.2   268  TRP268      0.2595
    110  O        141.5750   46.2430   37.7370 O.2   268  TRP268     -0.2718
    111  CB       142.7480   48.2400   35.4130 C.3   268  TRP268      0.0564
    112  CG       141.9640   49.3660   34.8190 C.ar  268  TRP268      0.0003
    113  CD1      142.4370   50.5860   34.4390 C.ar  268  TRP268      0.0946
    114  CD2      140.5610   49.3780   34.5460 C.ar  268  TRP268      0.0152
    115  NE1      141.4160   51.3560   33.9410 N.ar  268  TRP268     -0.2442
    116  CE2      140.2520   50.6350   33.9960 C.ar  268  TRP268      0.0810
    117  CE3      139.5340   48.4420   34.7100 C.ar  268  TRP268      0.0012
    118  CZ2      138.9630   50.9840   33.6100 C.ar  268  TRP268      0.0191
    119  CZ3      138.2540   48.7900   34.3260 C.ar  268  TRP268      0.0001
    120  CH2      137.9790   50.0490   33.7830 C.ar  268  TRP268      0.0015
    121  N        143.8160   46.1460   37.5850 N.am  269  MET269     -0.1979
    122  CA       143.8840   44.7810   38.1010 C.3   269  MET269      0.1605
    123  C        143.4300   44.7370   39.5550 C.2   269  MET269      0.2287
    124  O        142.6640   43.8570   39.9500 O.2   269  MET269     -0.2864
    125  CB       145.3020   44.2160   37.9710 C.3   269  MET269      0.0413
    126  CG       145.8040   44.0260   36.5420 C.3   269  MET269      0.0598
    127  SD       144.8240   42.8630   35.5690 S.3   269  MET269     -0.1393
    128  CE       143.7700   43.9740   34.6380 C.3   269  MET269      0.0692
@<TRIPOS>BOND
     1    47    46    1
     2    48    46    1
     3    46    45    2
     4    45    44    1
     5    44    43    1
     6    11     9    1
     7     9     8    2
     8     9    10    1
     9     8     7    1
    10    43    42    1
    11     7     6    1
    12     6     5    1
    13    42    39    1
    14    23    22    1
    15     5     2    1
    16     1     2    1
    17     2     3    1
    18    39    38    1
    19    39    40    1
    20    22    21   ar
    21    22    20   ar
    22    21    19   ar
    23    49    40   am
    24    49    50    1
    25    40    41    2
    26    53    50    1
    27    53    54    1
    28    20    18   ar
    29    50    51    1
    30     3     4    2
    31    19    17   ar
    32    59    56   ar
    33    59    61   ar
    34    54    56   ar
    35    54    55   ar
    36    56    58   ar
    37    61    62   ar
    38    18    17   ar
    39    55    57   ar
    40    17    16    1
    41    51    52    2
    42    58    57   ar
    43    58    60   ar
    44    62    60   ar
    45    70    72   ar
    46    70    68   ar
    47    72    73   ar
    48    67    68    1
    49    67    64    1
    50    68    69   ar
    51    73    71   ar
    52    69    71   ar
    53    12    13    1
    54    16    13    1
    55    31    29    1
    56    13    14    1
    57    63    64    1
    58    64    65    1
    59    29    28    1
    60    65    66    2
    61    30    28    1
    62    28    25    1
    63    14    15    2
    64    80    79    1
    65    90    88   ar
    66    90    92   ar
    67    88    87   ar
    68    24    25    1
    69    25    26    1
    70    92    91   ar
    71    79    81    1
    72    79    78    1
    73    87    86    1
    74    87    89   ar
    75    86    83    1
    76    78    75    1
    77    91    89   ar
    78    26    27    2
    79    82    83    1
    80    82    76   am
    81    83    84    1
    82    74    75    1
    83    75    76    1
    84    76    77    2
    85   105   104    1
    86    84    85    2
    87    37    36    1
    88    36    33    1
    89    98    97    1
    90   106   104    1
    91   104   101    1
    92    97    99    1
    93    97    94    1
    94   118   120   ar
    95   118   116   ar
    96    32    33    1
    97   120   119   ar
    98   115   116   ar
    99   115   113   ar
   100    33    34    1
   101   116   114   ar
   102   101   100    1
   103   101   102    1
   104   100    95   am
   105   119   117   ar
   106   113   112   ar
   107   114   117   ar
   108   114   112   ar
   109   128   127    1
   110    94    95    1
   111    94    93    1
   112    95    96    2
   113   112   111    1
   114    34    35    2
   115   111   108    1
   116   102   103    2
   117   127   126    1
   118   126   125    1
   119   108   109    1
   120   108   107    1
   121   109   121   am
   122   109   110    2
   123   121   122    1
   124   125   122    1
   125   122   123    1
   126   123   124    2
