@<TRIPOS>MOLECULE
tmp/4ixtA00.pdb
 127 126 0 0 0
SMALL
GASTEIGER

@<TRIPOS>ATOM
      1  N         74.6030   35.8200    6.7810 N.3    11  PHE11      -0.1241
      2  CA        75.1290   35.4200    8.0990 C.3    11  PHE11       0.1605
      3  C         76.5550   35.9790    8.2470 C.2    11  PHE11       0.2264
      4  O         76.7330   37.1990    8.3010 O.2    11  PHE11      -0.2867
      5  CB        75.0530   33.8850    8.2610 C.3    11  PHE11       0.0534
      6  CG        75.1660   33.3900    9.6820 C.ar   11  PHE11      -0.0203
      7  CD1       75.1100   34.2570   10.7610 C.ar   11  PHE11      -0.0042
      8  CD2       75.3250   32.0260    9.9350 C.ar   11  PHE11      -0.0042
      9  CE1       75.1850   33.7740   12.0660 C.ar   11  PHE11      -0.0003
     10  CE2       75.4250   31.5400   11.2380 C.ar   11  PHE11      -0.0003
     11  CZ        75.3630   32.4110   12.3040 C.ar   11  PHE11      -0.0000
     12  N         64.9170   29.8640   11.0750 N.3    83  VAL83      -0.1245
     13  CA        64.4710   29.3970   12.3830 C.3    83  VAL83       0.1561
     14  C         62.9500   29.3810   12.4060 C.2    83  VAL83       0.2260
     15  O         62.2940   30.3000   11.9030 O.2    83  VAL83      -0.2867
     16  CB        64.9740   30.2940   13.5410 C.3    83  VAL83       0.0252
     17  CG1       66.4530   30.5910   13.3950 C.3    83  VAL83       0.0019
     18  CG2       64.1900   31.5890   13.5950 C.3    83  VAL83       0.0019
     19  N         59.9010   29.1950   14.9700 N.3    85  TRP85      -0.1241
     20  CA        59.5860   29.3340   16.3950 C.3    85  TRP85       0.1605
     21  C         58.3400   28.5780   16.8910 C.2    85  TRP85       0.2264
     22  O         57.5680   29.1180   17.6780 O.2    85  TRP85      -0.2867
     23  CB        59.4410   30.8080   16.7770 C.3    85  TRP85       0.0550
     24  CG        60.6650   31.6780   16.6030 C.ar   85  TRP85       0.0003
     25  CD1       61.0380   32.3510   15.4650 C.ar   85  TRP85       0.0946
     26  CD2       61.5510   32.1330   17.6420 C.ar   85  TRP85       0.0152
     27  NE1       62.1270   33.1520   15.7240 N.ar   85  TRP85      -0.2442
     28  CE2       62.4670   33.0310   17.0480 C.ar   85  TRP85       0.0810
     29  CE3       61.6820   31.8380   19.0060 C.ar   85  TRP85       0.0012
     30  CZ2       63.5040   33.6260   17.7670 C.ar   85  TRP85       0.0191
     31  CZ3       62.6980   32.4290   19.7170 C.ar   85  TRP85       0.0001
     32  CH2       63.6010   33.3150   19.1000 C.ar   85  TRP85       0.0015
     33  N         76.0320   28.8840   16.2990 N.3   131  SER131     -0.1217
     34  CA        75.1360   29.8860   16.9310 C.3   131  SER131      0.1889
     35  C         75.2040   29.8640   18.4690 C.2   131  SER131      0.2288
     36  O         75.2130   28.7930   19.0830 O.2   131  SER131     -0.2866
     37  CB        73.6840   29.6610   16.4750 C.3   131  SER131      0.2089
     38  OG        72.7650   30.3110   17.3470 O.3   131  SER131     -0.2183
     39  N         72.8630   30.0740   20.2270 N.3   133  ALA133     -0.1245
     40  CA        71.6480   29.3800   20.6340 C.3   133  ALA133      0.1562
     41  C         71.9260   27.9940   21.2320 C.2   133  ALA133      0.2260
     42  O         71.0920   27.4440   21.9500 O.2   133  ALA133     -0.2867
     43  CB        70.6860   29.2720   19.4600 C.3   133  ALA133      0.0290
     44  N         66.7010   30.8570   25.0110 N.3   138  TRP138     -0.1241
     45  CA        65.4480   30.9840   24.2570 C.3   138  TRP138      0.1605
     46  C         64.4470   29.8740   24.5200 C.2   138  TRP138      0.2264
     47  O         64.8260   28.7780   24.9330 O.2   138  TRP138     -0.2867
     48  CB        65.7180   31.0930   22.7580 C.3   138  TRP138      0.0550
     49  CG        65.9590   32.4950   22.3470 C.ar  138  TRP138      0.0003
     50  CD1       65.0390   33.5240   22.3010 C.ar  138  TRP138      0.0946
     51  CD2       67.2160   33.0710   22.0190 C.ar  138  TRP138      0.0152
     52  NE1       65.6530   34.6940   21.9160 N.ar  138  TRP138     -0.2442
     53  CE2       66.9890   34.4400   21.7310 C.ar  138  TRP138      0.0810
     54  CE3       68.5010   32.5540   21.8760 C.ar  138  TRP138      0.0012
     55  CZ2       67.9970   35.2780   21.3030 C.ar  138  TRP138      0.0191
     56  CZ3       69.5040   33.3970   21.5000 C.ar  138  TRP138      0.0001
     57  CH2       69.2510   34.7480   21.2150 C.ar  138  TRP138      0.0015
     58  N         62.6750   27.2000   20.2050 N.3   141  LEU141     -0.1245
     59  CA        63.7220   27.1650   19.1820 C.3   141  LEU141      0.1561
     60  C         64.4070   25.7730   19.2060 C.2   141  LEU141      0.2260
     61  O         65.6050   25.6480   18.9380 O.2   141  LEU141     -0.2867
     62  CB        64.7580   28.2330   19.5290 C.3   141  LEU141      0.0270
     63  CG        65.2850   29.0670   18.3930 C.3   141  LEU141      0.0019
     64  CD1       64.1080   29.5250   17.5370 C.3   141  LEU141      0.0001
     65  CD2       66.0980   30.2470   18.9130 C.3   141  LEU141      0.0001
     66  N         66.3700   24.2020   16.4350 N.3   144  TYR144     -0.1241
     67  CA        67.4700   25.0620   15.9980 C.3   144  TYR144      0.1605
     68  C         68.6430   25.0710   16.9870 C.2   144  TYR144      0.2264
     69  O         69.7910   24.8860   16.5890 O.2   144  TYR144     -0.2867
     70  CB        66.9790   26.4940   15.7130 C.3   144  TYR144      0.0534
     71  CG        68.0680   27.4350   15.2280 C.ar  144  TYR144     -0.0201
     72  CD1       68.7810   28.2410   16.1220 C.ar  144  TYR144     -0.0009
     73  CD2       68.3910   27.5120   13.8730 C.ar  144  TYR144     -0.0009
     74  CE1       69.7830   29.0830   15.6780 C.ar  144  TYR144      0.0417
     75  CE2       69.3950   28.3550   13.4170 C.ar  144  TYR144      0.0417
     76  CZ        70.0960   29.1260   14.3180 C.ar  144  TYR144      0.1957
     77  OH        71.0810   29.9750   13.8530 O.3   144  TYR144     -0.2866
     78  N         77.6730   32.7310   17.1850 N.3   174  PRO174     -0.2102
     79  CA        77.2990   34.1370   17.2580 C.3   174  PRO174      0.1504
     80  C         75.8990   34.3900   17.8550 C.2   174  PRO174      0.2576
     81  O         75.0340   33.5120   17.8580 O.2   174  PRO174     -0.2718
     82  CB        77.3240   34.5850   15.7780 C.3   174  PRO174      0.0282
     83  CG        77.9740   33.4810   15.0110 C.3   174  PRO174      0.0208
     84  CD        77.6660   32.2460   15.7960 C.3   174  PRO174      0.0893
     85  N         75.7110   35.5870   18.3920 N.am  175  ASN175     -0.1961
     86  CA        74.3890   36.1890   18.5050 C.3   175  ASN175      0.1819
     87  C         74.4560   37.6650   18.1840 C.2   175  ASN175      0.2622
     88  O         75.4140   38.3360   18.5730 O.2   175  ASN175     -0.2715
     89  CB        73.8140   36.0260   19.9130 C.3   175  ASN175      0.1195
     90  CG        72.3920   36.5810   20.0190 C.2   175  ASN175      0.2630
     91  OD1       71.4490   35.9910   19.4750 O.2   175  ASN175     -0.2716
     92  ND2       72.2420   37.7610   20.6610 N.am  175  ASN175     -0.0877
     93  N         73.4240   38.1620   17.5000 N.am  176  GLY176     -0.1940
     94  CA        73.2220   39.5990   17.3090 C.3   176  GLY176      0.2014
     95  C         74.2500   40.2450   16.4030 C.2   176  GLY176      0.2638
     96  O         74.6100   41.4200   16.5880 O.2   176  GLY176     -0.2714
     97  N         74.7810   39.4620   15.4720 N.am  177  VAL177     -0.1977
     98  CA        75.6800   40.0090   14.4570 C.3   177  VAL177      0.1596
     99  C         74.8970   40.5900   13.2650 C.2   177  VAL177      0.2287
    100  O         74.1360   39.8920   12.5850 O.2   177  VAL177     -0.2864
    101  CB        76.7340   38.9630   13.9730 C.3   177  VAL177      0.0276
    102  CG1       77.6010   39.5710   12.8870 C.3   177  VAL177      0.0022
    103  CG2       77.6060   38.4540   15.1590 C.3   177  VAL177      0.0022
    104  N         71.1560   36.6160   10.5560 N.3   185  TYR185     -0.1227
    105  CA        69.9230   36.4870   11.3600 C.3   185  TYR185      0.1736
    106  C         69.5050   37.8390   11.9660 C.2   185  TYR185      0.2595
    107  O         68.4770   37.9350   12.6530 O.2   185  TYR185     -0.2718
    108  CB        70.0710   35.4110   12.4680 C.3   185  TYR185      0.0548
    109  CG        70.1160   33.9870   11.9300 C.ar  185  TYR185     -0.0200
    110  CD1       68.9330   33.2610   11.7000 C.ar  185  TYR185     -0.0009
    111  CD2       71.3340   33.4140   11.5160 C.ar  185  TYR185     -0.0009
    112  CE1       68.9730   31.9970   11.0990 C.ar  185  TYR185      0.0417
    113  CE2       71.3750   32.1690   10.9080 C.ar  185  TYR185      0.0417
    114  CZ        70.2060   31.4420   10.7530 C.ar  185  TYR185      0.1957
    115  OH        70.2700   30.1990   10.1570 O.3   185  TYR185     -0.2866
    116  N         70.3320   38.8630   11.7580 N.am  186  TYR186     -0.1976
    117  CA        70.0060   40.2060   12.2450 C.3   186  TYR186      0.1639
    118  C         70.0970   41.3060   11.1660 C.2   186  TYR186      0.2290
    119  O         71.0140   42.1250   11.1800 O.2   186  TYR186     -0.2864
    120  CB        70.8500   40.5590   13.4720 C.3   186  TYR186      0.0560
    121  CG        70.4600   39.8000   14.7270 C.ar  186  TYR186     -0.0198
    122  CD1       70.8930   38.4880   14.9460 C.ar  186  TYR186     -0.0009
    123  CD2       69.6670   40.4000   15.7040 C.ar  186  TYR186     -0.0009
    124  CE1       70.5060   37.7920   16.0940 C.ar  186  TYR186      0.0417
    125  CE2       69.2730   39.7190   16.8360 C.ar  186  TYR186      0.0417
    126  CZ        69.6900   38.4150   17.0370 C.ar  186  TYR186      0.1957
    127  OH        69.3110   37.7540   18.1930 O.3   186  TYR186     -0.2866
@<TRIPOS>BOND
     1     1     2    1
     2     2     3    1
     3     2     5    1
     4     3     4    2
     5     5     6    1
     6     6     8   ar
     7     6     7   ar
     8     8    10   ar
     9   115   114    1
    10   104   105    1
    11   114   113   ar
    12   114   112   ar
    13     7     9   ar
    14   113   111   ar
    15    12    13    1
    16   112   110   ar
    17   118   119    2
    18   118   117    1
    19    10    11   ar
    20   105   106    1
    21   105   108    1
    22   111   109   ar
    23   110   109   ar
    24   116   106   am
    25   116   117    1
    26    15    14    2
    27   109   108    1
    28   106   107    2
    29     9    11   ar
    30   117   120    1
    31    13    14    1
    32    13    16    1
    33   100    99    2
    34   102   101    1
    35    99    98    1
    36    17    16    1
    37    75    73   ar
    38    75    76   ar
    39   120   121    1
    40    16    18    1
    41    77    76    1
    42    73    71   ar
    43   101    98    1
    44   101   103    1
    45    76    74   ar
    46    98    97    1
    47   121   122   ar
    48   121   123   ar
    49   122   124   ar
    50    19    20    1
    51    83    82    1
    52    83    84    1
    53    71    70    1
    54    71    72   ar
    55    25    27   ar
    56    25    24   ar
    57    97    95   am
    58    74    72   ar
    59   123   125   ar
    60    70    67    1
    61    27    28   ar
    62    82    79    1
    63    84    78    1
    64    67    66    1
    65    67    68    1
    66   124   126   ar
    67    33    34    1
    68    20    23    1
    69    20    21    1
    70    95    96    2
    71    95    94    1
    72    37    34    1
    73    37    38    1
    74    69    68    2
    75    24    23    1
    76    24    26   ar
    77   125   126   ar
    78    21    22    2
    79    34    35    1
    80   126   127    1
    81    28    26   ar
    82    28    30   ar
    83    78    79    1
    84    79    80    1
    85    94    93    1
    86    93    87   am
    87    64    63    1
    88    26    29   ar
    89    30    32   ar
    90    80    81    2
    91    80    85   am
    92    87    86    1
    93    87    88    2
    94    85    86    1
    95    63    65    1
    96    63    62    1
    97    35    36    2
    98    86    89    1
    99    61    60    2
   100    29    31   ar
   101    32    31   ar
   102    59    60    1
   103    59    62    1
   104    59    58    1
   105    43    40    1
   106    91    90    2
   107    89    90    1
   108    90    92   am
   109    39    40    1
   110    40    41    1
   111    57    55   ar
   112    57    56   ar
   113    41    42    2
   114    55    53   ar
   115    56    54   ar
   116    53    52   ar
   117    53    51   ar
   118    54    51   ar
   119    52    50   ar
   120    51    49   ar
   121    50    49   ar
   122    49    48    1
   123    48    45    1
   124    45    46    1
   125    45    44    1
   126    46    47    2
