@<TRIPOS>MOLECULE
tmp/4ixuB00.pdb
 152 145 0 0 0
SMALL
GASTEIGER

@<TRIPOS>ATOM
      1  N         47.2310   59.5420   44.5730 N.3   122  HIS122     -0.1241
      2  CA        47.9100   59.8530   43.3140 C.3   122  HIS122      0.1621
      3  C         47.3630   59.0000   42.1880 C.2   122  HIS122      0.2264
      4  O         46.8230   57.9260   42.4350 O.2   122  HIS122     -0.2867
      5  CB        49.3930   59.5410   43.4400 C.3   122  HIS122      0.0745
      6  CG        50.0210   60.1470   44.6510 C.ar  122  HIS122      0.0817
      7  ND1       50.1760   59.4430   45.8250 N.ar  122  HIS122     -0.2268
      8  CD2       50.5340   61.3800   44.8700 C.ar  122  HIS122      0.1154
      9  CE1       50.7500   60.2220   46.7260 C.ar  122  HIS122      0.1986
     10  NE2       50.9810   61.4000   46.1760 N.ar  122  HIS122     -0.2212
     11  N         49.2540   57.8160   39.6190 N.3   124  ASP124     -0.1239
     12  CA        50.2780   56.8370   39.2390 C.3   124  ASP124      0.1674
     13  C         50.2600   56.5510   37.7370 C.2   124  ASP124      0.2266
     14  O         50.4650   55.4180   37.3070 O.2   124  ASP124     -0.2867
     15  CB        50.1080   55.5350   40.0350 C.3   124  ASP124      0.1410
     16  CG        50.3010   55.7280   41.5220 C.2   124  ASP124      0.3668
     17  OD1       50.6130   56.8660   41.9160 O.co2 124  ASP124     -0.2456
     18  OD2       50.1270   54.7450   42.2930 O.co2 124  ASP124     -0.2456
     19  N         51.7920   58.7300   35.2790 N.3   126  ASN126     -0.1240
     20  CA        52.8680   59.3070   34.4920 C.3   126  ASN126      0.1653
     21  C         53.4660   58.2540   33.5710 C.2   126  ASN126      0.2266
     22  O         53.4440   57.0620   33.8830 O.2   126  ASN126     -0.2867
     23  CB        53.9620   59.8740   35.3840 C.3   126  ASN126      0.1155
     24  CG        53.6400   61.2600   35.8740 C.2   126  ASN126      0.2627
     25  OD1       53.4890   62.1860   35.0750 O.2   126  ASN126     -0.2716
     26  ND2       53.5510   61.4200   37.1870 N.am  126  ASN126     -0.0877
     27  N         56.6650   61.6600   30.8800 N.3   130  THR130     -0.1203
     28  CA        56.0370   62.7200   31.6900 C.3   130  THR130      0.1994
     29  C         56.4900   62.7530   33.1490 C.2   130  THR130      0.2619
     30  O         56.2970   63.7560   33.8360 O.2   130  THR130     -0.2717
     31  CB        54.4690   62.6700   31.6660 C.3   130  THR130      0.1784
     32  OG1       53.9740   61.5640   32.4490 O.3   130  THR130     -0.2211
     33  CG2       53.9450   62.5810   30.2400 C.3   130  THR130      0.0376
     34  N         57.0720   61.6650   33.6400 N.am  131  THR131     -0.1938
     35  CA        57.4690   61.6430   35.0480 C.3   131  THR131      0.2028
     36  C         58.4920   62.7250   35.3560 C.2   131  THR131      0.2643
     37  O         59.4260   62.9350   34.5810 O.2   131  THR131     -0.2714
     38  CB        58.0250   60.2800   35.4980 C.3   131  THR131      0.1808
     39  OG1       58.4390   60.3600   36.8740 O.3   131  THR131     -0.2208
     40  CG2       59.2070   59.8730   34.6520 C.3   131  THR131      0.0379
     41  N         58.3120   63.4120   36.4820 N.am  132  SER132     -0.1935
     42  CA        59.2750   64.4210   36.9070 C.3   132  SER132      0.2055
     43  C         60.2190   63.8520   37.9530 C.2   132  SER132      0.2643
     44  O         61.2020   64.4880   38.3130 O.2   132  SER132     -0.2714
     45  CB        58.5630   65.6630   37.4560 C.3   132  SER132      0.2130
     46  OG        57.7960   65.3600   38.6010 O.3   132  SER132     -0.2179
     47  N         59.9150   62.6470   38.4300 N.am  133  SER133     -0.1949
     48  CA        60.6850   62.0300   39.5040 C.3   133  SER133      0.1924
     49  C         61.5540   60.8760   39.0070 C.2   133  SER133      0.2314
     50  O         62.5990   60.5860   39.5840 O.2   133  SER133     -0.2863
     51  CB        59.7380   61.5150   40.5870 C.3   133  SER133      0.2116
     52  OG        58.9780   60.4260   40.0910 O.3   133  SER133     -0.2180
     53  N         60.5120   57.9270   39.2230 N.3   135  ASN135     -0.1240
     54  CA        60.1490   56.8040   40.0980 C.3   135  ASN135      0.1653
     55  C         59.0230   55.9860   39.5020 C.2   135  ASN135      0.2266
     56  O         57.9230   56.5070   39.2580 O.2   135  ASN135     -0.2867
     57  CB        59.7700   57.3030   41.5040 C.3   135  ASN135      0.1155
     58  CG        60.9170   58.0400   42.1820 C.2   135  ASN135      0.2627
     59  OD1       62.0750   57.7420   41.9250 O.2   135  ASN135     -0.2716
     60  ND2       60.6010   59.0020   43.0500 N.am  135  ASN135     -0.0877
     61  N         57.0780   53.8530   40.6590 N.3   137  HIS137     -0.1226
     62  CA        55.8590   53.7280   41.4310 C.3   137  HIS137      0.1752
     63  C         54.7900   54.7680   41.1120 C.2   137  HIS137      0.2596
     64  O         53.6680   54.6590   41.5270 O.2   137  HIS137     -0.2718
     65  CB        56.0820   53.6110   42.9260 C.3   137  HIS137      0.0759
     66  CG        56.4150   54.9100   43.6030 C.ar  137  HIS137      0.0818
     67  ND1       56.1460   55.1580   44.8810 N.ar  137  HIS137     -0.2268
     68  CD2       56.9830   56.0410   43.1070 C.ar  137  HIS137      0.1154
     69  CE1       56.5560   56.3900   45.1760 C.ar  137  HIS137      0.1986
     70  NE2       57.0500   56.9260   44.1020 N.ar  137  HIS137     -0.2212
     71  N         55.1840   55.7870   40.3960 N.am  138  GLY138     -0.1957
     72  CA        54.2810   56.8350   39.9520 C.3   138  GLY138      0.1869
     73  C         53.9290   56.7140   38.4820 C.2   138  GLY138      0.2309
     74  O         53.2870   57.5930   37.9070 O.2   138  GLY138     -0.2863
     75  N         46.5820   64.5270   44.5810 N.3   177  ASP177     -0.1225
     76  CA        47.9450   64.9760   44.2750 C.3   177  ASP177      0.1805
     77  C         48.2670   64.4680   42.8730 C.2   177  ASP177      0.2598
     78  O         48.8970   63.4280   42.7040 O.2   177  ASP177     -0.2718
     79  CB        48.9190   64.4150   45.3340 C.3   177  ASP177      0.1424
     80  CG        50.3420   64.9770   45.2180 C.2   177  ASP177      0.3668
     81  OD1       50.5260   66.0180   44.5560 O.co2 177  ASP177     -0.2456
     82  OD2       51.2800   64.3750   45.8080 O.co2 177  ASP177     -0.2456
     83  N         47.8100   65.2130   41.8710 N.am  178  VAL178     -0.1966
     84  CA        47.9020   64.8040   40.4760 C.3   178  VAL178      0.1727
     85  C         48.8070   65.7540   39.6890 C.2   178  VAL178      0.2616
     86  O         48.6180   66.9650   39.7430 O.2   178  VAL178     -0.2715
     87  CB        46.4860   64.7890   39.8540 C.3   178  VAL178      0.0290
     88  CG1       46.5430   64.4430   38.3820 C.3   178  VAL178      0.0023
     89  CG2       45.5890   63.8110   40.6280 C.3   178  VAL178      0.0023
     90  N         49.8050   65.2130   38.9840 N.am  179  ASP179     -0.1958
     91  CA        50.7220   66.0470   38.1960 C.3   179  ASP179      0.1825
     92  C         49.9980   66.5830   36.9680 C.2   179  ASP179      0.2464
     93  O         49.0510   65.9650   36.4960 O.2   179  ASP179     -0.2730
     94  CB        51.9610   65.2540   37.7510 C.3   179  ASP179      0.1450
     95  CG        52.7570   64.7030   38.9220 C.2   179  ASP179      0.3671
     96  OD1       52.6610   65.2760   40.0220 O.co2 179  ASP179     -0.2456
     97  OD2       53.4950   63.7070   38.7400 O.co2 179  ASP179     -0.2456
     98  N         50.4240   67.7490   36.4550 N.am  180  PRO180     -0.2716
     99  CA        49.7440   68.2760   35.2640 C.3   180  PRO180      0.1521
    100  C         49.6790   67.3050   34.0700 C.2   180  PRO180      0.2440
    101  O         48.6020   67.1870   33.4600 O.2   180  PRO180     -0.2731
    102  CB        50.5560   69.5410   34.9230 C.3   180  PRO180      0.0310
    103  CG        51.1150   69.9870   36.2510 C.3   180  PRO180      0.0237
    104  CD        51.4200   68.6980   36.9950 C.3   180  PRO180      0.0939
    105  N         50.7880   66.6110   33.7400 N.am  181  PRO181     -0.2716
    106  CA        50.6130   65.6740   32.6220 C.3   181  PRO181      0.1536
    107  C         49.6310   64.5540   32.9300 C.2   181  PRO181      0.2598
    108  O         48.9730   64.0540   32.0090 O.2   181  PRO181     -0.2715
    109  CB        52.0170   65.0960   32.4000 C.3   181  PRO181      0.0310
    110  CG        52.8430   65.5070   33.5520 C.3   181  PRO181      0.0237
    111  CD        52.1920   66.6980   34.1860 C.3   181  PRO181      0.0939
    112  N         49.5390   64.1490   34.1960 N.am  182  GLU182     -0.1978
    113  CA        48.5830   63.1150   34.5690 C.3   182  GLU182      0.1602
    114  C         47.1660   63.6140   34.3860 C.2   182  GLU182      0.2287
    115  O         46.2840   62.8730   33.9480 O.2   182  GLU182     -0.2864
    116  CB        48.7780   62.6800   36.0210 C.3   182  GLU182      0.0415
    117  CG        50.0760   61.9580   36.2940 C.3   182  GLU182      0.1163
    118  CD        50.1830   61.5380   37.7520 C.2   182  GLU182      0.3649
    119  OE1       50.1660   62.4310   38.6310 O.co2 182  GLU182     -0.2457
    120  OE2       50.2560   60.3180   38.0130 O.co2 182  GLU182     -0.2457
    121  N         46.5950   51.9110   47.6410 N.3   228  ASP228     -0.1239
    122  CA        47.7760   52.5910   48.1560 C.3   228  ASP228      0.1674
    123  C         47.3780   53.1560   49.5070 C.2   228  ASP228      0.2266
    124  O         46.4300   53.9370   49.5980 O.2   228  ASP228     -0.2867
    125  CB        48.1540   53.7010   47.1640 C.3   228  ASP228      0.1410
    126  CG        49.4380   54.4110   47.5050 C.2   228  ASP228      0.3668
    127  OD1       49.8010   54.4850   48.7030 O.co2 228  ASP228     -0.2456
    128  OD2       50.0970   54.9250   46.5580 O.co2 228  ASP228     -0.2456
    129  N         48.4550   55.4410   51.1570 N.3   230  ASP230     -0.1239
    130  CA        48.4490   56.9170   51.2010 C.3   230  ASP230      0.1674
    131  C         47.1260   57.5370   50.7420 C.2   230  ASP230      0.2266
    132  O         46.9460   58.7540   50.7720 O.2   230  ASP230     -0.2867
    133  CB        49.6950   57.5390   50.5260 C.3   230  ASP230      0.1410
    134  CG        49.6850   57.4690   48.9860 C.2   230  ASP230      0.3668
    135  OD1       48.6270   57.3270   48.3410 O.co2 230  ASP230     -0.2456
    136  OD2       50.7880   57.5880   48.4030 O.co2 230  ASP230     -0.2456
    137  N         54.7910   59.0390   50.4320 N.3   242  THR242     -0.1218
    138  CA        54.2930   60.2800   49.8490 C.3   242  THR242      0.1862
    139  C         52.9390   60.6690   50.4280 C.2   242  THR242      0.2287
    140  O         51.9270   60.6120   49.7300 O.2   242  THR242     -0.2866
    141  CB        54.1860   60.1640   48.3160 C.3   242  THR242      0.1770
    142  OG1       53.2960   59.0930   47.9740 O.3   242  THR242     -0.2211
    143  CG2       55.5450   59.8790   47.7200 C.3   242  THR242      0.0375
    144  N         52.6460   50.4700   49.7020 N.3   273  GLU273     -0.1245
    145  CA        53.2670   51.7140   50.1890 C.3   273  GLU273      0.1567
    146  C         53.3100   51.9110   51.7110 C.2   273  GLU273      0.2260
    147  O         53.6410   53.0010   52.1950 O.2   273  GLU273     -0.2867
    148  CB        52.7120   52.9480   49.4550 C.3   273  GLU273      0.0388
    149  CG        52.9560   52.9540   47.9180 C.3   273  GLU273      0.1160
    150  CD        54.3690   53.3520   47.5170 C.2   273  GLU273      0.3649
    151  OE1       55.1750   53.6840   48.4180 O.co2 273  GLU273     -0.2457
    152  OE2       54.6810   53.3380   46.2940 O.co2 273  GLU273     -0.2457
@<TRIPOS>BOND
     1    33    31    1
     2    27    28    1
     3    31    28    1
     4    31    32    1
     5    28    29    1
     6   108   107    2
     7   109   106    1
     8   109   110    1
     9   106   107    1
    10   106   105    1
    11   107   112   am
    12    29    34   am
    13    29    30    2
    14   101   100    2
    15   110   111    1
    16    21    22    2
    17    21    20    1
    18    34    35    1
    19   105   100   am
    20   105   111    1
    21   115   114    2
    22   100    99    1
    23   112   113    1
    24   114   113    1
    25    20    19    1
    26    20    23    1
    27   113   116    1
    28    37    36    2
    29    40    38    1
    30   102    99    1
    31   102   103    1
    32    35    36    1
    33    35    38    1
    34    25    24    2
    35    99    98    1
    36    36    41   am
    37    23    24    1
    38    38    39    1
    39    24    26   am
    40   116   117    1
    41   103   104    1
    42   117   118    1
    43    98    92   am
    44    98   104    1
    45    41    42    1
    46    93    92    2
    47    42    45    1
    48    42    43    1
    49    92    91    1
    50    14    13    2
    51    45    46    1
    52    13    12    1
    53    94    91    1
    54    94    95    1
    55   118   120   ar
    56   118   119   ar
    57    74    73    2
    58    43    44    2
    59    43    47   am
    60    91    90    1
    61    88    87    1
    62    47    48    1
    63    73    72    1
    64    97    95   ar
    65    95    96   ar
    66    90    85   am
    67    49    48    1
    68    49    50    2
    69    53    54    1
    70    12    11    1
    71    12    15    1
    72    56    55    2
    73    55    54    1
    74    48    51    1
    75    85    86    2
    76    85    84    1
    77    87    84    1
    78    87    89    1
    79    72    71    1
    80    15    16    1
    81    52    51    1
    82    54    57    1
    83    71    63   am
    84    84    83    1
    85    61    62    1
    86    63    62    1
    87    63    64    2
    88    62    65    1
    89    57    58    1
    90    16    17   ar
    91    16    18   ar
    92    83    77   am
    93    59    58    2
    94    58    60   am
    95     3     4    2
    96     3     2    1
    97    78    77    2
    98    77    76    1
    99    65    66    1
   100    68    66   ar
   101    68    70   ar
   102     2     5    1
   103     2     1    1
   104     5     6    1
   105    66    67   ar
   106    70    69   ar
   107    76    75    1
   108    76    79    1
   109    81    80   ar
   110     6     8   ar
   111     6     7   ar
   112     8    10   ar
   113    67    69   ar
   114    80    79    1
   115    80    82   ar
   116     7     9   ar
   117    10     9   ar
   118   152   150   ar
   119   128   126   ar
   120   125   126    1
   121   125   122    1
   122   126   127   ar
   123   150   149    1
   124   150   151   ar
   125   121   122    1
   126   143   141    1
   127   149   148    1
   128   142   141    1
   129   122   123    1
   130   141   138    1
   131   135   134   ar
   132   136   134   ar
   133   134   133    1
   134   148   145    1
   135   123   124    2
   136   144   145    1
   137   140   139    2
   138   138   139    1
   139   138   137    1
   140   145   146    1
   141   133   130    1
   142   131   132    2
   143   131   130    1
   144   129   130    1
   145   146   147    2
