@<TRIPOS>MOLECULE
tmp/4ixvA00.pdb
 134 123 0 0 0
SMALL
GASTEIGER

@<TRIPOS>ATOM
      1  N         41.2210   90.2010   63.8360 N.3    97  HIS97      -0.1241
      2  CA        40.1360   90.4020   62.8800 C.3    97  HIS97       0.1621
      3  C         39.5540   91.8290   62.8150 C.2    97  HIS97       0.2264
      4  O         38.7170   92.1030   61.9590 O.2    97  HIS97      -0.2867
      5  CB        39.0240   89.3580   63.0880 C.3    97  HIS97       0.0745
      6  CG        38.3880   88.8820   61.8140 C.ar   97  HIS97       0.0817
      7  ND1       37.7570   87.6570   61.7080 N.ar   97  HIS97      -0.2268
      8  CD2       38.2850   89.4610   60.5930 C.ar   97  HIS97       0.1154
      9  CE1       37.2910   87.5090   60.4840 C.ar   97  HIS97       0.1986
     10  NE2       37.5990   88.5910   59.7850 N.ar   97  HIS97      -0.2212
     11  N         33.1010   82.5400   64.9040 N.3   122  HIS122     -0.1241
     12  CA        32.3990   83.6310   65.5910 C.3   122  HIS122      0.1621
     13  C         31.7170   84.5880   64.6090 C.2   122  HIS122      0.2264
     14  O         32.1310   84.7110   63.4490 O.2   122  HIS122     -0.2867
     15  CB        33.3930   84.4380   66.4180 C.3   122  HIS122      0.0745
     16  CG        34.2740   83.5920   67.2780 C.ar  122  HIS122      0.0817
     17  ND1       35.5230   83.1670   66.8710 N.ar  122  HIS122     -0.2268
     18  CD2       34.0820   83.0780   68.5150 C.ar  122  HIS122      0.1154
     19  CE1       36.0670   82.4400   67.8300 C.ar  122  HIS122      0.1986
     20  NE2       35.2090   82.3660   68.8340 N.ar  122  HIS122     -0.2212
     21  N         31.4390   87.9280   65.2080 N.3   124  ASP124     -0.1239
     22  CA        32.1630   89.2050   65.2220 C.3   124  ASP124      0.1674
     23  C         31.2570   90.4350   65.0120 C.2   124  ASP124      0.2266
     24  O         31.6600   91.4330   64.3990 O.2   124  ASP124     -0.2867
     25  CB        33.2730   89.1890   64.1720 C.3   124  ASP124      0.1410
     26  CG        34.3690   88.1780   64.4850 C.2   124  ASP124      0.3668
     27  OD1       34.2680   87.4620   65.4970 O.co2 124  ASP124     -0.2456
     28  OD2       35.3230   88.0840   63.6960 O.co2 124  ASP124     -0.2456
     29  N         29.2370   91.8410   67.6310 N.3   126  ASN126     -0.1240
     30  CA        28.9750   92.6500   68.8160 C.3   126  ASN126      0.1653
     31  C         29.1620   94.1040   68.4940 C.2   126  ASN126      0.2266
     32  O         29.9560   94.4520   67.6190 O.2   126  ASN126     -0.2867
     33  CB        29.9090   92.2860   69.9580 C.3   126  ASN126      0.1155
     34  CG        29.4690   91.0510   70.6790 C.2   126  ASN126      0.2627
     35  OD1       28.4090   91.0380   71.3070 O.2   126  ASN126     -0.2716
     36  ND2       30.2740   89.9990   70.5940 N.am  126  ASN126     -0.0877
     37  N         29.3220   94.0630   73.5240 N.3   131  THR131     -0.1203
     38  CA        30.5530   93.3290   73.7780 C.3   131  THR131      0.1994
     39  C         30.7280   93.1060   75.2720 C.2   131  THR131      0.2619
     40  O         30.4710   94.0080   76.0870 O.2   131  THR131     -0.2717
     41  CB        31.8030   94.0440   73.2130 C.3   131  THR131      0.1784
     42  OG1       32.9680   93.2520   73.4810 O.3   131  THR131     -0.2211
     43  CG2       31.9730   95.4670   73.8180 C.3   131  THR131      0.0376
     44  N         31.1350   91.8930   75.6300 N.am  132  SER132     -0.1937
     45  CA        31.3800   91.5670   77.0260 C.3   132  SER132      0.2055
     46  C         32.8780   91.5640   77.3280 C.2   132  SER132      0.2643
     47  O         33.2820   91.4180   78.4790 O.2   132  SER132     -0.2714
     48  CB        30.7650   90.2110   77.3780 C.3   132  SER132      0.2130
     49  OG        31.4130   89.1570   76.6880 O.3   132  SER132     -0.2179
     50  N         33.6890   91.7310   76.2850 N.am  133  SER133     -0.1949
     51  CA        35.1430   91.6650   76.4030 C.3   133  SER133      0.1924
     52  C         35.7900   93.0160   76.1570 C.2   133  SER133      0.2314
     53  O         36.8740   93.2830   76.6470 O.2   133  SER133     -0.2863
     54  CB        35.7190   90.6630   75.4010 C.3   133  SER133      0.2116
     55  OG        35.5690   91.1410   74.0680 O.3   133  SER133     -0.2180
     56  N         36.9310   93.7730   73.2900 N.3   135  ASN135     -0.1240
     57  CA        37.9140   93.5450   72.2320 C.3   135  ASN135      0.1653
     58  C         37.3080   93.7860   70.8570 C.2   135  ASN135      0.2266
     59  O         36.3370   93.1230   70.4610 O.2   135  ASN135     -0.2867
     60  CB        38.4800   92.1310   72.3210 C.3   135  ASN135      0.1155
     61  CG        39.1990   91.8750   73.6400 C.2   135  ASN135      0.2627
     62  OD1       39.7800   92.7960   74.2490 O.2   135  ASN135     -0.2716
     63  ND2       39.1570   90.6240   74.0970 N.am  135  ASN135     -0.0877
     64  N         38.1670   93.0410   67.9260 N.3   137  HIS137     -0.1226
     65  CA        38.1320   91.9370   66.9580 C.3   137  HIS137      0.1752
     66  C         36.8600   91.0810   67.0210 C.2   137  HIS137      0.2596
     67  O         36.6790   90.2070   66.1770 O.2   137  HIS137     -0.2718
     68  CB        39.3580   91.0190   67.0710 C.3   137  HIS137      0.0759
     69  CG        39.3190   90.0900   68.2470 C.ar  137  HIS137      0.0818
     70  ND1       40.0220   88.9060   68.2630 N.ar  137  HIS137     -0.2268
     71  CD2       38.6710   90.1610   69.4340 C.ar  137  HIS137      0.1154
     72  CE1       39.8070   88.2820   69.4080 C.ar  137  HIS137      0.1986
     73  NE2       38.9980   89.0250   70.1420 N.ar  137  HIS137     -0.2212
     74  N         35.9780   91.3400   67.9810 N.am  138  GLY138     -0.1957
     75  CA        34.7340   90.6280   68.0860 C.3   138  GLY138      0.1869
     76  C         33.5620   91.5280   67.7690 C.2   138  GLY138      0.2309
     77  O         32.4370   91.1540   67.9110 O.2   138  GLY138     -0.2863
     78  N         30.3130   79.6330   68.0520 N.3   177  ASP177     -0.1239
     79  CA        30.4930   80.2890   69.3460 C.3   177  ASP177      0.1674
     80  C         29.9260   81.6990   69.2020 C.2   177  ASP177      0.2266
     81  O         30.6350   82.6440   68.8650 O.2   177  ASP177     -0.2867
     82  CB        31.9780   80.3060   69.7350 C.3   177  ASP177      0.1410
     83  CG        32.2390   80.9610   71.1010 C.2   177  ASP177      0.3668
     84  OD1       31.2800   81.1750   71.8600 O.co2 177  ASP177     -0.2456
     85  OD2       33.4190   81.2670   71.4110 O.co2 177  ASP177     -0.2456
     86  N         27.6700   84.8900   70.7820 N.3   179  ASP179     -0.1239
     87  CA        27.1420   85.4910   72.0090 C.3   179  ASP179      0.1674
     88  C         25.6510   85.7350   71.8170 C.2   179  ASP179      0.2266
     89  O         25.2120   85.9920   70.6950 O.2   179  ASP179     -0.2867
     90  CB        27.8540   86.8150   72.3490 C.3   179  ASP179      0.1410
     91  CG        29.3450   86.6370   72.6050 C.2   179  ASP179      0.3668
     92  OD1       29.7300   85.5400   73.0620 O.co2 179  ASP179     -0.2456
     93  OD2       30.1350   87.5750   72.3240 O.co2 179  ASP179     -0.2456
     94  N         24.6610   88.7350   69.8980 N.3   182  GLU182     -0.1245
     95  CA        24.9540   88.5420   68.4830 C.3   182  GLU182      0.1567
     96  C         23.8810   87.6830   67.8320 C.2   182  GLU182      0.2260
     97  O         23.5230   87.9090   66.6790 O.2   182  GLU182     -0.2867
     98  CB        26.3140   87.8810   68.2790 C.3   182  GLU182      0.0388
     99  CG        27.5250   88.7210   68.6520 C.3   182  GLU182      0.1160
    100  CD        28.8050   87.9140   68.4870 C.2   182  GLU182      0.3649
    101  OE1       28.9730   86.9400   69.2590 O.co2 182  GLU182     -0.2457
    102  OE2       29.6120   88.2320   67.5770 O.co2 182  GLU182     -0.2457
    103  N         38.7150   83.8840   59.0590 N.3   228  ASP228     -0.1239
    104  CA        39.3230   83.7380   60.3720 C.3   228  ASP228      0.1674
    105  C         39.8260   82.2930   60.4990 C.2   228  ASP228      0.2266
    106  O         39.0450   81.3380   60.3740 O.2   228  ASP228     -0.2867
    107  CB        38.2830   84.0160   61.4560 C.3   228  ASP228      0.1410
    108  CG        38.8840   84.0710   62.8560 C.2   228  ASP228      0.3668
    109  OD1       39.9070   83.4050   63.1280 O.co2 228  ASP228     -0.2456
    110  OD2       38.3220   84.7980   63.6970 O.co2 228  ASP228     -0.2456
    111  N         40.4350   80.5210   62.9020 N.3   230  ASP230     -0.1239
    112  CA        39.7320   79.7490   63.9300 C.3   230  ASP230      0.1674
    113  C         38.4100   79.1090   63.4660 C.2   230  ASP230      0.2266
    114  O         37.7600   78.4130   64.2400 O.2   230  ASP230     -0.2867
    115  CB        39.5690   80.5400   65.2540 C.3   230  ASP230      0.1410
    116  CG        38.5060   81.6420   65.1910 C.2   230  ASP230      0.3668
    117  OD1       37.6180   81.6120   64.3130 O.co2 230  ASP230     -0.2456
    118  OD2       38.5560   82.5580   66.0480 O.co2 230  ASP230     -0.2456
    119  N         41.2290   82.3920   70.0440 N.3   242  THR242     -0.1218
    120  CA        39.9570   81.8930   70.5620 C.3   242  THR242      0.1862
    121  C         39.5310   80.5920   69.8580 C.2   242  THR242      0.2287
    122  O         38.5310   80.5620   69.1470 O.2   242  THR242     -0.2866
    123  CB        38.8240   82.9400   70.4130 C.3   242  THR242      0.1770
    124  OG1       39.3200   84.2550   70.6990 O.3   242  THR242     -0.2211
    125  CG2       37.6440   82.6100   71.3450 C.3   242  THR242      0.0375
    126  N         44.0410   86.2260   62.3910 N.3   273  GLU273     -0.1245
    127  CA        44.0420   85.5400   63.6890 C.3   273  GLU273      0.1567
    128  C         45.0370   84.3650   63.8500 C.2   273  GLU273      0.2260
    129  O         44.9850   83.6300   64.8470 O.2   273  GLU273     -0.2867
    130  CB        42.6200   85.1400   64.1230 C.3   273  GLU273      0.0388
    131  CG        41.6460   86.3190   64.2870 C.3   273  GLU273      0.1160
    132  CD        41.8480   87.0900   65.5910 C.2   273  GLU273      0.3649
    133  OE1       42.7250   86.7020   66.3930 O.co2 273  GLU273     -0.2457
    134  OE2       41.1360   88.0920   65.8110 O.co2 273  GLU273     -0.2457
@<TRIPOS>BOND
     1   103   104    1
     2    10     9   ar
     3    10     8   ar
     4   104   105    1
     5   104   107    1
     6   106   105    2
     7     9     7   ar
     8     8     6   ar
     9   107   108    1
    10     7     6   ar
    11     6     5    1
    12     4     3    2
    13   126   127    1
    14     3     2    1
    15   108   109   ar
    16   108   110   ar
    17     2     5    1
    18     2     1    1
    19   111   112    1
    20    14    13    2
    21   113   112    1
    22   113   114    2
    23   127   128    1
    24   127   130    1
    25    28    26   ar
    26   128   129    2
    27   112   115    1
    28   130   131    1
    29    25    26    1
    30    25    22    1
    31   131   132    1
    32   117   116   ar
    33    24    23    2
    34    26    27   ar
    35    13    12    1
    36    11    12    1
    37    23    22    1
    38   116   115    1
    39   116   118   ar
    40    21    22    1
    41   132   134   ar
    42   132   133   ar
    43    12    15    1
    44    67    66    2
    45    15    16    1
    46    97    96    2
    47    17    16   ar
    48    17    19   ar
    49    65    66    1
    50    65    68    1
    51    65    64    1
    52    66    74   am
    53    68    69    1
    54    16    18   ar
    55   102   100   ar
    56    32    31    2
    57    29    30    1
    58    76    77    2
    59    76    75    1
    60    19    20   ar
    61    96    95    1
    62    74    75    1
    63    78    79    1
    64    69    70   ar
    65    69    71   ar
    66    70    72   ar
    67    98    95    1
    68    98    99    1
    69    95    94    1
    70   100    99    1
    71   100   101   ar
    72    31    30    1
    73    18    20   ar
    74    30    33    1
    75    81    80    2
    76   122   121    2
    77    80    79    1
    78    79    82    1
    79    72    73   ar
    80    71    73   ar
    81    82    83    1
    82   121   120    1
    83    33    34    1
    84   119   120    1
    85   123   120    1
    86   123   124    1
    87   123   125    1
    88    59    58    2
    89    36    34   am
    90    34    35    2
    91    89    88    2
    92    86    87    1
    93    58    57    1
    94    83    85   ar
    95    83    84   ar
    96    88    87    1
    97    87    90    1
    98    57    60    1
    99    57    56    1
   100    60    61    1
   101    93    91   ar
   102    90    91    1
   103    91    92   ar
   104    41    42    1
   105    41    38    1
   106    41    43    1
   107    37    38    1
   108    61    63   am
   109    61    62    2
   110    38    39    1
   111    55    54    1
   112    39    44   am
   113    39    40    2
   114    54    51    1
   115    44    45    1
   116    52    51    1
   117    52    53    2
   118    50    51    1
   119    50    46   am
   120    49    48    1
   121    45    46    1
   122    45    48    1
   123    46    47    2
