@<TRIPOS>MOLECULE
tmp/4ixwB00.pdb
 128 128 0 0 0
SMALL
GASTEIGER

@<TRIPOS>ATOM
      1  N         72.6510   -0.5240   27.4780 N.3    11  PHE11      -0.1241
      2  CA        72.9890    0.7620   28.0560 C.3    11  PHE11       0.1605
      3  C         72.2530    0.9030   29.3870 C.2    11  PHE11       0.2264
      4  O         72.3210    0.0310   30.2390 O.2    11  PHE11      -0.2867
      5  CB        72.5510    1.8680   27.0920 C.3    11  PHE11       0.0534
      6  CG        73.3280    3.1500   27.2290 C.ar   11  PHE11      -0.0203
      7  CD1       74.4760    3.2080   28.0170 C.ar   11  PHE11      -0.0042
      8  CD2       72.9240    4.2910   26.5350 C.ar   11  PHE11      -0.0042
      9  CE1       75.1970    4.3810   28.1240 C.ar   11  PHE11      -0.0003
     10  CE2       73.6330    5.4710   26.6310 C.ar   11  PHE11      -0.0003
     11  CZ        74.7790    5.5200   27.4200 C.ar   11  PHE11      -0.0000
     12  N         79.8700    2.0010   18.2280 N.3    83  VAL83      -0.1245
     13  CA        80.9600    2.9610   18.2860 C.3    83  VAL83       0.1561
     14  C         82.1660    2.4570   17.5020 C.2    83  VAL83       0.2260
     15  O         82.7870    1.4650   17.8680 O.2    83  VAL83      -0.2867
     16  CB        81.3850    3.2190   19.7300 C.3    83  VAL83       0.0252
     17  CG1       81.4460    1.9000   20.5100 C.3    83  VAL83       0.0019
     18  CG2       82.7320    3.9280   19.7610 C.3    83  VAL83       0.0019
     19  N         85.9490    3.4650   15.7300 N.3    85  TRP85      -0.1241
     20  CA        87.0010    4.4290   16.0050 C.3    85  TRP85       0.1605
     21  C         87.7250    4.9470   14.7450 C.2    85  TRP85       0.2264
     22  O         88.9060    5.3040   14.8060 O.2    85  TRP85      -0.2867
     23  CB        87.9960    3.8780   17.0420 C.3    85  TRP85       0.0550
     24  CG        87.4060    3.5650   18.4270 C.ar   85  TRP85       0.0003
     25  CD1       86.8090    2.3870   18.8220 C.ar   85  TRP85       0.0946
     26  CD2       87.4320    4.4050   19.6020 C.ar   85  TRP85       0.0152
     27  NE1       86.4330    2.4610   20.1500 N.ar   85  TRP85      -0.2442
     28  CE2       86.8030    3.6810   20.6540 C.ar   85  TRP85       0.0810
     29  CE3       87.9180    5.6960   19.8670 C.ar   85  TRP85       0.0012
     30  CZ2       86.6330    4.2130   21.9420 C.ar   85  TRP85       0.0191
     31  CZ3       87.7550    6.2190   21.1560 C.ar   85  TRP85       0.0001
     32  CH2       87.1130    5.4760   22.1730 C.ar   85  TRP85       0.0015
     33  N         72.4360   10.0250   27.1980 N.3   130  THR130     -0.1203
     34  CA        73.3600   10.4070   26.1320 C.3   130  THR130      0.1994
     35  C         74.7830    9.8510   26.3690 C.2   130  THR130      0.2619
     36  O         74.9730    8.6240   26.4350 O.2   130  THR130     -0.2717
     37  CB        73.3650   11.9350   25.9150 C.3   130  THR130      0.1784
     38  OG1       73.8350   12.6190   27.0900 O.3   130  THR130     -0.2211
     39  CG2       71.9540   12.4290   25.5760 C.3   130  THR130      0.0376
     40  N         75.7680   10.7260   26.5670 N.am  131  SER131     -0.1937
     41  CA        77.0960   10.2380   26.7840 C.3   131  SER131      0.2055
     42  C         78.0840   11.3020   27.2420 C.2   131  SER131      0.2643
     43  O         78.0880   12.4230   26.7090 O.2   131  SER131     -0.2714
     44  CB        77.6050    9.5800   25.5080 C.3   131  SER131      0.2130
     45  OG        78.9160    9.0690   25.7040 O.3   131  SER131     -0.2179
     46  N         79.0350   10.8860   28.0960 N.am  132  ALA132     -0.1963
     47  CA        80.1120   11.7690   28.5410 C.3   132  ALA132      0.1728
     48  C         81.1180   11.9830   27.4410 C.2   132  ALA132      0.2616
     49  O         82.0620   12.7670   27.5950 O.2   132  ALA132     -0.2715
     50  CB        80.7870   11.2300   29.7990 C.3   132  ALA132      0.0334
     51  N         80.9190   11.3120   26.3060 N.am  133  ALA133     -0.1977
     52  CA        81.7590   11.5750   25.1420 C.3   133  ALA133      0.1597
     53  C         81.5500   12.9790   24.5870 C.2   133  ALA133      0.2287
     54  O         82.4840   13.5550   24.0600 O.2   133  ALA133     -0.2864
     55  CB        81.5460   10.5390   24.0690 C.3   133  ALA133      0.0319
     56  N         88.3010   11.8800   24.1670 N.3   138  TRP138     -0.1241
     57  CA        88.6610   10.8660   23.1740 C.3   138  TRP138      0.1605
     58  C         89.0870   11.4320   21.8260 C.2   138  TRP138      0.2264
     59  O         88.7420   12.5600   21.4960 O.2   138  TRP138     -0.2867
     60  CB        87.4860    9.9120   23.0020 C.3   138  TRP138      0.0550
     61  CG        87.4270    8.9000   24.1180 C.ar  138  TRP138      0.0003
     62  CD1       88.3810    7.9590   24.4170 C.ar  138  TRP138      0.0946
     63  CD2       86.4360    8.7970   25.1440 C.ar  138  TRP138      0.0152
     64  NE1       88.0060    7.2390   25.5180 N.ar  138  TRP138     -0.2442
     65  CE2       86.8140    7.7230   25.9820 C.ar  138  TRP138      0.0810
     66  CE3       85.2420    9.4780   25.4140 C.ar  138  TRP138      0.0012
     67  CZ2       86.0530    7.3220   27.0820 C.ar  138  TRP138      0.0191
     68  CZ3       84.4640    9.0560   26.4910 C.ar  138  TRP138      0.0001
     69  CH2       84.8860    7.9980   27.3220 C.ar  138  TRP138      0.0015
     70  N         86.5580    9.6650   17.5600 N.3   141  LEU141     -0.1245
     71  CA        85.2050    9.3540   18.0000 C.3   141  LEU141      0.1561
     72  C         84.2260   10.4810   17.5870 C.2   141  LEU141      0.2260
     73  O         83.1750   10.6450   18.1960 O.2   141  LEU141     -0.2867
     74  CB        85.2240    9.1850   19.5270 C.3   141  LEU141      0.0270
     75  CG        84.1810    8.3650   20.2830 C.3   141  LEU141      0.0019
     76  CD1       84.3750    6.8760   20.0430 C.3   141  LEU141      0.0001
     77  CD2       84.2490    8.6760   21.7740 C.3   141  LEU141      0.0001
     78  N         80.1400   10.1820   16.9520 N.3   144  TYR144     -0.1241
     79  CA        79.4830    9.7520   18.1810 C.3   144  TYR144      0.1605
     80  C         79.3970   10.8980   19.1920 C.2   144  TYR144      0.2264
     81  O         78.3320   11.1960   19.7370 O.2   144  TYR144     -0.2867
     82  CB        80.2550    8.5640   18.7950 C.3   144  TYR144      0.0534
     83  CG        79.5300    7.9150   19.9480 C.ar  144  TYR144     -0.0201
     84  CD1       79.8930    8.1760   21.2610 C.ar  144  TYR144     -0.0009
     85  CD2       78.4440    7.0900   19.7240 C.ar  144  TYR144     -0.0009
     86  CE1       79.2030    7.6090   22.3250 C.ar  144  TYR144      0.0417
     87  CE2       77.7230    6.5590   20.7740 C.ar  144  TYR144      0.0417
     88  CZ        78.1160    6.8040   22.0680 C.ar  144  TYR144      0.1957
     89  OH        77.3740    6.2740   23.0920 O.3   144  TYR144     -0.2866
     90  N         76.5620    9.2070   30.5570 N.3   174  PRO174     -0.2102
     91  CA        77.3490    8.2280   31.3020 C.3   174  PRO174      0.1504
     92  C         78.6910    7.8840   30.6530 C.2   174  PRO174      0.2575
     93  O         78.8220    7.9140   29.4300 O.2   174  PRO174     -0.2718
     94  CB        76.4510    6.9870   31.2880 C.3   174  PRO174      0.0282
     95  CG        75.1030    7.4820   30.7970 C.3   174  PRO174      0.0208
     96  CD        75.4260    8.5810   29.8800 C.3   174  PRO174      0.0893
     97  N         79.6590    7.4980   31.4730 N.am  175  ASN175     -0.1975
     98  CA        80.7760    6.6840   31.0090 C.3   175  ASN175      0.1688
     99  C         81.0840    5.5780   32.0070 C.2   175  ASN175      0.2292
    100  O         81.0280    5.7950   33.2190 O.2   175  ASN175     -0.2864
    101  CB        82.0250    7.5340   30.7700 C.3   175  ASN175      0.1181
    102  CG        83.2070    6.7050   30.2950 C.2   175  ASN175      0.2629
    103  OD1       84.1490    6.4530   31.0470 O.2   175  ASN175     -0.2716
    104  ND2       83.1330    6.2270   29.0700 N.am  175  ASN175     -0.0877
    105  N         77.4630   -0.2160   26.8990 N.3   185  TYR185     -0.1227
    106  CA        78.7500    0.0150   26.2350 C.3   185  TYR185      0.1736
    107  C         79.9100   -0.5270   27.0670 C.2   185  TYR185      0.2595
    108  O         81.0750   -0.3980   26.6780 O.2   185  TYR185     -0.2718
    109  CB        79.0060    1.5130   26.0000 C.3   185  TYR185      0.0548
    110  CG        78.1380    2.1140   24.9220 C.ar  185  TYR185     -0.0200
    111  CD1       78.5220    2.0750   23.5860 C.ar  185  TYR185     -0.0009
    112  CD2       76.9120    2.6900   25.2390 C.ar  185  TYR185     -0.0009
    113  CE1       77.6960    2.5880   22.5920 C.ar  185  TYR185      0.0417
    114  CE2       76.1070    3.2210   24.2650 C.ar  185  TYR185      0.0417
    115  CZ        76.4880    3.1600   22.9460 C.ar  185  TYR185      0.1957
    116  OH        75.6440    3.6700   21.9880 O.3   185  TYR185     -0.2866
    117  N         79.6070   -1.0640   28.2380 N.am  186  TYR186     -0.1976
    118  CA        80.6580   -1.6230   29.0960 C.3   186  TYR186      0.1639
    119  C         80.2460   -3.0200   29.5800 C.2   186  TYR186      0.2290
    120  O         79.8420   -3.1910   30.7360 O.2   186  TYR186     -0.2864
    121  CB        80.9700   -0.6860   30.2780 C.3   186  TYR186      0.0560
    122  CG        81.7990    0.5140   29.8760 C.ar  186  TYR186     -0.0198
    123  CD1       81.2020    1.6710   29.3560 C.ar  186  TYR186     -0.0009
    124  CD2       83.1830    0.4700   29.9380 C.ar  186  TYR186     -0.0009
    125  CE1       81.9880    2.7620   28.9060 C.ar  186  TYR186      0.0417
    126  CE2       83.9670    1.5450   29.4920 C.ar  186  TYR186      0.0417
    127  CZ        83.3600    2.6910   28.9860 C.ar  186  TYR186      0.1957
    128  OH        84.1510    3.7680   28.6330 O.3   186  TYR186     -0.2866
@<TRIPOS>BOND
     1    21    22    2
     2    21    20    1
     3    19    20    1
     4    20    23    1
     5    78    79    1
     6    23    24    1
     7    14    15    2
     8    14    13    1
     9    70    71    1
    10    72    71    1
    11    72    73    2
    12    71    74    1
    13    79    82    1
    14    79    80    1
    15    12    13    1
    16    13    16    1
    17    24    25   ar
    18    24    26   ar
    19    82    83    1
    20    25    27   ar
    21    80    81    2
    22    74    75    1
    23    26    29   ar
    24    26    28   ar
    25    85    83   ar
    26    85    87   ar
    27    16    18    1
    28    16    17    1
    29    29    31   ar
    30    83    84   ar
    31    76    75    1
    32    27    28   ar
    33    75    77    1
    34    28    30   ar
    35    87    88   ar
    36    31    32   ar
    37    84    86   ar
    38    59    58    2
    39    58    57    1
    40    30    32   ar
    41   116   115    1
    42    88    86   ar
    43    88    89    1
    44   113   115   ar
    45   113   111   ar
    46   115   114   ar
    47    60    57    1
    48    60    61    1
    49    57    56    1
    50   111   110   ar
    51    54    53    2
    52    55    52    1
    53    61    62   ar
    54    61    63   ar
    55   114   112   ar
    56    62    64   ar
    57    53    52    1
    58   110   112   ar
    59   110   109    1
    60    52    51    1
    61    63    66   ar
    62    63    65   ar
    63    66    68   ar
    64    44    45    1
    65    44    41    1
    66    64    65   ar
    67    39    37    1
    68    37    34    1
    69    37    38    1
    70    65    67   ar
    71   109   106    1
    72    34    35    1
    73    34    33    1
    74   106   105    1
    75   106   107    1
    76    51    48   am
    77    35    36    2
    78    35    40   am
    79    68    69   ar
    80     8    10   ar
    81     8     6   ar
    82    40    41    1
    83    10    11   ar
    84   108   107    2
    85    43    42    2
    86    41    42    1
    87   107   117   am
    88    67    69   ar
    89     5     6    1
    90     5     2    1
    91     6     7   ar
    92    42    46   am
    93    11     9   ar
    94    48    49    2
    95    48    47    1
    96     1     2    1
    97     7     9   ar
    98     2     3    1
    99    46    47    1
   100   117   118    1
   101    47    50    1
   102   128   127    1
   103   125   127   ar
   104   125   123   ar
   105   127   126   ar
   106   104   102   am
   107   118   119    1
   108   118   121    1
   109   123   122   ar
   110     3     4    2
   111    93    92    2
   112   126   124   ar
   113   119   120    2
   114   122   124   ar
   115   122   121    1
   116    96    90    1
   117    96    95    1
   118   102   101    1
   119   102   103    2
   120    90    91    1
   121    92    91    1
   122    92    97   am
   123   101    98    1
   124    95    94    1
   125    98    97    1
   126    98    99    1
   127    94    91    1
   128    99   100    2
