@<TRIPOS>MOLECULE
tmp/4iy0A00.pdb
 130 125 0 0 0
SMALL
GASTEIGER

@<TRIPOS>ATOM
      1  N          7.2480   27.0320  -32.1350 N.3    23  THR23      -0.1218
      2  CA         8.0420   26.2420  -33.0940 C.3    23  THR23       0.1862
      3  C          7.3430   24.8880  -33.1740 C.2    23  THR23       0.2287
      4  O          7.4040   24.0680  -32.3070 O.2    23  THR23      -0.2866
      5  CB         9.5160   26.0930  -32.6680 C.3    23  THR23       0.1770
      6  OG1       10.0210   27.4320  -32.5350 O.3    23  THR23      -0.2211
      7  CG2       10.3870   25.3480  -33.7980 C.3    23  THR23       0.0375
      8  N          9.8060   21.4530  -36.8640 N.3    27  ASP27      -0.1225
      9  CA        10.8910   22.4410  -36.9430 C.3    27  ASP27       0.1805
     10  C         11.8270   22.3960  -35.6530 C.2    27  ASP27       0.2598
     11  O         12.6880   23.2350  -35.5590 O.2    27  ASP27      -0.2718
     12  CB        10.3720   23.9010  -37.1130 C.3    27  ASP27       0.1424
     13  CG         9.8610   24.2050  -38.5630 C.2    27  ASP27       0.3668
     14  OD1       10.0150   23.2900  -39.4210 O.co2  27  ASP27      -0.2456
     15  OD2        9.3230   25.3330  -38.7370 O.co2  27  ASP27      -0.2456
     16  N         11.6010   21.4630  -34.7290 N.am   28  CYS28      -0.1956
     17  CA        12.3740   21.3740  -33.5210 C.3    28  CYS28       0.1843
     18  C         13.5950   20.5240  -33.6810 C.2    28  CYS28       0.2625
     19  O         13.5620   19.4600  -34.2770 O.2    28  CYS28      -0.2714
     20  CB        11.5560   20.7180  -32.3470 C.3    28  CYS28       0.0997
     21  SG        10.2460   21.8910  -31.8280 S.3    28  CYS28      -0.0797
     22  N         14.7080   21.0140  -33.1710 N.am   29  PHE29      -0.1974
     23  CA        15.8930   20.1670  -33.0190 C.3    29  PHE29       0.1639
     24  C         15.7730   19.3730  -31.7170 C.2    29  PHE29       0.2290
     25  O         15.6420   19.9890  -30.5980 O.2    29  PHE29      -0.2864
     26  CB        17.1310   21.0840  -32.9980 C.3    29  PHE29       0.0560
     27  CG        18.4590   20.3090  -32.8180 C.ar   29  PHE29      -0.0200
     28  CD1       19.1790   19.9070  -33.9380 C.ar   29  PHE29      -0.0042
     29  CD2       18.9710   20.0260  -31.5360 C.ar   29  PHE29      -0.0042
     30  CE1       20.4270   19.1210  -33.7480 C.ar   29  PHE29      -0.0003
     31  CE2       20.1360   19.3080  -31.3710 C.ar   29  PHE29      -0.0003
     32  CZ        20.8320   18.8190  -32.4750 C.ar   29  PHE29      -0.0000
     33  N         23.2030   25.3030  -31.7000 N.3    49  GLY49      -0.1210
     34  CA        23.0050   26.6950  -31.2210 C.3    49  GLY49       0.1956
     35  C         21.8550   26.8520  -30.2340 C.2    49  GLY49       0.2612
     36  O         21.6280   27.9520  -29.7500 O.2    49  GLY49      -0.2717
     37  N         21.0810   25.7920  -29.9280 N.am   50  TYR50      -0.1962
     38  CA        19.9640   25.9430  -28.9920 C.3    50  TYR50       0.1771
     39  C         20.3960   25.7090  -27.5840 C.2    50  TYR50       0.2620
     40  O         21.2320   24.8300  -27.2490 O.2    50  TYR50      -0.2715
     41  CB        18.8240   24.8920  -29.3230 C.3    50  TYR50       0.0574
     42  CG        18.2370   25.2450  -30.6770 C.ar   50  TYR50      -0.0198
     43  CD1       17.4280   26.3540  -30.8220 C.ar   50  TYR50      -0.0009
     44  CD2       18.4240   24.3680  -31.7840 C.ar   50  TYR50      -0.0009
     45  CE1       16.9150   26.7000  -32.0740 C.ar   50  TYR50       0.0417
     46  CE2       17.8800   24.6740  -33.0360 C.ar   50  TYR50       0.0417
     47  CZ        17.1260   25.7610  -33.1530 C.ar   50  TYR50       0.1957
     48  OH        16.6200   26.0970  -34.3920 O.3    50  TYR50      -0.2866
     49  N         19.8020   26.4780  -26.6830 N.am   51  THR51      -0.1937
     50  CA        20.1660   26.3570  -25.2490 C.3    51  THR51       0.2028
     51  C         19.5510   25.1020  -24.7160 C.2    51  THR51       0.2642
     52  O         20.0850   24.4640  -23.8030 O.2    51  THR51      -0.2714
     53  CB        19.5810   27.6180  -24.5060 C.3    51  THR51       0.1808
     54  OG1       20.3050   28.7530  -24.9960 O.3    51  THR51      -0.2208
     55  CG2       19.8670   27.5660  -22.9470 C.3    51  THR51       0.0379
     56  N         18.3640   24.7070  -25.1930 N.am   52  ARG52      -0.1963
     57  CA        17.6650   23.5720  -24.5820 C.3    52  ARG52       0.1729
     58  C         17.1140   22.6650  -25.7640 C.2    52  ARG52       0.2616
     59  O         16.6570   23.1930  -26.7910 O.2    52  ARG52      -0.2715
     60  CB        16.2960   24.0180  -23.8820 C.3    52  ARG52       0.0348
     61  CG        16.5510   25.1090  -22.7680 C.3    52  ARG52       0.0492
     62  CD        15.4640   26.1230  -22.5030 C.3    52  ARG52       0.2205
     63  NE        15.5010   26.8410  -23.6520 N.pl3  52  ARG52      -0.0865
     64  CZ        14.8380   27.9390  -23.9300 C.cat  52  ARG52       0.5346
     65  NH1       14.1100   28.6750  -23.0350 N.pl3  52  ARG52       0.1354
     66  NH2       15.0670   28.3370  -25.1210 N.pl3  52  ARG52       0.1354
     67  N         17.1500   21.3880  -25.5490 N.am   53  ILE53      -0.1964
     68  CA        16.8490   20.4300  -26.6370 C.3    53  ILE53       0.1712
     69  C         15.8510   19.4050  -26.0640 C.2    53  ILE53       0.2458
     70  O         16.1730   18.7170  -25.0980 O.2    53  ILE53      -0.2730
     71  CB        18.1570   19.7410  -27.0590 C.3    53  ILE53       0.0289
     72  CG1       19.0850   20.7960  -27.7900 C.3    53  ILE53       0.0022
     73  CG2       17.8570   18.6530  -28.0990 C.3    53  ILE53       0.0023
     74  CD1       20.1860   21.0440  -26.8760 C.3    53  ILE53       0.0001
     75  N         14.6060   19.3850  -26.5760 N.am   54  PRO54      -0.2727
     76  CA        13.6690   18.3370  -26.0690 C.3    54  PRO54       0.1402
     77  C         14.2050   16.9210  -26.3380 C.2    54  PRO54       0.2269
     78  O         14.6890   16.6850  -27.4570 O.2    54  PRO54      -0.2865
     79  CB        12.4070   18.5940  -26.9570 C.3    54  PRO54       0.0296
     80  CG        12.5450   20.0830  -27.4410 C.3    54  PRO54       0.0237
     81  CD        14.0220   20.2240  -27.6390 C.3    54  PRO54       0.0939
     82  N         10.5350   27.6850  -21.2800 N.3   117  LEU117     -0.1245
     83  CA        10.1400   26.7980  -22.4170 C.3   117  LEU117      0.1561
     84  C          8.9450   25.9640  -21.9730 C.2   117  LEU117      0.2260
     85  O          8.9970   25.3490  -20.9260 O.2   117  LEU117     -0.2867
     86  CB        11.3070   25.8700  -22.8000 C.3   117  LEU117      0.0270
     87  CG        11.0360   24.9920  -24.0820 C.3   117  LEU117      0.0019
     88  CD1       12.3280   24.6590  -24.8180 C.3   117  LEU117      0.0001
     89  CD2       10.2970   23.6490  -23.7220 C.3   117  LEU117      0.0001
     90  N          6.9400   23.5720  -29.4330 N.3   138  ILE138     -0.1245
     91  CA         7.4230   24.1680  -28.1570 C.3   138  ILE138      0.1561
     92  C          7.2210   25.6260  -28.2790 C.2   138  ILE138      0.2260
     93  O          7.1690   26.1820  -29.3560 O.2   138  ILE138     -0.2867
     94  CB         8.9480   23.8540  -27.9120 C.3   138  ILE138      0.0252
     95  CG1        9.7630   24.5280  -29.0570 C.3   138  ILE138      0.0019
     96  CG2        9.2200   22.3690  -27.8040 C.3   138  ILE138      0.0019
     97  CD1       11.3270   24.3290  -28.9500 C.3   138  ILE138      0.0001
     98  N          8.7420   29.3070  -26.3830 N.3   140  THR140     -0.1218
     99  CA         9.6390   29.8390  -25.3190 C.3   140  THR140      0.1862
    100  C          9.3300   31.3100  -25.0980 C.2   140  THR140      0.2287
    101  O          8.5220   31.9300  -25.8450 O.2   140  THR140     -0.2866
    102  CB        11.1460   29.6710  -25.7240 C.3   140  THR140      0.1770
    103  OG1       11.3980   30.6450  -26.7530 O.3   140  THR140     -0.2211
    104  CG2       11.4590   28.2250  -26.2140 C.3   140  THR140      0.0375
    105  N         11.1890   33.7630  -25.7670 N.3   142  GLU142     -0.1231
    106  CA        11.5940   34.4980  -26.9560 C.3   142  GLU142      0.1699
    107  C         10.5040   34.5380  -28.0160 C.2   142  GLU142      0.2592
    108  O         10.4420   35.5070  -28.7310 O.2   142  GLU142     -0.2718
    109  CB        12.9070   33.9110  -27.6110 C.3   142  GLU142      0.0402
    110  CG        13.4890   34.8920  -28.7410 C.3   142  GLU142      0.1161
    111  CD        12.8550   34.7720  -30.2110 C.2   142  GLU142      0.3649
    112  OE1       12.1790   33.7620  -30.6360 O.co2 142  GLU142     -0.2457
    113  OE2       13.0110   35.7610  -31.0060 O.co2 142  GLU142     -0.2457
    114  N          9.7560   33.4470  -28.2220 N.am  143  ASP143     -0.1974
    115  CA         8.6330   33.4660  -29.1890 C.3   143  ASP143      0.1709
    116  C          7.6550   34.5860  -28.8100 C.2   143  ASP143      0.2293
    117  O          7.1110   35.2940  -29.7000 O.2   143  ASP143     -0.2864
    118  CB         7.9010   32.1380  -29.2060 C.3   143  ASP143      0.1436
    119  CG         8.7600   31.0200  -29.8410 C.2   143  ASP143      0.3671
    120  OD1        9.0150   30.0070  -29.1950 O.co2 143  ASP143     -0.2456
    121  OD2        9.2220   31.2550  -30.9700 O.co2 143  ASP143     -0.2456
    122  N          9.3770   38.1220  -29.4050 N.3   146  GLU146     -0.1245
    123  CA         9.3940   38.4370  -30.8010 C.3   146  GLU146      0.1567
    124  C          8.0290   38.9670  -31.2350 C.2   146  GLU146      0.2260
    125  O          7.9520   39.9620  -31.9830 O.2   146  GLU146     -0.2867
    126  CB         9.8150   37.1960  -31.6310 C.3   146  GLU146      0.0388
    127  CG         9.8300   37.4070  -33.1460 C.3   146  GLU146      0.1160
    128  CD        10.3890   36.1440  -33.8530 C.2   146  GLU146      0.3649
    129  OE1       11.5800   35.7270  -33.4860 O.co2 146  GLU146     -0.2457
    130  OE2        9.5990   35.5470  -34.6860 O.co2 146  GLU146     -0.2457
@<TRIPOS>BOND
     1    14    13   ar
     2    15    13   ar
     3    13    12    1
     4    12     9    1
     5     9     8    1
     6     9    10    1
     7    10    11    2
     8    10    16   am
     9    16    17    1
    10   130   128   ar
    11    48    47    1
    12    19    18    2
    13    28    30   ar
    14    28    27   ar
    15   128   129   ar
    16   128   127    1
    17     7     5    1
    18    30    32   ar
    19    18    17    1
    20    18    22   am
    21    17    20    1
    22     3     2    1
    23     3     4    2
    24    22    23    1
    25    47    46   ar
    26    47    45   ar
    27   127   126    1
    28     2     5    1
    29     2     1    1
    30    46    44   ar
    31    23    26    1
    32    23    24    1
    33    26    27    1
    34    27    29   ar
    35     5     6    1
    36    32    31   ar
    37    20    21    1
    38    45    43   ar
    39   125   124    2
    40    44    42   ar
    41    24    25    2
    42    33    34    1
    43   126   123    1
    44    29    31   ar
    45   124   123    1
    46    34    35    1
    47   113   111   ar
    48   121   119   ar
    49    43    42   ar
    50   123   122    1
    51    42    41    1
    52   112   111   ar
    53    35    37   am
    54    35    36    2
    55   111   110    1
    56    37    38    1
    57   119   118    1
    58   119   120   ar
    59   117   116    2
    60    90    91    1
    61    93    92    2
    62    41    38    1
    63   118   115    1
    64   115   116    1
    65   115   114    1
    66    95    97    1
    67    95    94    1
    68    38    39    1
    69   110   109    1
    70   108   107    2
    71    92    91    1
    72   114   107   am
    73    91    94    1
    74    73    71    1
    75   107   106    1
    76    94    96    1
    77    72    71    1
    78    72    74    1
    79    81    80    1
    80    81    75    1
    81   109   106    1
    82    39    40    2
    83    39    49   am
    84    78    77    2
    85    80    79    1
    86    71    68    1
    87    79    76    1
    88   106   105    1
    89    59    58    2
    90   103   102    1
    91    49    50    1
    92    68    69    1
    93    68    67    1
    94    75    76    1
    95    75    69   am
    96    98    99    1
    97    77    76    1
    98   104   102    1
    99    69    70    2
   100   101   100    2
   101    58    67   am
   102    58    57    1
   103   102    99    1
   104    99   100    1
   105    50    51    1
   106    50    53    1
   107    56    51   am
   108    56    57    1
   109    66    64    1
   110    54    53    1
   111    88    87    1
   112    51    52    2
   113    57    60    1
   114    53    55    1
   115    87    89    1
   116    87    86    1
   117    64    63    2
   118    64    65    1
   119    60    61    1
   120    63    62    1
   121    86    83    1
   122    61    62    1
   123    83    84    1
   124    83    82    1
   125    84    85    2
