@<TRIPOS>MOLECULE
tmp/4iy5B00.pdb
 73 71 0 0 0
SMALL
GASTEIGER

@<TRIPOS>ATOM
      1  N         28.9400   19.8450    9.2370 N.3   105  PRO105     -0.2102
      2  CA        29.3340   20.7930    8.1850 C.3   105  PRO105      0.1504
      3  C         28.1750   21.5950    7.5910 C.2   105  PRO105      0.2576
      4  O         27.0850   21.0490    7.4280 O.2   105  PRO105     -0.2718
      5  CB        29.9220   19.8920    7.0890 C.3   105  PRO105      0.0282
      6  CG        30.0470   18.5070    7.6920 C.3   105  PRO105      0.0208
      7  CD        29.0630   18.4410    8.8030 C.3   105  PRO105      0.0893
      8  N         28.4200   22.8640    7.2550 N.am  106  PHE106     -0.1963
      9  CA        27.4390   23.6750    6.5350 C.3   106  PHE106      0.1771
     10  C         27.7170   23.7760    5.0320 C.2   106  PHE106      0.2619
     11  O         26.8830   24.2910    4.2780 O.2   106  PHE106     -0.2715
     12  CB        27.3280   25.0860    7.1320 C.3   106  PHE106      0.0574
     13  CG        28.6030   25.8810    7.0750 C.ar  106  PHE106     -0.0200
     14  CD1       28.9330   26.6150    5.9430 C.ar  106  PHE106     -0.0042
     15  CD2       29.4520   25.9220    8.1700 C.ar  106  PHE106     -0.0042
     16  CE1       30.0990   27.3580    5.8930 C.ar  106  PHE106     -0.0003
     17  CE2       30.6190   26.6690    8.1370 C.ar  106  PHE106     -0.0003
     18  CZ        30.9480   27.3870    6.9950 C.ar  106  PHE106     -0.0000
     19  N         28.8840   23.2960    4.6010 N.am  107  MET107     -0.1963
     20  CA        29.2620   23.3520    3.1860 C.3   107  MET107      0.1736
     21  C         30.2910   22.2790    2.8730 C.2   107  MET107      0.2617
     22  O         31.1950   22.0170    3.6800 O.2   107  MET107     -0.2715
     23  CB        29.8210   24.7330    2.8150 C.3   107  MET107      0.0427
     24  CG        30.0270   24.9110    1.3110 C.3   107  MET107      0.0599
     25  SD        30.5380   26.5800    0.8530 S.3   107  MET107     -0.1393
     26  CE        29.1100   27.5030    1.3400 C.3   107  MET107      0.0692
     27  N         30.1540   21.6490    1.7110 N.am  108  SER108     -0.1950
     28  CA        31.1120   20.6180    1.3070 C.3   108  SER108      0.1924
     29  C         32.1210   21.2170    0.3400 C.2   108  SER108      0.2314
     30  O         31.8330   22.2120   -0.3260 O.2   108  SER108     -0.2863
     31  CB        30.4010   19.4310    0.6510 C.3   108  SER108      0.2116
     32  OG        29.7850   19.8270   -0.5620 O.3   108  SER108     -0.2180
     33  N         37.5250   15.0920   -0.2430 N.3   217  SER217     -0.1202
     34  CA        36.1560   15.4920    0.0150 C.3   217  SER217      0.2020
     35  C         36.0010   15.8070    1.4930 C.2   217  SER217      0.2619
     36  O         36.1850   14.9320    2.3380 O.2   217  SER217     -0.2717
     37  CB        35.1960   14.3730   -0.3890 C.3   217  SER217      0.2103
     38  OG        33.8520   14.7680   -0.1770 O.3   217  SER217     -0.2182
     39  N         35.6710   17.0550    1.8220 N.am  218  LYS218     -0.1965
     40  CA        35.4970   17.3950    3.2350 C.3   218  LYS218      0.1728
     41  C         34.4700   18.4940    3.4520 C.2   218  LYS218      0.2616
     42  O         33.6620   18.7820    2.5660 O.2   218  LYS218     -0.2715
     43  CB        36.8330   17.7630    3.8620 C.3   218  LYS218      0.0311
     44  CG        37.6110   18.7520    3.0470 C.3   218  LYS218      0.0038
     45  CD        39.0950   18.5630    3.2830 C.3   218  LYS218      0.0206
     46  CE        39.9000   19.5610    2.4700 C.3   218  LYS218      0.1093
     47  NZ        41.3580   19.2670    2.5990 N.3   218  LYS218     -0.1314
     48  N         34.4940   19.1060    4.6320 N.am  219  GLY219     -0.1955
     49  CA        33.4320   20.0290    5.0070 C.3   219  GLY219      0.1869
     50  C         33.9300   21.1860    5.8440 C.2   219  GLY219      0.2309
     51  O         34.9510   21.0570    6.5340 O.2   219  GLY219     -0.2863
     52  N         20.1520   23.9510    7.1410 N.3   242  SER242     -0.1217
     53  CA        20.3720   23.0000    6.0580 C.3   242  SER242      0.1889
     54  C         19.0310   22.4480    5.5510 C.2   242  SER242      0.2288
     55  O         18.7300   22.4930    4.3440 O.2   242  SER242     -0.2866
     56  CB        21.2690   21.8460    6.5340 C.3   242  SER242      0.2089
     57  OG        21.3250   20.8300    5.5390 O.3   242  SER242     -0.2183
     58  N         20.8830   27.1900    3.4910 N.3   247  LEU247     -0.1231
     59  CA        22.2900   27.1340    3.1010 C.3   247  LEU247      0.1693
     60  C         22.4220   27.0910    1.5740 C.2   247  LEU247      0.2592
     61  O         23.3340   27.6990    1.0010 O.2   247  LEU247     -0.2718
     62  CB        22.9780   25.9240    3.7330 C.3   247  LEU247      0.0284
     63  CG        22.9500   25.8560    5.2600 C.3   247  LEU247      0.0019
     64  CD1       23.7090   24.6270    5.7480 C.3   247  LEU247      0.0001
     65  CD2       23.5350   27.1050    5.8630 C.3   247  LEU247      0.0001
     66  N         21.5080   26.3810    0.9130 N.am  248  ASP248     -0.1974
     67  CA        21.4950   26.3440   -0.5520 C.3   248  ASP248      0.1709
     68  C         21.2070   27.7340   -1.1010 C.2   248  ASP248      0.2293
     69  O         21.8230   28.1580   -2.0850 O.2   248  ASP248     -0.2864
     70  CB        20.4440   25.3570   -1.0750 C.3   248  ASP248      0.1436
     71  CG        20.7720   23.9120   -0.7200 C.2   248  ASP248      0.3671
     72  OD1       21.9710   23.5620   -0.7280 O.co2 248  ASP248     -0.2456
     73  OD2       19.8350   23.1250   -0.4410 O.co2 248  ASP248     -0.2456
@<TRIPOS>BOND
     1    69    68    2
     2    68    67    1
     3    70    71    1
     4    70    67    1
     5    72    71   ar
     6    71    73   ar
     7    32    31    1
     8    67    66    1
     9    37    38    1
    10    37    34    1
    11    30    29    2
    12    33    34    1
    13    34    35    1
    14    29    28    1
    15    31    28    1
    16    25    24    1
    17    25    26    1
    18    66    60   am
    19    61    60    2
    20    28    27    1
    21    24    23    1
    22    35    39   am
    23    35    36    2
    24    60    59    1
    25    27    21   am
    26    39    40    1
    27    46    47    1
    28    46    45    1
    29    42    41    2
    30    23    20    1
    31    21    20    1
    32    21    22    2
    33    44    45    1
    34    44    43    1
    35    59    58    1
    36    59    62    1
    37    20    19    1
    38    40    41    1
    39    40    43    1
    40    41    48   am
    41    62    63    1
    42    11    10    2
    43    55    54    2
    44    19    10   am
    45    48    49    1
    46    49    50    1
    47    10     9    1
    48    63    64    1
    49    63    65    1
    50    57    56    1
    51    54    53    1
    52    50    51    2
    53    16    14   ar
    54    16    18   ar
    55    14    13   ar
    56    53    56    1
    57    53    52    1
    58     9    12    1
    59     9     8    1
    60    18    17   ar
    61    13    12    1
    62    13    15   ar
    63     5     6    1
    64     5     2    1
    65     8     3   am
    66     4     3    2
    67     3     2    1
    68     6     7    1
    69    17    15   ar
    70     2     1    1
    71     7     1    1
