@<TRIPOS>MOLECULE
tmp/4iy6A02.pdb
 75 73 0 0 0
SMALL
GASTEIGER

@<TRIPOS>ATOM
      1  N         26.2640   19.2370  -10.4270 N.3   116  LYS116     -0.1231
      2  CA        25.1870   19.3270  -11.4110 C.3   116  LYS116      0.1693
      3  C         25.6740   18.5490  -12.6240 C.2   116  LYS116      0.2592
      4  O         26.8220   18.7110  -13.0220 O.2   116  LYS116     -0.2718
      5  CB        24.9650   20.7960  -11.7640 C.3   116  LYS116      0.0285
      6  CG        23.8710   21.0870  -12.7680 C.3   116  LYS116      0.0035
      7  CD        22.5060   21.0750  -12.1400 C.3   116  LYS116      0.0206
      8  CE        21.4750   21.6580  -13.0930 C.3   116  LYS116      0.1093
      9  NZ        20.1350   21.6940  -12.4480 N.3   116  LYS116     -0.1314
     10  N         24.8290   17.7060  -13.2060 N.am  117  LYS117     -0.1966
     11  CA        25.2550   16.8890  -14.3400 C.3   117  LYS117      0.1728
     12  C         25.9390   17.7210  -15.4220 C.2   117  LYS117      0.2617
     13  O         25.4470   18.7890  -15.7840 O.2   117  LYS117     -0.2715
     14  CB        24.0730   16.1340  -14.9430 C.3   117  LYS117      0.0311
     15  CG        23.7260   14.9060  -14.1690 C.3   117  LYS117      0.0038
     16  CD        22.5000   14.2260  -14.7010 C.3   117  LYS117      0.0206
     17  CE        22.2570   12.9400  -13.9310 C.3   117  LYS117      0.1093
     18  NZ        21.0800   12.2040  -14.4640 N.3   117  LYS117     -0.1314
     19  N         27.0910   17.2350  -15.8850 N.am  118  GLY118     -0.1940
     20  CA        27.8520   17.8750  -16.9290 C.3   118  GLY118      0.2014
     21  C         28.9840   18.7470  -16.4360 C.2   118  GLY118      0.2640
     22  O         29.8100   19.2110  -17.2050 O.2   118  GLY118     -0.2714
     23  N         29.0110   19.0210  -15.1410 N.am  119  THR119     -0.1937
     24  CA        30.0980   19.8040  -14.5910 C.3   119  THR119      0.2013
     25  C         31.4210   19.0560  -14.7890 C.2   119  THR119      0.2484
     26  O         31.5200   17.8550  -14.4790 O.2   119  THR119     -0.2729
     27  CB        29.8790   20.0930  -13.0720 C.3   119  THR119      0.1807
     28  OG1       28.6320   20.7700  -12.8480 O.3   119  THR119     -0.2208
     29  CG2       31.0030   20.9400  -12.4890 C.3   119  THR119      0.0379
     30  N         32.4490   19.7520  -15.3020 N.am  120  PRO120     -0.2726
     31  CA        33.7240   19.1010  -15.6260 C.3   120  PRO120      0.1402
     32  C         34.6260   18.9560  -14.4060 C.2   120  PRO120      0.2269
     33  O         35.6670   19.5920  -14.3000 O.2   120  PRO120     -0.2865
     34  CB        34.3380   20.0510  -16.6610 C.3   120  PRO120      0.0296
     35  CG        33.8590   21.3970  -16.2520 C.3   120  PRO120      0.0237
     36  CD        32.4320   21.1600  -15.7390 C.3   120  PRO120      0.0939
     37  N         36.7660   28.1250  -11.3070 N.3   132  GLU132     -0.1231
     38  CA        35.5180   28.4060  -11.9830 C.3   132  GLU132      0.1699
     39  C         34.2960   27.9740  -11.1720 C.2   132  GLU132      0.2592
     40  O         33.2000   28.4970  -11.3500 O.2   132  GLU132     -0.2718
     41  CB        35.4780   27.6390  -13.3060 C.3   132  GLU132      0.0402
     42  CG        36.6720   27.8830  -14.2010 C.3   132  GLU132      0.1161
     43  CD        36.6230   29.2520  -14.8230 C.2   132  GLU132      0.3649
     44  OE1       35.5000   29.6950  -15.1470 O.co2 132  GLU132     -0.2457
     45  OE2       37.6970   29.8840  -14.9710 O.co2 132  GLU132     -0.2457
     46  N         34.5060   26.9800  -10.3010 N.am  133  ILE133     -0.1980
     47  CA        33.4260   26.2710   -9.6250 C.3   133  ILE133      0.1595
     48  C         33.6960   26.3280   -8.1240 C.2   133  ILE133      0.2287
     49  O         34.7290   25.8680   -7.6600 O.2   133  ILE133     -0.2864
     50  CB        33.3950   24.7820  -10.0420 C.3   133  ILE133      0.0276
     51  CG1       33.1810   24.6680  -11.5540 C.3   133  ILE133      0.0022
     52  CG2       32.2910   24.0300   -9.2820 C.3   133  ILE133      0.0022
     53  CD1       33.6260   23.3720  -12.1500 C.3   133  ILE133      0.0001
     54  N         24.0300   26.3470  -12.0790 N.3   185  LYS185     -0.1231
     55  CA        24.4570   26.1780  -13.4770 C.3   185  LYS185      0.1693
     56  C         25.8720   25.6160  -13.6040 C.2   185  LYS185      0.2593
     57  O         26.6210   25.9830  -14.5050 O.2   185  LYS185     -0.2718
     58  CB        24.3380   27.5140  -14.2320 C.3   185  LYS185      0.0285
     59  CG        22.9040   28.0450  -14.2560 C.3   185  LYS185      0.0035
     60  CD        22.8180   29.4400  -14.8830 C.3   185  LYS185      0.0206
     61  CE        21.3950   29.9870  -14.8510 C.3   185  LYS185      0.1093
     62  NZ        21.2370   31.1740  -15.7430 N.3   185  LYS185     -0.1314
     63  N         26.2350   24.7320  -12.6820 N.am  186  GLY186     -0.1942
     64  CA        27.5420   24.1040  -12.6950 C.3   186  GLY186      0.2014
     65  C         28.6050   24.8050  -11.8600 C.2   186  GLY186      0.2638
     66  O         29.7010   24.2800  -11.7220 O.2   186  GLY186     -0.2714
     67  N         28.2760   25.9670  -11.2810 N.am  187  LYS187     -0.1977
     68  CA        29.2770   26.7860  -10.6190 C.3   187  LYS187      0.1596
     69  C         29.3990   26.5300   -9.1090 C.2   187  LYS187      0.2287
     70  O         30.1360   27.2480   -8.4300 O.2   187  LYS187     -0.2864
     71  CB        28.9810   28.2640  -10.8470 C.3   187  LYS187      0.0298
     72  CG        28.9020   28.6390  -12.3350 C.3   187  LYS187      0.0038
     73  CD        30.2580   28.7710  -12.9830 C.3   187  LYS187      0.0206
     74  CE        30.1170   29.3470  -14.4060 C.3   187  LYS187      0.1093
     75  NZ        31.4110   29.5650  -15.1210 N.3   187  LYS187     -0.1314
@<TRIPOS>BOND
     1    22    21    2
     2    20    21    1
     3    20    19    1
     4    34    35    1
     5    34    31    1
     6    21    23   am
     7    35    36    1
     8    19    12   am
     9    13    12    2
    10    62    61    1
    11    36    30    1
    12    31    30    1
    13    31    32    1
    14    12    11    1
    15    30    25   am
    16    44    43   ar
    17    23    24    1
    18    75    74    1
    19    45    43   ar
    20    14    11    1
    21    14    15    1
    22    60    61    1
    23    60    59    1
    24    43    42    1
    25    25    24    1
    26    25    26    2
    27    16    15    1
    28    16    17    1
    29    24    27    1
    30    57    56    2
    31    18    17    1
    32    74    73    1
    33    32    33    2
    34    11    10    1
    35    59    58    1
    36    58    55    1
    37    42    41    1
    38    56    55    1
    39    56    63   am
    40    55    54    1
    41    41    38    1
    42    10     3   am
    43     8     9    1
    44     8     7    1
    45    27    28    1
    46    27    29    1
    47     4     3    2
    48    73    72    1
    49     6     7    1
    50     6     5    1
    51    64    63    1
    52    64    65    1
    53     3     2    1
    54    72    71    1
    55    53    51    1
    56    38    37    1
    57    38    39    1
    58    65    66    2
    59    65    67   am
    60     5     2    1
    61    51    50    1
    62     2     1    1
    63    40    39    2
    64    67    68    1
    65    39    46   am
    66    71    68    1
    67    68    69    1
    68    46    47    1
    69    50    47    1
    70    50    52    1
    71    47    48    1
    72    69    70    2
    73    48    49    2
