@<TRIPOS>MOLECULE
tmp/4iy8A00.pdb
 115 112 0 0 0
SMALL
GASTEIGER

@<TRIPOS>ATOM
      1  N         21.1560    8.8450    1.7950 N.3    96  ARG96      -0.1245
      2  CA        21.6920    9.9920    1.0500 C.3    96  ARG96       0.1563
      3  C         22.3410    9.5680   -0.3060 C.2    96  ARG96       0.2260
      4  O         22.1700   10.2650   -1.3300 O.2    96  ARG96      -0.2867
      5  CB        22.6560   10.8080    1.9420 C.3    96  ARG96       0.0307
      6  CG        23.1570   12.1590    1.4150 C.3    96  ARG96       0.0489
      7  CD        24.4540   12.5700    2.1110 C.3    96  ARG96       0.2205
      8  NE        25.5710   11.6870    1.7560 N.pl3  96  ARG96      -0.0865
      9  CZ        26.6780   11.5310    2.4810 C.cat  96  ARG96       0.5346
     10  NH1       26.8210   12.1940    3.6220 N.pl3  96  ARG96       0.1354
     11  NH2       27.6360   10.7020    2.0690 N.pl3  96  ARG96       0.1354
     12  N         39.3420   11.7470   14.4200 N.3   160  ASN160     -0.1240
     13  CA        39.9670   12.6620   13.4840 C.3   160  ASN160      0.1653
     14  C         39.8830   14.0940   14.0600 C.2   160  ASN160      0.2266
     15  O         39.3850   14.2870   15.1880 O.2   160  ASN160     -0.2867
     16  CB        39.2010   12.6190   12.1740 C.3   160  ASN160      0.1155
     17  CG        37.7520   13.0390   12.3550 C.2   160  ASN160      0.2627
     18  OD1       37.3180   13.4550   13.4630 O.2   160  ASN160     -0.2716
     19  ND2       36.9810   12.9110   11.2850 N.am  160  ASN160     -0.0877
     20  N         37.8430   16.2740   13.7530 N.3   162  ASN162     -0.1240
     21  CA        36.4730   16.7190   14.0390 C.3   162  ASN162      0.1653
     22  C         35.7920   15.9780   15.1630 C.2   162  ASN162      0.2266
     23  O         34.6760   16.3130   15.5120 O.2   162  ASN162     -0.2867
     24  CB        35.5780   16.6420   12.7970 C.3   162  ASN162      0.1155
     25  CG        36.2390   17.2240   11.5610 C.2   162  ASN162      0.2627
     26  OD1       36.6400   16.4890   10.6940 O.2   162  ASN162     -0.2716
     27  ND2       36.3560   18.5480   11.4820 N.am  162  ASN162     -0.0877
     28  N         35.2850   12.6430   14.9990 N.3   164  ASP164     -0.1239
     29  CA        34.5350   11.5000   14.4200 C.3   164  ASP164      0.1674
     30  C         35.3910   10.2880   14.6440 C.2   164  ASP164      0.2266
     31  O         36.6100   10.4430   14.7270 O.2   164  ASP164     -0.2867
     32  CB        34.2830   11.6770   12.9280 C.3   164  ASP164      0.1410
     33  CG        33.6380   13.0350   12.5890 C.2   164  ASP164      0.3668
     34  OD1       32.5850   13.3990   13.2000 O.co2 164  ASP164     -0.2456
     35  OD2       34.1810   13.7220   11.6650 O.co2 164  ASP164     -0.2456
     36  N         27.3110    7.0810    9.9960 N.3   205  THR205     -0.1203
     37  CA        27.0420    7.8230    8.7720 C.3   205  THR205      0.1994
     38  C         28.1440    7.5440    7.8090 C.2   205  THR205      0.2618
     39  O         29.1700    6.9440    8.1870 O.2   205  THR205     -0.2717
     40  CB        27.0480    9.3660    9.0100 C.3   205  THR205      0.1784
     41  OG1       28.3590    9.8000    9.3520 O.3   205  THR205     -0.2211
     42  CG2       26.1210    9.7450   10.1260 C.3   205  THR205      0.0376
     43  N         27.9480    7.9630    6.5670 N.am  206  LEU206     -0.1965
     44  CA        28.9800    7.8730    5.5230 C.3   206  LEU206      0.1728
     45  C         29.5380    9.2360    5.2570 C.2   206  LEU206      0.2617
     46  O         28.8070   10.2170    5.0930 O.2   206  LEU206     -0.2715
     47  CB        28.4210    7.3180    4.2180 C.3   206  LEU206      0.0311
     48  CG        27.8220    5.9060    4.3020 C.3   206  LEU206      0.0022
     49  CD1       27.3980    5.4480    2.9000 C.3   206  LEU206      0.0001
     50  CD2       28.7890    4.9420    4.9770 C.3   206  LEU206      0.0001
     51  N         30.8460    9.2970    5.1810 N.am  207  SER207     -0.1936
     52  CA        31.5450   10.5370    4.8070 C.3   207  SER207      0.2055
     53  C         31.0610   11.1590    3.4980 C.2   207  SER207      0.2642
     54  O         30.6690   10.4420    2.5550 O.2   207  SER207     -0.2714
     55  CB        33.0260   10.2220    4.6510 C.3   207  SER207      0.2130
     56  OG        33.7210   11.3540    4.3060 O.3   207  SER207     -0.2179
     57  N         31.1420   12.4880    3.4370 N.am  208  ARG208     -0.1977
     58  CA        30.9270   13.2350    2.2020 C.3   208  ARG208      0.1597
     59  C         32.0920   13.0430    1.2240 C.2   208  ARG208      0.2287
     60  O         31.8930   13.1290    0.0180 O.2   208  ARG208     -0.2864
     61  CB        30.7030   14.7130    2.5060 C.3   208  ARG208      0.0334
     62  CG        29.4220   14.9460    3.2790 C.3   208  ARG208      0.0492
     63  CD        29.1760   16.4070    3.6120 C.3   208  ARG208      0.2205
     64  NE        29.4380   17.2260    2.4430 N.pl3 208  ARG208     -0.0865
     65  CZ        30.1020   18.3810    2.4380 C.cat 208  ARG208      0.5346
     66  NH1       30.5820   18.9110    3.5540 N.pl3 208  ARG208      0.1354
     67  NH2       30.2720   19.0040    1.2980 N.pl3 208  ARG208      0.1354
     68  N         31.7870    6.4060    9.4310 N.3   219  TRP219     -0.1241
     69  CA        32.2220    7.0200   10.6830 C.3   219  TRP219      0.1605
     70  C         31.1200    7.0950   11.6970 C.2   219  TRP219      0.2264
     71  O         29.9520    7.0520   11.3480 O.2   219  TRP219     -0.2867
     72  CB        32.6840    8.4720   10.4630 C.3   219  TRP219      0.0550
     73  CG        33.8050    8.6350    9.5300 C.ar  219  TRP219      0.0003
     74  CD1       33.7090    8.6340    8.1820 C.ar  219  TRP219      0.0946
     75  CD2       35.2130    8.8920    9.8430 C.ar  219  TRP219      0.0152
     76  NE1       34.9580    8.8350    7.6120 N.ar  219  TRP219     -0.2442
     77  CE2       35.9020    8.9920    8.6030 C.ar  219  TRP219      0.0810
     78  CE3       35.9630    8.9910   11.0380 C.ar  219  TRP219      0.0012
     79  CZ2       37.3090    9.2310    8.5150 C.ar  219  TRP219      0.0191
     80  CZ3       37.3740    9.2300   10.9460 C.ar  219  TRP219      0.0001
     81  CH2       38.0150    9.3700    9.6920 C.ar  219  TRP219      0.0015
     82  N         29.6670    9.9710   13.6200 N.3   221  TYR221     -0.1241
     83  CA        29.5880   11.3800   13.3220 C.3   221  TYR221      0.1605
     84  C         29.4930   12.2370   14.5870 C.2   221  TYR221      0.2264
     85  O         28.5290   12.1080   15.3270 O.2   221  TYR221     -0.2867
     86  CB        28.2800   11.5790   12.5560 C.3   221  TYR221      0.0534
     87  CG        28.0360   12.9690   12.0730 C.ar  221  TYR221     -0.0201
     88  CD1       28.9210   13.5880   11.1960 C.ar  221  TYR221     -0.0009
     89  CD2       26.9000   13.6430   12.4160 C.ar  221  TYR221     -0.0009
     90  CE1       28.6890   14.8750   10.7090 C.ar  221  TYR221      0.0417
     91  CE2       26.6520   14.9210   11.9380 C.ar  221  TYR221      0.0417
     92  CZ        27.5580   15.5470   11.0760 C.ar  221  TYR221      0.1957
     93  OH        27.3210   16.8490   10.5740 O.3   221  TYR221     -0.2866
     94  N         19.7670   12.6580    4.9930 N.3   231  HIS231     -0.1226
     95  CA        21.2170   12.7670    5.0830 C.3   231  HIS231      0.1752
     96  C         21.8060   11.7350    6.0180 C.2   231  HIS231      0.2596
     97  O         22.9640   11.3580    5.8510 O.2   231  HIS231     -0.2718
     98  CB        21.6450   14.1460    5.6210 C.3   231  HIS231      0.0759
     99  CG        21.5540   15.2520    4.6190 C.ar  231  HIS231      0.0818
    100  ND1       20.3580   15.8390    4.2630 N.ar  231  HIS231     -0.2268
    101  CD2       22.5120   15.8820    3.8880 C.ar  231  HIS231      0.1154
    102  CE1       20.5810   16.7880    3.3650 C.ar  231  HIS231      0.1986
    103  NE2       21.8820   16.8420    3.1290 N.ar  231  HIS231     -0.2212
    104  N         21.0870   11.3570    7.0860 N.am  232  TYR232     -0.1976
    105  CA        21.8110   10.6240    8.1240 C.3   232  TYR232      0.1639
    106  C         21.2910    9.2280    8.3990 C.2   232  TYR232      0.2290
    107  O         21.9100    8.5310    9.1870 O.2   232  TYR232     -0.2864
    108  CB        21.9470   11.4280    9.3810 C.3   232  TYR232      0.0560
    109  CG        22.6880   12.7220    9.1610 C.ar  232  TYR232     -0.0198
    110  CD1       24.0200   12.7190    8.7570 C.ar  232  TYR232     -0.0009
    111  CD2       22.0650   13.9510    9.3290 C.ar  232  TYR232     -0.0009
    112  CE1       24.7220   13.9010    8.5360 C.ar  232  TYR232      0.0417
    113  CE2       22.7670   15.1460    9.1240 C.ar  232  TYR232      0.0417
    114  CZ        24.1020   15.1160    8.7070 C.ar  232  TYR232      0.1957
    115  OH        24.8370   16.2960    8.4840 O.3   232  TYR232     -0.2866
@<TRIPOS>BOND
     1     4     3    2
     2     3     2    1
     3    60    59    2
     4     2     1    1
     5     2     5    1
     6    59    58    1
     7    67    65    1
     8     6     5    1
     9     6     7    1
    10     8     7    1
    11     8     9    2
    12    11     9    1
    13    58    61    1
    14    58    57    1
    15    65    64    2
    16    65    66    1
    17    64    63    1
    18     9    10    1
    19    61    62    1
    20    54    53    2
    21    49    48    1
    22   103   102   ar
    23   103   101   ar
    24    62    63    1
    25   102   100   ar
    26    57    53   am
    27    53    52    1
    28   101    99   ar
    29    47    48    1
    30    47    44    1
    31   100    99   ar
    32    48    50    1
    33    56    55    1
    34    99    98    1
    35    55    52    1
    36    52    51    1
    37    94    95    1
    38    95    98    1
    39    95    96    1
    40    46    45    2
    41    51    45   am
    42    45    44    1
    43    44    43    1
    44    97    96    2
    45    96   104   am
    46    43    38   am
    47   104   105    1
    48    76    74   ar
    49    76    77   ar
    50    38    39    2
    51    38    37    1
    52   105   106    1
    53   105   108    1
    54    74    73   ar
    55   106   107    2
    56   115   114    1
    57    79    77   ar
    58    79    81   ar
    59   112   114   ar
    60   112   110   ar
    61    77    75   ar
    62   114   113   ar
    63   110   109   ar
    64    37    40    1
    65    37    36    1
    66    40    41    1
    67    40    42    1
    68   113   111   ar
    69   109   111   ar
    70   109   108    1
    71    68    69    1
    72    73    75   ar
    73    73    72    1
    74    81    80   ar
    75    75    78   ar
    76    72    69    1
    77    93    92    1
    78    69    70    1
    79    26    25    2
    80    90    92   ar
    81    90    88   ar
    82    80    78   ar
    83    92    91   ar
    84    88    87   ar
    85    19    17   am
    86    71    70    2
    87    27    25   am
    88    25    24    1
    89    35    33   ar
    90    91    89   ar
    91    87    89   ar
    92    87    86    1
    93    16    17    1
    94    16    13    1
    95    17    18    2
    96    86    83    1
    97    33    32    1
    98    33    34   ar
    99    24    21    1
   100    32    29    1
   101    83    82    1
   102    83    84    1
   103    13    14    1
   104    13    12    1
   105    20    21    1
   106    21    22    1
   107    14    15    2
   108    29    30    1
   109    29    28    1
   110    84    85    2
   111    30    31    2
   112    22    23    2
