@<TRIPOS>MOLECULE
tmp/4iy8C00.pdb
 89 86 0 0 0
SMALL
GASTEIGER

@<TRIPOS>ATOM
      1  N        -17.7030   20.7550   33.4530 N.3   160  ASN160     -0.1240
      2  CA       -18.3240   19.5960   32.8290 C.3   160  ASN160      0.1653
      3  C        -18.2610   18.4760   33.8640 C.2   160  ASN160      0.2266
      4  O        -17.6870   18.6830   34.9540 O.2   160  ASN160     -0.2867
      5  CB       -17.6610   19.2200   31.4830 C.3   160  ASN160      0.1155
      6  CG       -16.2710   18.6040   31.6370 C.2   160  ASN160      0.2627
      7  OD1      -15.7350   18.4770   32.7470 O.2   160  ASN160     -0.2716
      8  ND2      -15.6710   18.2180   30.5010 N.am  160  ASN160     -0.0877
      9  N        -16.5140   15.7960   34.2680 N.3   162  ASN162     -0.1240
     10  CA       -15.1410   15.4930   34.7120 C.3   162  ASN162      0.1653
     11  C        -14.3930   16.6200   35.4460 C.2   162  ASN162      0.2266
     12  O        -13.1740   16.5150   35.6520 O.2   162  ASN162     -0.2867
     13  CB       -14.2860   15.0310   33.5290 C.3   162  ASN162      0.1155
     14  CG       -14.6490   13.6400   33.0500 C.2   162  ASN162      0.2627
     15  OD1      -14.2940   12.6350   33.6730 O.2   162  ASN162     -0.2716
     16  ND2      -15.3470   13.5730   31.9220 N.am  162  ASN162     -0.0877
     17  N        -13.8380   19.7100   34.3950 N.3   164  ASP164     -0.1239
     18  CA       -13.0370   20.5400   33.5090 C.3   164  ASP164      0.1674
     19  C        -13.7920   21.8500   33.3210 C.2   164  ASP164      0.2266
     20  O        -15.0130   21.8440   33.1370 O.2   164  ASP164     -0.2867
     21  CB       -12.7540   19.8200   32.1810 C.3   164  ASP164      0.1410
     22  CG       -12.0510   18.4740   32.3760 C.2   164  ASP164      0.3668
     23  OD1      -11.2480   18.3280   33.3260 O.co2 164  ASP164     -0.2456
     24  OD2      -12.3020   17.5550   31.5790 O.co2 164  ASP164     -0.2456
     25  N         -5.4880   24.0100   27.8930 N.3   205  THR205     -0.1203
     26  CA        -5.3410   22.8880   26.9690 C.3   205  THR205      0.1994
     27  C         -6.4100   23.0010   25.8670 C.2   205  THR205      0.2618
     28  O         -7.3550   23.7960   26.0080 O.2   205  THR205     -0.2717
     29  CB        -5.5230   21.5150   27.6930 C.3   205  THR205      0.1784
     30  OG1       -6.7680   21.4880   28.4090 O.3   205  THR205     -0.2211
     31  CG2       -4.4120   21.2410   28.6880 C.3   205  THR205      0.0376
     32  N         -6.2680   22.2360   24.7690 N.am  206  LEU206     -0.1965
     33  CA        -7.3050   22.1490   23.7110 C.3   206  LEU206      0.1728
     34  C         -7.9830   20.7800   23.7280 C.2   206  LEU206      0.2617
     35  O         -7.3530   19.7430   24.0260 O.2   206  LEU206     -0.2715
     36  CB        -6.7340   22.4640   22.3380 C.3   206  LEU206      0.0311
     37  CG        -6.2080   23.8990   22.2080 C.3   206  LEU206      0.0022
     38  CD1       -5.5940   24.0940   20.8400 C.3   206  LEU206      0.0001
     39  CD2       -7.3140   24.9270   22.4430 C.3   206  LEU206      0.0001
     40  N         -9.2770   20.7530   23.4440 N.am  207  SER207     -0.1936
     41  CA       -10.0090   19.4880   23.5810 C.3   207  SER207      0.2055
     42  C         -9.4600   18.4150   22.6640 C.2   207  SER207      0.2643
     43  O         -8.8470   18.7440   21.6200 O.2   207  SER207     -0.2714
     44  CB       -11.5010   19.7090   23.2740 C.3   207  SER207      0.2130
     45  OG       -12.2860   18.6250   23.7660 O.3   207  SER207     -0.2179
     46  N         -9.6850   17.1460   23.0480 N.am  208  ARG208     -0.1963
     47  CA        -9.5560   16.0020   22.1120 C.3   208  ARG208      0.1729
     48  C        -10.6630   16.1210   21.0550 C.2   208  ARG208      0.2616
     49  O        -10.4160   15.9370   19.8730 O.2   208  ARG208     -0.2715
     50  CB        -9.7060   14.6540   22.8140 C.3   208  ARG208      0.0348
     51  CG        -8.4830   14.1530   23.5410 C.3   208  ARG208      0.0492
     52  CD        -8.8590   13.0310   24.5070 C.3   208  ARG208      0.2205
     53  NE        -8.1330   13.1740   25.7780 N.pl3 208  ARG208     -0.0865
     54  CZ        -8.5180   12.6740   26.9580 C.cat 208  ARG208      0.5346
     55  NH1       -9.6410   11.9690   27.0670 N.pl3 208  ARG208      0.1354
     56  NH2       -7.7720   12.8810   28.0420 N.pl3 208  ARG208      0.1354
     57  N        -11.8780   16.4280   21.5070 N.am  209  THR209     -0.1951
     58  CA       -13.0260   16.7390   20.6420 C.3   209  THR209      0.1897
     59  C        -12.7400   17.9060   19.6650 C.2   209  THR209      0.2313
     60  O        -12.3270   18.9950   20.0740 O.2   209  THR209     -0.2863
     61  CB       -14.2840   17.1060   21.4930 C.3   209  THR209      0.1794
     62  OG1      -14.3590   16.2510   22.6420 O.3   209  THR209     -0.2208
     63  CG2      -15.6130   17.0020   20.6860 C.3   209  THR209      0.0378
     64  N         -9.8520   24.4830   27.4040 N.3   219  TRP219     -0.1241
     65  CA       -10.3400   23.9960   28.6760 C.3   219  TRP219      0.1605
     66  C         -9.2350   24.0000   29.6820 C.2   219  TRP219      0.2264
     67  O         -8.0540   23.8220   29.3220 O.2   219  TRP219     -0.2867
     68  CB       -10.8450   22.5490   28.5920 C.3   219  TRP219      0.0550
     69  CG       -12.0620   22.2610   27.7650 C.ar  219  TRP219      0.0003
     70  CD1      -12.1130   22.0800   26.3950 C.ar  219  TRP219      0.0946
     71  CD2      -13.3860   22.0370   28.2430 C.ar  219  TRP219      0.0152
     72  NE1      -13.3950   21.7690   25.9990 N.ar  219  TRP219     -0.2442
     73  CE2      -14.1980   21.7250   27.1120 C.ar  219  TRP219      0.0810
     74  CE3      -13.9730   22.0550   29.5150 C.ar  219  TRP219      0.0012
     75  CZ2      -15.5740   21.4410   27.2190 C.ar  219  TRP219      0.0191
     76  CZ3      -15.3520   21.7720   29.6230 C.ar  219  TRP219      0.0001
     77  CH2      -16.1340   21.4760   28.4740 C.ar  219  TRP219      0.0015
     78  N         -7.7430   21.7910   32.0680 N.3   221  TYR221     -0.1241
     79  CA        -7.7010   20.3490   32.1800 C.3   221  TYR221      0.1605
     80  C         -7.4600   19.9160   33.5960 C.2   221  TYR221      0.2264
     81  O         -6.5150   20.3630   34.2210 O.2   221  TYR221     -0.2867
     82  CB        -6.6050   19.7730   31.2940 C.3   221  TYR221      0.0534
     83  CG        -6.3010   18.3000   31.5440 C.ar  221  TYR221     -0.0201
     84  CD1       -7.3170   17.3160   31.5720 C.ar  221  TYR221     -0.0009
     85  CD2       -4.9870   17.8810   31.7210 C.ar  221  TYR221     -0.0009
     86  CE1       -7.0070   15.9720   31.7720 C.ar  221  TYR221      0.0417
     87  CE2       -4.6850   16.5480   31.9110 C.ar  221  TYR221      0.0417
     88  CZ        -5.6850   15.6090   31.9460 C.ar  221  TYR221      0.1957
     89  OH        -5.2930   14.3210   32.1910 O.3   221  TYR221     -0.2866
@<TRIPOS>BOND
     1    59    60    2
     2    59    58    1
     3    49    48    2
     4    58    61    1
     5    58    57    1
     6    63    61    1
     7    38    37    1
     8    48    57   am
     9    48    47    1
    10    61    62    1
    11    43    42    2
    12    47    50    1
    13    47    46    1
    14    37    36    1
    15    37    39    1
    16    36    33    1
    17    42    46   am
    18    42    41    1
    19    50    51    1
    20    44    41    1
    21    44    45    1
    22    40    41    1
    23    40    34   am
    24    51    52    1
    25    33    34    1
    26    33    32    1
    27    34    35    2
    28    52    53    1
    29    32    27   am
    30    53    54    2
    31    27    28    2
    32    27    26    1
    33    72    70   ar
    34    72    73   ar
    35    70    69   ar
    36    54    55    1
    37    54    56    1
    38    26    29    1
    39    26    25    1
    40    73    75   ar
    41    73    71   ar
    42    75    77   ar
    43    64    65    1
    44    29    30    1
    45    29    31    1
    46    69    71   ar
    47    69    68    1
    48    71    74   ar
    49    77    76   ar
    50    68    65    1
    51    65    66    1
    52    67    66    2
    53    74    76   ar
    54     8     6   am
    55    82    83    1
    56    82    79    1
    57     5     6    1
    58     5     2    1
    59    83    84   ar
    60    83    85   ar
    61    84    86   ar
    62    24    22   ar
    63     6     7    2
    64    85    87   ar
    65    86    88   ar
    66    87    88   ar
    67    16    14   am
    68    88    89    1
    69    78    79    1
    70    79    80    1
    71    21    22    1
    72    21    18    1
    73    22    23   ar
    74     2     1    1
    75     2     3    1
    76    14    13    1
    77    14    15    2
    78    20    19    2
    79    19    18    1
    80    18    17    1
    81    13    10    1
    82    80    81    2
    83     3     4    2
    84     9    10    1
    85    10    11    1
    86    11    12    2
