@<TRIPOS>MOLECULE
tmp/4iz0A00.pdb
 120 116 0 0 0
SMALL
GASTEIGER

@<TRIPOS>ATOM
      1  N        -26.3350   49.6630   47.6320 N.3   415  LEU415     -0.1245
      2  CA       -26.3040   50.7440   48.5930 C.3   415  LEU415      0.1561
      3  C        -26.4990   52.0840   47.8980 C.2   415  LEU415      0.2260
      4  O        -27.3270   52.8930   48.3220 O.2   415  LEU415     -0.2867
      5  CB       -24.9590   50.7420   49.3150 C.3   415  LEU415      0.0270
      6  CG       -24.7090   51.8030   50.3870 C.3   415  LEU415      0.0019
      7  CD1      -25.7480   51.6670   51.5090 C.3   415  LEU415      0.0001
      8  CD2      -23.2950   51.6290   50.9390 C.3   415  LEU415      0.0001
      9  N        -30.0240   52.6650   46.1210 N.3   418  ARG418     -0.1231
     10  CA       -31.0670   52.8810   47.1190 C.3   418  ARG418      0.1694
     11  C        -30.9660   54.2340   47.8230 C.2   418  ARG418      0.2591
     12  O        -31.9120   55.0120   47.8130 O.2   418  ARG418     -0.2718
     13  CB       -31.0430   51.7400   48.1480 C.3   418  ARG418      0.0321
     14  CG       -31.3010   50.3690   47.5400 C.3   418  ARG418      0.0489
     15  CD       -31.0790   49.2510   48.5550 C.3   418  ARG418      0.2205
     16  NE       -32.1600   49.1790   49.5320 N.pl3 418  ARG418     -0.0865
     17  CZ       -32.0990   48.5190   50.6870 C.cat 418  ARG418      0.5346
     18  NH1      -31.0000   47.8620   51.0360 N.pl3 418  ARG418      0.1354
     19  NH2      -33.1510   48.5140   51.4930 N.pl3 418  ARG418      0.1354
     20  N        -29.8090   54.5260   48.4050 N.am  419  MET419     -0.1979
     21  CA       -29.6230   55.7780   49.1260 C.3   419  MET419      0.1605
     22  C        -29.5320   57.0290   48.2510 C.2   419  MET419      0.2287
     23  O        -30.0020   58.0940   48.6490 O.2   419  MET419     -0.2864
     24  CB       -28.3770   55.6950   50.0060 C.3   419  MET419      0.0413
     25  CG       -28.4200   54.5770   51.0310 C.3   419  MET419      0.0598
     26  SD       -27.0880   54.7050   52.2390 S.3   419  MET419     -0.1393
     27  CE       -27.6750   56.0980   53.2630 C.3   419  MET419      0.0692
     28  N        -31.8200   44.6350   52.3100 N.3   470  LEU470     -0.1231
     29  CA       -30.3780   44.4180   52.4010 C.3   470  LEU470      0.1693
     30  C        -29.7350   45.4530   53.2980 C.2   470  LEU470      0.2592
     31  O        -30.0630   46.6420   53.2290 O.2   470  LEU470     -0.2718
     32  CB       -29.7110   44.4770   51.0240 C.3   470  LEU470      0.0284
     33  CG       -30.0500   43.3650   50.0310 C.3   470  LEU470      0.0019
     34  CD1      -28.9650   43.2840   48.9520 C.3   470  LEU470      0.0001
     35  CD2      -30.1390   42.0430   50.7850 C.3   470  LEU470      0.0001
     36  N        -28.8010   44.9960   54.1240 N.am  471  HIS471     -0.1962
     37  CA       -28.0860   45.8550   55.0600 C.3   471  HIS471      0.1787
     38  C        -26.7670   45.1670   55.3440 C.2   471  HIS471      0.2621
     39  O        -26.5670   44.0240   54.9460 O.2   471  HIS471     -0.2715
     40  CB       -28.8710   45.9720   56.3640 C.3   471  HIS471      0.0785
     41  CG       -29.0970   44.6550   57.0370 C.ar  471  HIS471      0.0821
     42  ND1      -28.1370   44.0410   57.8120 N.ar  471  HIS471     -0.2267
     43  CD2      -30.1500   43.8010   56.9960 C.ar  471  HIS471      0.1154
     44  CE1      -28.5870   42.8660   58.2190 C.ar  471  HIS471      0.1986
     45  NE2      -29.8060   42.6970   57.7360 N.ar  471  HIS471     -0.2212
     46  N        -25.8670   45.8630   56.0260 N.am  472  SER472     -0.1936
     47  CA       -24.5820   45.2800   56.3650 C.3   472  SER472      0.2055
     48  C        -23.7760   44.9410   55.1060 C.2   472  SER472      0.2643
     49  O        -23.2900   43.8170   54.9490 O.2   472  SER472     -0.2714
     50  CB       -24.8090   44.0170   57.2030 C.3   472  SER472      0.2130
     51  OG       -23.8410   43.8960   58.2300 O.3   472  SER472     -0.2179
     52  N        -23.6330   45.9150   54.2080 N.am  473  TYR473     -0.1973
     53  CA       -22.8790   45.6950   52.9820 C.3   473  TYR473      0.1639
     54  C        -21.4070   45.4450   53.3190 C.2   473  TYR473      0.2290
     55  O        -20.9700   45.6780   54.4520 O.2   473  TYR473     -0.2864
     56  CB       -23.0180   46.9000   52.0350 C.3   473  TYR473      0.0560
     57  CG       -24.4080   47.0830   51.4370 C.ar  473  TYR473     -0.0198
     58  CD1      -25.4210   47.7030   52.1560 C.ar  473  TYR473     -0.0009
     59  CD2      -24.7000   46.6340   50.1530 C.ar  473  TYR473     -0.0009
     60  CE1      -26.6930   47.8760   51.6160 C.ar  473  TYR473      0.0417
     61  CE2      -25.9680   46.7970   49.5950 C.ar  473  TYR473      0.0417
     62  CZ       -26.9620   47.4210   50.3350 C.ar  473  TYR473      0.1957
     63  OH       -28.2180   47.6040   49.7970 O.3   473  TYR473     -0.2866
     64  N        -18.7100   49.4510   50.5430 N.3   478  ILE478     -0.1245
     65  CA       -19.0250   50.7010   51.2240 C.3   478  ILE478      0.1561
     66  C        -17.9340   51.7390   50.9750 C.2   478  ILE478      0.2260
     67  O        -18.2240   52.9190   50.7600 O.2   478  ILE478     -0.2867
     68  CB       -19.1900   50.4900   52.7480 C.3   478  ILE478      0.0252
     69  CG1      -20.3610   49.5520   53.0150 C.3   478  ILE478      0.0019
     70  CG2      -19.4480   51.8240   53.4490 C.3   478  ILE478      0.0019
     71  CD1      -20.5800   49.2930   54.4930 C.3   478  ILE478      0.0001
     72  N        -18.3510   55.4500   49.1550 N.3   482  ALA482     -0.1245
     73  CA       -18.0140   56.6830   49.8600 C.3   482  ALA482      0.1562
     74  C        -16.9060   57.4310   49.1370 C.2   482  ALA482      0.2260
     75  O        -16.9980   58.6400   48.9190 O.2   482  ALA482     -0.2867
     76  CB       -17.5930   56.3770   51.3030 C.3   482  ALA482      0.0290
     77  N        -23.3760   59.7860   52.2960 N.3   493  LEU493     -0.1231
     78  CA       -24.5470   58.9630   52.5260 C.3   493  LEU493      0.1693
     79  C        -25.4260   59.4050   53.6850 C.2   493  LEU493      0.2591
     80  O        -26.6470   59.3150   53.6070 O.2   493  LEU493     -0.2718
     81  CB       -24.1210   57.5090   52.7120 C.3   493  LEU493      0.0284
     82  CG       -23.4460   56.9230   51.4660 C.3   493  LEU493      0.0019
     83  CD1      -22.9290   55.5300   51.7910 C.3   493  LEU493      0.0001
     84  CD2      -24.4230   56.8920   50.3070 C.3   493  LEU493      0.0001
     85  N        -24.8170   59.8850   54.7600 N.am  494  ARG494     -0.1980
     86  CA       -25.6000   60.3290   55.9020 C.3   494  ARG494      0.1597
     87  C        -26.6010   61.3760   55.4350 C.2   494  ARG494      0.2287
     88  O        -27.7590   61.3870   55.8610 O.2   494  ARG494     -0.2864
     89  CB       -24.6970   60.9140   56.9900 C.3   494  ARG494      0.0334
     90  CG       -23.8460   62.1160   56.6000 C.3   494  ARG494      0.0492
     91  CD       -23.1540   62.6200   57.8610 C.3   494  ARG494      0.2205
     92  NE       -21.9610   63.4150   57.6090 N.pl3 494  ARG494     -0.0865
     93  CZ       -21.9710   64.6600   57.1450 C.cat 494  ARG494      0.5346
     94  NH1      -23.1250   65.2670   56.8730 N.pl3 494  ARG494      0.1354
     95  NH2      -20.8170   65.3010   56.9660 N.pl3 494  ARG494      0.1354
     96  N        -29.5300   59.8100   53.7170 N.3   497  ARG497     -0.1245
     97  CA       -30.4290   59.1150   54.6320 C.3   497  ARG497      0.1563
     98  C        -31.4480   60.1410   55.1070 C.2   497  ARG497      0.2260
     99  O        -32.6470   59.8860   55.1140 O.2   497  ARG497     -0.2867
    100  CB       -29.6520   58.5370   55.8240 C.3   497  ARG497      0.0307
    101  CG       -30.5280   57.9930   56.9660 C.3   497  ARG497      0.0489
    102  CD       -29.8080   56.9240   57.8280 C.3   497  ARG497      0.2205
    103  NE       -30.6960   56.2660   58.7910 N.pl3 497  ARG497     -0.0865
    104  CZ       -31.5580   55.2800   58.5150 C.cat 497  ARG497      0.5346
    105  NH1      -31.6910   54.7990   57.2740 N.pl3 497  ARG497      0.1354
    106  NH2      -32.2770   54.7520   59.5080 N.pl3 497  ARG497      0.1354
    107  N        -35.4170   51.2310   54.2690 N.3   524  TRP524     -0.1241
    108  CA       -34.0750   51.2760   54.8540 C.3   524  TRP524      0.1605
    109  C        -33.8240   52.5730   55.6220 C.2   524  TRP524      0.2264
    110  O        -32.9840   52.6210   56.5140 O.2   524  TRP524     -0.2867
    111  CB       -33.0050   51.1420   53.7580 C.3   524  TRP524      0.0550
    112  CG       -33.1130   52.2050   52.6770 C.ar  524  TRP524      0.0003
    113  CD1      -33.8260   52.1240   51.5070 C.ar  524  TRP524      0.0946
    114  CD2      -32.5340   53.5140   52.7000 C.ar  524  TRP524      0.0152
    115  NE1      -33.7230   53.3040   50.8050 N.ar  524  TRP524     -0.2442
    116  CE2      -32.9350   54.1730   51.5170 C.ar  524  TRP524      0.0810
    117  CE3      -31.7140   54.1970   53.6070 C.ar  524  TRP524      0.0012
    118  CZ2      -32.5420   55.4830   51.2210 C.ar  524  TRP524      0.0191
    119  CZ3      -31.3270   55.4910   53.3110 C.ar  524  TRP524      0.0001
    120  CH2      -31.7410   56.1210   52.1300 C.ar  524  TRP524      0.0015
@<TRIPOS>BOND
     1     9    10    1
     2    10    11    1
     3    10    13    1
     4    14    13    1
     5    14    15    1
     6     1     2    1
     7    12    11    2
     8    11    20   am
     9     3     4    2
    10     3     2    1
    11    22    23    2
    12    22    21    1
    13    20    21    1
    14    15    16    1
    15     2     5    1
    16    75    74    2
    17    34    33    1
    18    21    24    1
    19    74    73    1
    20    72    73    1
    21     5     6    1
    22    16    17    2
    23    61    59   ar
    24    61    62   ar
    25    63    62    1
    26    73    76    1
    27    24    25    1
    28    33    35    1
    29    33    32    1
    30    59    57   ar
    31    84    82    1
    32    62    60   ar
    33     6     8    1
    34     6     7    1
    35    64    65    1
    36    17    18    1
    37    17    19    1
    38    67    66    2
    39   115   113   ar
    40   115   116   ar
    41    66    65    1
    42    32    29    1
    43    25    26    1
    44   118   116   ar
    45   118   120   ar
    46    65    68    1
    47    57    56    1
    48    57    58   ar
    49    82    83    1
    50    82    81    1
    51   113   112   ar
    52   116   114   ar
    53    60    58   ar
    54    56    53    1
    55   120   119   ar
    56    26    27    1
    57    77    78    1
    58    28    29    1
    59    29    30    1
    60    78    81    1
    61    78    79    1
    62   112   114   ar
    63   112   111    1
    64   114   117   ar
    65    68    69    1
    66    68    70    1
    67    53    54    1
    68    53    52    1
    69    69    71    1
    70    31    30    2
    71    30    36   am
    72   119   117   ar
    73    54    55    2
    74    80    79    2
    75    79    85   am
    76    96    97    1
    77   111   108    1
    78    36    37    1
    79    52    48   am
    80   107   108    1
    81    97    98    1
    82    97   100    1
    83    85    86    1
    84   108   109    1
    85    39    38    2
    86    49    48    2
    87    37    38    1
    88    37    40    1
    89    48    47    1
    90    98    99    2
    91    38    46   am
    92    87    88    2
    93    87    86    1
    94   109   110    2
    95   100   101    1
    96    86    89    1
    97    46    47    1
    98    40    41    1
    99    47    50    1
   100    90    89    1
   101    90    91    1
   102    94    93    1
   103   101   102    1
   104    95    93    1
   105    43    41   ar
   106    43    45   ar
   107    41    42   ar
   108    93    92    2
   109    50    51    1
   110   105   104    1
   111    92    91    1
   112    45    44   ar
   113    42    44   ar
   114   102   103    1
   115   104   103    2
   116   104   106    1
