@<TRIPOS>MOLECULE
tmp/4iz0A01.pdb
 134 126 0 0 0
SMALL
GASTEIGER

@<TRIPOS>ATOM
      1  N        -27.1770   37.4860   28.0410 N.3   189  PHE189     -0.1241
      2  CA       -28.4080   38.2650   27.9730 C.3   189  PHE189      0.1605
      3  C        -29.7070   37.5480   28.3730 C.2   189  PHE189      0.2264
      4  O        -30.7600   38.1820   28.4550 O.2   189  PHE189     -0.2867
      5  CB       -28.5390   38.8940   26.5840 C.3   189  PHE189      0.0534
      6  CG       -27.4450   39.8830   26.2570 C.ar  189  PHE189     -0.0203
      7  CD1      -27.2980   41.0510   27.0010 C.ar  189  PHE189     -0.0042
      8  CD2      -26.5640   39.6510   25.2090 C.ar  189  PHE189     -0.0042
      9  CE1      -26.2950   41.9710   26.7090 C.ar  189  PHE189     -0.0003
     10  CE2      -25.5500   40.5730   24.9080 C.ar  189  PHE189     -0.0003
     11  CZ       -25.4200   41.7340   25.6650 C.ar  189  PHE189     -0.0000
     12  N        -30.2610   40.5410   36.3660 N.3   193  PRO193     -0.2116
     13  CA       -29.0910   40.7070   37.2400 C.3   193  PRO193      0.1372
     14  C        -28.9630   39.6120   38.3040 C.2   193  PRO193      0.2244
     15  O        -27.8640   39.1070   38.5610 O.2   193  PRO193     -0.2868
     16  CB       -29.3100   42.0850   37.8540 C.3   193  PRO193      0.0268
     17  CG       -30.0820   42.8110   36.7740 C.3   193  PRO193      0.0207
     18  CD       -31.0710   41.7720   36.3160 C.3   193  PRO193      0.0892
     19  N        -27.8990   36.3120   36.7580 N.3   196  ARG196     -0.1245
     20  CA       -26.4990   36.3960   36.3440 C.3   196  ARG196      0.1563
     21  C        -25.6210   36.1250   37.5590 C.2   196  ARG196      0.2260
     22  O        -24.6420   35.3760   37.4790 O.2   196  ARG196     -0.2867
     23  CB       -26.1700   37.7870   35.7840 C.3   196  ARG196      0.0307
     24  CG       -24.7110   37.9360   35.3890 C.3   196  ARG196      0.0489
     25  CD       -24.3870   39.3450   34.8980 C.3   196  ARG196      0.2205
     26  NE       -22.9690   39.4800   34.5690 N.pl3 196  ARG196     -0.0865
     27  CZ       -22.4260   39.1250   33.4060 C.cat 196  ARG196      0.5346
     28  NH1      -23.1810   38.6150   32.4450 N.pl3 196  ARG196      0.1354
     29  NH2      -21.1210   39.2780   33.2050 N.pl3 196  ARG196      0.1354
     30  N        -21.5410   38.4230   26.7760 N.3   312  ASN312     -0.1240
     31  CA       -22.5360   39.4570   26.4700 C.3   312  ASN312      0.1653
     32  C        -21.8560   40.3340   25.4200 C.2   312  ASN312      0.2266
     33  O        -21.0980   41.2440   25.7650 O.2   312  ASN312     -0.2867
     34  CB       -22.8370   40.3270   27.6930 C.3   312  ASN312      0.1155
     35  CG       -23.4820   39.5570   28.8170 C.2   312  ASN312      0.2627
     36  OD1      -22.8870   38.6360   29.3840 O.2   312  ASN312     -0.2716
     37  ND2      -24.7150   39.9290   29.1530 N.am  312  ASN312     -0.0877
     38  N        -19.0570   42.9570   32.3910 N.3   362  CYS362     -0.1235
     39  CA       -20.2140   43.7670   32.0250 C.3   362  CYS362      0.1677
     40  C        -20.2450   44.9650   32.9810 C.2   362  CYS362      0.2270
     41  O        -21.3100   45.3940   33.4470 O.2   362  CYS362     -0.2867
     42  CB       -21.5110   42.9610   32.1260 C.3   362  CYS362      0.0956
     43  SG       -21.8670   41.9660   30.6570 S.3   362  CYS362     -0.0801
     44  N        -19.6290   45.1650   35.9310 N.3   364  SER364     -0.1217
     45  CA       -20.1730   44.8620   37.2460 C.3   364  SER364      0.1889
     46  C        -19.4280   43.7490   37.9640 C.2   364  SER364      0.2288
     47  O        -18.6310   43.0260   37.3630 O.2   364  SER364     -0.2866
     48  CB       -21.6430   44.4740   37.1110 C.3   364  SER364      0.2089
     49  OG       -22.3560   45.4720   36.4050 O.3   364  SER364     -0.2183
     50  N        -25.6320   42.0690   42.4140 N.3   380  LEU380     -0.1245
     51  CA       -24.7540   42.6780   41.4250 C.3   380  LEU380      0.1561
     52  C        -24.5890   44.1720   41.6720 C.2   380  LEU380      0.2260
     53  O        -25.5790   44.8790   41.8140 O.2   380  LEU380     -0.2867
     54  CB       -25.3450   42.4510   40.0350 C.3   380  LEU380      0.0270
     55  CG       -24.4150   42.5410   38.8320 C.3   380  LEU380      0.0019
     56  CD1      -23.4240   41.3840   38.8840 C.3   380  LEU380      0.0001
     57  CD2      -25.2310   42.4950   37.5450 C.3   380  LEU380      0.0001
     58  N        -30.8760   56.7830   31.7680 N.3   403  SER403     -0.1217
     59  CA       -30.0540   55.7320   32.3350 C.3   403  SER403      0.1889
     60  C        -30.3030   55.5290   33.8250 C.2   403  SER403      0.2288
     61  O        -30.1510   54.4160   34.3320 O.2   403  SER403     -0.2866
     62  CB       -28.5750   56.0190   32.1060 C.3   403  SER403      0.2089
     63  OG       -28.1500   57.0870   32.9090 O.3   403  SER403     -0.2183
     64  N        -32.9830   53.0190   34.5070 N.3   406  GLY406     -0.1210
     65  CA       -32.4620   51.7000   34.2080 C.3   406  GLY406      0.1956
     66  C        -31.4540   51.2340   35.2460 C.2   406  GLY406      0.2611
     67  O        -31.3800   50.0350   35.5480 O.2   406  GLY406     -0.2717
     68  N        -30.6640   52.1590   35.7910 N.am  407  ASN407     -0.1974
     69  CA       -29.6890   51.7780   36.8130 C.3   407  ASN407      0.1688
     70  C        -30.4200   51.4270   38.1000 C.2   407  ASN407      0.2292
     71  O        -30.0120   50.5180   38.8340 O.2   407  ASN407     -0.2864
     72  CB       -28.6560   52.8910   37.0470 C.3   407  ASN407      0.1181
     73  CG       -27.5450   52.8750   35.9970 C.2   407  ASN407      0.2629
     74  OD1      -27.0190   51.8210   35.6610 O.2   407  ASN407     -0.2716
     75  ND2      -27.1830   54.0330   35.4900 N.am  407  ASN407     -0.0877
     76  N        -31.8150   47.8300   37.4510 N.3   410  MET410     -0.1230
     77  CA       -30.7570   46.8310   37.4000 C.3   410  MET410      0.1702
     78  C        -29.9080   46.7190   38.6750 C.2   410  MET410      0.2592
     79  O        -29.4010   45.6480   38.9920 O.2   410  MET410     -0.2718
     80  CB       -29.8450   47.1210   36.1950 C.3   410  MET410      0.0401
     81  CG       -30.5710   47.1000   34.8420 C.3   410  MET410      0.0596
     82  SD       -31.2160   45.4540   34.4150 S.3   410  MET410     -0.1393
     83  CE       -29.6770   44.6670   33.8780 C.3   410  MET410      0.0692
     84  N        -29.7590   47.8140   39.4070 N.am  411  TYR411     -0.1976
     85  CA       -28.9510   47.8040   40.6230 C.3   411  TYR411      0.1639
     86  C        -29.7670   48.1380   41.8740 C.2   411  TYR411      0.2290
     87  O        -29.2340   48.6420   42.8610 O.2   411  TYR411     -0.2864
     88  CB       -27.7940   48.7920   40.4640 C.3   411  TYR411      0.0560
     89  CG       -26.7910   48.3720   39.4070 C.ar  411  TYR411     -0.0198
     90  CD1      -25.9480   47.2810   39.6160 C.ar  411  TYR411     -0.0009
     91  CD2      -26.7180   49.0280   38.1870 C.ar  411  TYR411     -0.0009
     92  CE1      -25.0670   46.8530   38.6410 C.ar  411  TYR411      0.0417
     93  CE2      -25.8390   48.6060   37.2000 C.ar  411  TYR411      0.0417
     94  CZ       -25.0160   47.5170   37.4360 C.ar  411  TYR411      0.1957
     95  OH       -24.1330   47.0950   36.4660 O.3   411  TYR411     -0.2866
     96  N        -33.2770   51.9910   28.8000 N.3   442  GLN442     -0.1231
     97  CA       -32.8070   50.8150   28.0690 C.3   442  GLN442      0.1698
     98  C        -32.3430   49.6700   28.9570 C.2   442  GLN442      0.2592
     99  O        -31.6780   49.8820   29.9700 O.2   442  GLN442     -0.2718
    100  CB       -31.6670   51.1850   27.1150 C.3   442  GLN442      0.0381
    101  CG       -32.0940   51.9720   25.8830 C.3   442  GLN442      0.0905
    102  CD       -30.9340   52.2440   24.9260 C.2   442  GLN442      0.2608
    103  OE1      -29.9450   52.8770   25.2960 O.2   442  GLN442     -0.2717
    104  NE2      -31.0570   51.7670   23.6880 N.am  442  GLN442     -0.0878
    105  N        -32.7040   48.4540   28.5570 N.am  443  ILE443     -0.1966
    106  CA       -32.3090   47.2360   29.2640 C.3   443  ILE443      0.1727
    107  C        -31.7010   46.3100   28.2040 C.2   443  ILE443      0.2616
    108  O        -32.3870   45.8700   27.2800 O.2   443  ILE443     -0.2715
    109  CB       -33.5240   46.5570   29.9520 C.3   443  ILE443      0.0290
    110  CG1      -34.1370   47.5220   30.9690 C.3   443  ILE443      0.0022
    111  CG2      -33.0880   45.2850   30.6670 C.3   443  ILE443      0.0023
    112  CD1      -35.3130   46.9590   31.7050 C.3   443  ILE443      0.0001
    113  N        -30.4070   46.0400   28.3360 N.am  444  TYR444     -0.1960
    114  CA       -29.6830   45.2180   27.3720 C.3   444  TYR444      0.1771
    115  C        -29.8740   45.7690   25.9550 C.2   444  TYR444      0.2620
    116  O        -30.0430   45.0150   24.9900 O.2   444  TYR444     -0.2715
    117  CB       -30.1390   43.7530   27.4330 C.3   444  TYR444      0.0574
    118  CG       -29.7130   43.0100   28.6830 C.ar  444  TYR444     -0.0198
    119  CD1      -28.7350   43.5240   29.5260 C.ar  444  TYR444     -0.0009
    120  CD2      -30.2790   41.7820   29.0080 C.ar  444  TYR444     -0.0009
    121  CE1      -28.3340   42.8340   30.6630 C.ar  444  TYR444      0.0417
    122  CE2      -29.8840   41.0860   30.1390 C.ar  444  TYR444      0.0417
    123  CZ       -28.9150   41.6160   30.9630 C.ar  444  TYR444      0.1957
    124  OH       -28.5460   40.9350   32.0970 O.3   444  TYR444     -0.2866
    125  N        -29.8590   47.0940   25.8420 N.am  445  GLY445     -0.1954
    126  CA       -30.0030   47.7300   24.5460 C.3   445  GLY445      0.1869
    127  C        -31.4160   47.9620   24.0510 C.2   445  GLY445      0.2309
    128  O        -31.6280   48.7740   23.1560 O.2   445  GLY445     -0.2863
    129  N        -28.1470   45.8620   21.6100 N.3   552  SER552     -0.1217
    130  CA       -27.3360   47.0720   21.5570 C.3   552  SER552      0.1889
    131  C        -27.0820   47.5190   20.1320 C.2   552  SER552      0.2288
    132  O        -26.5040   46.7820   19.3430 O.2   552  SER552     -0.2866
    133  CB       -25.9980   46.8380   22.2550 C.3   552  SER552      0.2089
    134  OG       -25.8450   47.7390   23.3280 O.3   552  SER552     -0.2183
@<TRIPOS>BOND
     1   132   131    2
     2   131   130    1
     3   130   129    1
     4   130   133    1
     5   133   134    1
     6   128   127    2
     7   104   102   am
     8   127   126    1
     9   126   125    1
    10    10     8   ar
    11    10    11   ar
    12   102   103    2
    13   102   101    1
    14   116   115    2
    15     8     6   ar
    16    32    33    2
    17    32    31    1
    18    11     9   ar
    19   125   115   am
    20   101   100    1
    21   115   114    1
    22     6     5    1
    23     6     7   ar
    24    31    30    1
    25    31    34    1
    26     5     2    1
    27     9     7   ar
    28   100    97    1
    29   108   107    2
    30   114   117    1
    31   114   113    1
    32   117   118    1
    33    34    35    1
    34     2     1    1
    35     2     3    1
    36    97    96    1
    37    97    98    1
    38   107   113   am
    39   107   106    1
    40     3     4    2
    41   105    98   am
    42   105   106    1
    43   118   120   ar
    44   118   119   ar
    45    35    37   am
    46    35    36    2
    47    98    99    2
    48   120   122   ar
    49   106   109    1
    50   119   121   ar
    51   109   111    1
    52   109   110    1
    53   122   123   ar
    54    43    42    1
    55   121   123   ar
    56   123   124    1
    57   110   112    1
    58    58    59    1
    59    39    42    1
    60    39    38    1
    61    39    40    1
    62    62    59    1
    63    62    63    1
    64    59    60    1
    65    28    27    1
    66    40    41    2
    67    29    27    1
    68    27    26    2
    69    60    61    2
    70    83    82    1
    71    65    64    1
    72    65    66    1
    73    82    81    1
    74    26    25    1
    75    81    80    1
    76    25    24    1
    77    66    67    2
    78    66    68   am
    79    24    23    1
    80    75    73   am
    81    74    73    2
    82    23    20    1
    83    68    69    1
    84    44    45    1
    85    73    72    1
    86    80    77    1
    87    18    12    1
    88    18    17    1
    89    20    19    1
    90    20    21    1
    91    12    13    1
    92    49    48    1
    93    95    94    1
    94    17    16    1
    95    69    72    1
    96    69    70    1
    97    48    45    1
    98    93    94   ar
    99    93    91   ar
   100    13    16    1
   101    13    14    1
   102    45    46    1
   103    47    46    2
   104    77    76    1
   105    77    78    1
   106    94    92   ar
   107    22    21    2
   108    57    55    1
   109    70    71    2
   110    91    89   ar
   111    14    15    2
   112    92    90   ar
   113    78    79    2
   114    78    84   am
   115    55    56    1
   116    55    54    1
   117    89    90   ar
   118    89    88    1
   119    84    85    1
   120    54    51    1
   121    88    85    1
   122    85    86    1
   123    51    52    1
   124    51    50    1
   125    52    53    2
   126    86    87    2
