@<TRIPOS>MOLECULE
tmp/4iz5C00.pdb
 173 162 0 0 0
SMALL
GASTEIGER

@<TRIPOS>ATOM
      1  N        -29.6170   60.0110   52.7570 N.3    21  ILE21      -0.1231
      2  CA       -31.0800   60.1080   52.7890 C.3    21  ILE21       0.1692
      3  C        -31.6070   60.9260   51.6040 C.2    21  ILE21       0.2593
      4  O        -32.4990   60.4740   50.8890 O.2    21  ILE21      -0.2718
      5  CB       -31.5870   60.6900   54.1370 C.3    21  ILE21       0.0266
      6  CG1      -31.5950   59.5970   55.2090 C.3    21  ILE21       0.0019
      7  CG2      -32.9860   61.3010   53.9930 C.3    21  ILE21       0.0020
      8  CD1      -31.9040   60.1050   56.6080 C.3    21  ILE21       0.0001
      9  N        -31.0440   62.1180   51.4020 N.am   22  GLY22      -0.1942
     10  CA       -31.4500   63.0090   50.3150 C.3    22  GLY22       0.2014
     11  C        -30.8170   64.3900   50.3800 C.2    22  GLY22       0.2639
     12  O        -30.1540   64.7460   51.3630 O.2    22  GLY22      -0.2714
     13  N        -31.0200   65.1680   49.3200 N.am   23  GLU23      -0.1963
     14  CA       -30.5340   66.5400   49.2700 C.3    23  GLU23       0.1733
     15  C        -31.5770   67.5170   49.7890 C.2    23  GLU23       0.2617
     16  O        -32.7200   67.5290   49.3300 O.2    23  GLU23      -0.2715
     17  CB       -30.0990   66.9140   47.8570 C.3    23  GLU23       0.0429
     18  CG       -28.6550   66.5520   47.5310 C.3    23  GLU23       0.1163
     19  CD       -27.6330   67.3390   48.3430 C.2    23  GLU23       0.3649
     20  OE1      -27.9440   68.4560   48.8190 O.co2  23  GLU23      -0.2457
     21  OE2      -26.5020   66.8320   48.4980 O.co2  23  GLU23      -0.2457
     22  N        -31.1660   68.3350   50.7520 N.am   24  GLY24      -0.1940
     23  CA       -32.0750   69.2380   51.4400 C.3    24  GLY24       0.2014
     24  C        -31.8770   70.7080   51.1460 C.2    24  GLY24       0.2639
     25  O        -31.2400   71.0730   50.1530 O.2    24  GLY24      -0.2714
     26  N        -32.4350   71.5440   52.0220 N.am   25  ALA25      -0.1963
     27  CA       -32.4190   72.9960   51.8650 C.3    25  ALA25       0.1728
     28  C        -31.1170   73.6130   52.3720 C.2    25  ALA25       0.2616
     29  O        -30.7880   74.7490   52.0310 O.2    25  ALA25      -0.2715
     30  CB       -33.6130   73.6080   52.5750 C.3    25  ALA25       0.0334
     31  N        -30.3840   72.8570   53.1840 N.am   26  TYR26      -0.1974
     32  CA       -29.1130   73.3120   53.7460 C.3    26  TYR26       0.1639
     33  C        -27.9480   72.5820   53.0960 C.2    26  TYR26       0.2290
     34  O        -26.8170   73.0650   53.0880 O.2    26  TYR26      -0.2864
     35  CB       -29.1020   73.1070   55.2660 C.3    26  TYR26       0.0560
     36  CG       -30.1460   73.9480   55.9550 C.ar   26  TYR26      -0.0198
     37  CD1      -31.4830   73.5400   55.9900 C.ar   26  TYR26      -0.0009
     38  CD2      -29.8140   75.1730   56.5360 C.ar   26  TYR26      -0.0009
     39  CE1      -32.4580   74.3220   56.5970 C.ar   26  TYR26       0.0417
     40  CE2      -30.7860   75.9610   57.1510 C.ar   26  TYR26       0.0417
     41  CZ       -32.1030   75.5230   57.1710 C.ar   26  TYR26       0.1957
     42  OH       -33.0780   76.2800   57.7590 O.3    26  TYR26      -0.2866
     43  N        -28.3420   65.4390   53.4990 N.3    29  VAL29      -0.1245
     44  CA       -28.9400   64.8320   54.6920 C.3    29  VAL29       0.1561
     45  C        -28.5860   63.3420   54.7310 C.2    29  VAL29       0.2260
     46  O        -28.6950   62.6420   53.7240 O.2    29  VAL29      -0.2867
     47  CB       -30.4780   65.0270   54.7360 C.3    29  VAL29       0.0252
     48  CG1      -31.0790   64.3470   55.9550 C.3    29  VAL29       0.0019
     49  CG2      -30.8280   66.5020   54.7470 C.3    29  VAL29       0.0019
     50  N        -30.8550   61.3060   62.2480 N.3    42  ALA42      -0.1245
     51  CA       -30.7040   62.0890   61.0190 C.3    42  ALA42       0.1562
     52  C        -29.6860   63.2180   61.2130 C.2    42  ALA42       0.2260
     53  O        -29.6970   63.8970   62.2390 O.2    42  ALA42      -0.2867
     54  CB       -32.0400   62.6530   60.5850 C.3    42  ALA42       0.0290
     55  N        -28.0170   66.6630   59.2970 N.3    44  LYS44      -0.1245
     56  CA       -27.9690   67.6670   58.2360 C.3    44  LYS44       0.1561
     57  C        -26.6170   68.3790   58.2310 C.2    44  LYS44       0.2260
     58  O        -26.1760   68.8920   59.2620 O.2    44  LYS44      -0.2867
     59  CB       -29.0730   68.7040   58.4250 C.3    44  LYS44       0.0271
     60  CG       -30.4870   68.1650   58.3640 C.3    44  LYS44       0.0035
     61  CD       -31.4790   69.2650   58.6820 C.3    44  LYS44       0.0206
     62  CE       -32.8750   68.9430   58.1840 C.3    44  LYS44       0.1093
     63  NZ       -33.6090   68.0260   59.0880 N.3    44  LYS44      -0.1314
     64  N        -39.5790   69.2780   65.6590 N.3    74  ILE74      -0.1245
     65  CA       -38.3090   68.5530   65.6530 C.3    74  ILE74       0.1561
     66  C        -37.3060   69.3040   66.5170 C.2    74  ILE74       0.2260
     67  O        -37.2470   70.5320   66.4810 O.2    74  ILE74      -0.2867
     68  CB       -37.7510   68.3470   64.2060 C.3    74  ILE74       0.0252
     69  CG1      -36.6270   67.2940   64.1790 C.3    74  ILE74       0.0019
     70  CG2      -37.2780   69.6660   63.5890 C.3    74  ILE74       0.0019
     71  CD1      -37.1010   65.8430   64.2200 C.3    74  ILE74       0.0001
     72  N        -30.6180   65.4880   64.3590 N.3    95  GLN95      -0.1231
     73  CA       -32.0160   65.4340   64.7920 C.3    95  GLN95       0.1698
     74  C        -32.5240   63.9960   64.8980 C.2    95  GLN95       0.2592
     75  O        -31.8320   63.0600   64.4900 O.2    95  GLN95      -0.2718
     76  CB       -32.8960   66.1980   63.8030 C.3    95  GLN95       0.0381
     77  CG       -32.6190   67.6870   63.6760 C.3    95  GLN95       0.0905
     78  CD       -33.3600   68.3090   62.5060 C.2    95  GLN95       0.2608
     79  OE1      -33.6470   67.6450   61.5160 O.2    95  GLN95      -0.2717
     80  NE2      -33.6700   69.5900   62.6160 N.am   95  GLN95      -0.0878
     81  N        -33.7330   63.8370   65.4460 N.am   96  ASP96      -0.1960
     82  CA       -34.4560   62.5560   65.4320 C.3    96  ASP96       0.1840
     83  C        -34.6540   62.0890   63.9980 C.2    96  ASP96       0.2622
     84  O        -35.0620   62.8750   63.1320 O.2    96  ASP96      -0.2715
     85  CB       -35.8410   62.6900   66.0840 C.3    96  ASP96       0.1450
     86  CG       -35.7790   62.9180   67.5880 C.2    96  ASP96       0.3671
     87  OD1      -34.7860   62.5110   68.2280 O.co2  96  ASP96      -0.2456
     88  OD2      -36.7420   63.4990   68.1390 O.co2  96  ASP96      -0.2456
     89  N        -34.3640   60.8160   63.7440 N.am   97  LEU97      -0.1963
     90  CA       -34.6130   60.2310   62.4320 C.3    97  LEU97       0.1728
     91  C        -36.1060   59.9640   62.2810 C.2    97  LEU97       0.2616
     92  O        -36.6940   59.2020   63.0540 O.2    97  LEU97      -0.2715
     93  CB       -33.7990   58.9500   62.2420 C.3    97  LEU97       0.0311
     94  CG       -33.9520   58.1640   60.9390 C.3    97  LEU97       0.0022
     95  CD1      -33.3110   58.8830   59.7680 C.3    97  LEU97       0.0001
     96  CD2      -33.3470   56.7840   61.1000 C.3    97  LEU97       0.0001
     97  N        -36.7110   60.6220   61.2950 N.am   98  MET98      -0.1977
     98  CA       -38.1390   60.4870   61.0030 C.3    98  MET98       0.1605
     99  C        -38.3440   59.6600   59.7360 C.2    98  MET98       0.2287
    100  O        -37.6060   59.8140   58.7590 O.2    98  MET98      -0.2864
    101  CB       -38.7820   61.8670   60.8370 C.3    98  MET98       0.0413
    102  CG       -38.6080   62.7980   62.0310 C.3    98  MET98       0.0598
    103  SD       -39.3940   62.2090   63.5450 S.3    98  MET98      -0.1393
    104  CE       -41.1430   62.3490   63.1310 C.3    98  MET98       0.0692
    105  N        -40.8220   59.5540   57.3630 N.3   100  THR100     -0.1203
    106  CA       -41.2840   60.2400   56.1550 C.3   100  THR100      0.1994
    107  C        -41.7030   61.6950   56.4190 C.2   100  THR100      0.2617
    108  O        -41.6340   62.1660   57.5540 O.2   100  THR100     -0.2717
    109  CB       -42.4390   59.4500   55.4790 C.3   100  THR100      0.1784
    110  OG1      -42.7500   60.0390   54.2110 O.3   100  THR100     -0.2211
    111  CG2      -43.6930   59.4210   56.3590 C.3   100  THR100      0.0376
    112  N        -42.1010   62.4050   55.3610 N.am  101  ASP101     -0.1973
    113  CA       -42.7600   63.7110   55.4950 C.3   101  ASP101      0.1709
    114  C        -44.1050   63.7350   54.7570 C.2   101  ASP101      0.2293
    115  O        -44.3760   62.8720   53.9230 O.2   101  ASP101     -0.2864
    116  CB       -41.8440   64.8820   55.0820 C.3   101  ASP101      0.1436
    117  CG       -41.3540   64.7920   53.6350 C.2   101  ASP101      0.3671
    118  OD1      -42.1710   64.5560   52.7180 O.co2 101  ASP101     -0.2456
    119  OD2      -40.1380   64.9930   53.4150 O.co2 101  ASP101     -0.2456
    120  N        -44.1730   63.3780   50.9180 N.3   104  LYS104     -0.1245
    121  CA       -43.9490   62.0060   50.4630 C.3   104  LYS104      0.1561
    122  C        -45.1690   61.1380   50.7130 C.2   104  LYS104      0.2260
    123  O        -45.4290   60.1810   49.9750 O.2   104  LYS104     -0.2867
    124  CB       -42.7370   61.4030   51.1700 C.3   104  LYS104      0.0271
    125  CG       -41.4190   61.9320   50.6650 C.3   104  LYS104      0.0035
    126  CD       -40.2780   61.5770   51.5860 C.3   104  LYS104      0.0206
    127  CE       -38.9680   62.0780   51.0050 C.3   104  LYS104      0.1093
    128  NZ       -37.9820   62.4180   52.0670 N.3   104  LYS104     -0.1314
    129  N        -45.3040   73.8700   54.9520 N.3   141  LYS141     -0.1245
    130  CA       -45.6470   73.0890   53.7610 C.3   141  LYS141      0.1561
    131  C        -45.5210   71.5910   54.0720 C.2   141  LYS141      0.2260
    132  O        -44.8980   71.2260   55.0680 O.2   141  LYS141     -0.2867
    133  CB       -44.7540   73.4880   52.5800 C.3   141  LYS141      0.0271
    134  CG       -43.2560   73.4050   52.8420 C.3   141  LYS141      0.0035
    135  CD       -42.4830   74.1320   51.7550 C.3   141  LYS141      0.0206
    136  CE       -40.9960   74.1210   52.0370 C.3   141  LYS141      0.1093
    137  NZ       -40.2910   75.1230   51.2100 N.3   141  LYS141     -0.1314
    138  N        -43.7360   69.1670   52.9600 N.3   143  SER143     -0.1202
    139  CA       -42.3550   68.7010   53.0400 C.3   143  SER143      0.2020
    140  C        -41.6400   69.1710   54.2970 C.2   143  SER143      0.2618
    141  O        -40.5480   68.6940   54.6040 O.2   143  SER143     -0.2717
    142  CB       -41.5810   69.1360   51.7990 C.3   143  SER143      0.2103
    143  OG       -42.0460   70.3900   51.3310 O.3   143  SER143     -0.2182
    144  N        -42.2530   70.1030   55.0190 N.am  144  ASN144     -0.1974
    145  CA       -41.7220   70.5700   56.2980 C.3   144  ASN144      0.1688
    146  C        -42.4170   69.9460   57.5030 C.2   144  ASN144      0.2292
    147  O        -42.2220   70.3860   58.6370 O.2   144  ASN144     -0.2864
    148  CB       -41.7940   72.0940   56.3790 C.3   144  ASN144      0.1181
    149  CG       -40.5120   72.7550   55.9550 C.2   144  ASN144      0.2629
    150  OD1      -39.4200   72.2430   56.2170 O.2   144  ASN144     -0.2716
    151  ND2      -40.6270   73.9060   55.3020 N.am  144  ASN144     -0.0877
    152  N        -42.7040   66.4230   59.3070 N.3   146  LEU146     -0.1245
    153  CA       -42.1050   65.0900   59.3740 C.3   146  LEU146      0.1561
    154  C        -42.9280   64.1150   60.2050 C.2   146  LEU146      0.2260
    155  O        -43.3150   64.4360   61.3270 O.2   146  LEU146     -0.2867
    156  CB       -40.6880   65.1760   59.9540 C.3   146  LEU146      0.0270
    157  CG       -39.6920   66.1780   59.3600 C.3   146  LEU146      0.0019
    158  CD1      -38.5010   66.3200   60.2830 C.3   146  LEU146      0.0001
    159  CD2      -39.2480   65.7820   57.9550 C.3   146  LEU146      0.0001
    160  N        -40.7950   71.1410   61.0720 N.3   156  CYS156     -0.1221
    161  CA       -39.3470   71.3080   60.9370 C.3   156  CYS156      0.1808
    162  C        -38.9210   72.5190   60.1000 C.2   156  CYS156      0.2601
    163  O        -39.7530   73.1640   59.4530 O.2   156  CYS156     -0.2717
    164  CB       -38.7080   70.0280   60.3830 C.3   156  CYS156      0.0970
    165  SG       -38.8790   69.7920   58.5900 S.3   156  CYS156     -0.0800
    166  N        -37.6150   72.8020   60.1310 N.am  157  ASP157     -0.1973
    167  CA       -36.9750   73.8840   59.3620 C.3   157  ASP157      0.1709
    168  C        -37.4730   75.2870   59.7160 C.2   157  ASP157      0.2293
    169  O        -38.4930   75.7540   59.2060 O.2   157  ASP157     -0.2864
    170  CB       -37.0550   73.6210   57.8500 C.3   157  ASP157      0.1436
    171  CG       -36.4770   74.7600   57.0200 C.2   157  ASP157      0.3671
    172  OD1      -35.4660   75.3740   57.4390 O.co2 157  ASP157     -0.2456
    173  OD2      -37.0460   75.0430   55.9410 O.co2 157  ASP157     -0.2456
@<TRIPOS>BOND
     1    18    17    1
     2    18    19    1
     3    17    14    1
     4    19    21   ar
     5    19    20   ar
     6    14    13    1
     7    14    15    1
     8    13    11   am
     9    16    15    2
    10    15    22   am
    11   123   122    2
    12    25    24    2
    13    10    11    1
    14    10     9    1
    15    11    12    2
    16   121   122    1
    17   121   120    1
    18   121   124    1
    19   125   124    1
    20   125   126    1
    21    22    23    1
    22     4     3    2
    23   127   126    1
    24   127   128    1
    25    24    23    1
    26    24    26   am
    27   137   136    1
    28   143   142    1
    29     9     3   am
    30     3     2    1
    31   135   136    1
    32   135   134    1
    33   142   139    1
    34    27    26    1
    35    27    28    1
    36    27    30    1
    37    29    28    2
    38    28    31   am
    39   133   134    1
    40   133   130    1
    41   118   117   ar
    42     1     2    1
    43     2     5    1
    44   138   139    1
    45   139   140    1
    46    34    33    2
    47    33    32    1
    48    31    32    1
    49   119   117   ar
    50    43    44    1
    51   117   116    1
    52    46    45    2
    53    32    35    1
    54   130   131    1
    55   130   129    1
    56   115   114    2
    57     7     5    1
    58   131   132    2
    59     5     6    1
    60   110   109    1
    61   140   141    2
    62   140   144   am
    63    44    45    1
    64    44    47    1
    65    47    49    1
    66    47    48    1
    67   114   113    1
    68   144   145    1
    69   116   113    1
    70     6     8    1
    71    35    36    1
    72   151   149   am
    73   112   113    1
    74   112   107   am
    75   109   106    1
    76   109   111    1
    77   173   171   ar
    78    36    37   ar
    79    36    38   ar
    80   149   150    2
    81   149   148    1
    82    37    39   ar
    83   106   107    1
    84   106   105    1
    85   145   148    1
    86   145   146    1
    87   107   108    2
    88    38    40   ar
    89    39    41   ar
    90   171   172   ar
    91   171   170    1
    92    40    41   ar
    93    41    42    1
    94   146   147    2
    95   170   167    1
    96   159   157    1
    97    62    61    1
    98    62    63    1
    99    57    56    1
   100    57    58    2
   101    56    59    1
   102    56    55    1
   103    60    59    1
   104    60    61    1
   105   165   164    1
   106   100    99    2
   107   169   168    2
   108   152   153    1
   109   157   156    1
   110   157   158    1
   111   167   168    1
   112   167   166    1
   113   153   156    1
   114   153   154    1
   115   163   162    2
   116    99    98    1
   117    95    94    1
   118   162   166   am
   119   162   161    1
   120   154   155    2
   121   164   161    1
   122    54    51    1
   123   101    98    1
   124   101   102    1
   125   161   160    1
   126    94    96    1
   127    94    93    1
   128    98    97    1
   129    51    52    1
   130    51    50    1
   131    52    53    2
   132    97    91   am
   133    79    78    2
   134   102   103    1
   135    93    90    1
   136    91    90    1
   137    91    92    2
   138    90    89    1
   139    78    80   am
   140    78    77    1
   141   104   103    1
   142    84    83    2
   143    70    68    1
   144    77    76    1
   145    89    83   am
   146    76    73    1
   147    83    82    1
   148    69    68    1
   149    69    71    1
   150    68    65    1
   151    72    73    1
   152    75    74    2
   153    73    74    1
   154    74    81   am
   155    82    81    1
   156    82    85    1
   157    65    64    1
   158    65    66    1
   159    85    86    1
   160    67    66    2
   161    86    88   ar
   162    86    87   ar
