@<TRIPOS>MOLECULE
tmp/4iz9A00.pdb
 143 136 0 0 0
SMALL
GASTEIGER

@<TRIPOS>ATOM
      1  N          2.6110   42.1390    8.8040 N.3    10  ASN10      -0.1240
      2  CA         3.5000   41.0020    8.5600 C.3    10  ASN10       0.1653
      3  C          2.8430   39.8110    9.2270 C.2    10  ASN10       0.2266
      4  O          2.8890   39.6630   10.4470 O.2    10  ASN10      -0.2867
      5  CB         4.8850   41.2770    9.1500 C.3    10  ASN10       0.1155
      6  CG         5.9070   40.1720    8.8650 C.2    10  ASN10       0.2627
      7  OD1        5.6370   39.1820    8.1780 O.2    10  ASN10      -0.2716
      8  ND2        7.1030   40.3540    9.4120 N.am   10  ASN10      -0.0877
      9  N          2.3420   40.7440   13.0900 N.3    17  LYS17      -0.1245
     10  CA         2.9560   42.0220   13.4660 C.3    17  LYS17       0.1561
     11  C          2.3370   43.1560   12.6880 C.2    17  LYS17       0.2260
     12  O          1.9820   43.0040   11.5350 O.2    17  LYS17      -0.2867
     13  CB         4.4640   42.0330   13.1960 C.3    17  LYS17       0.0271
     14  CG         5.2330   40.8890   13.8090 C.3    17  LYS17       0.0035
     15  CD         6.7150   41.1060   13.6050 C.3    17  LYS17       0.0206
     16  CE         7.5240   39.9490   14.1590 C.3    17  LYS17       0.1093
     17  NZ         8.9780   40.2580   14.0800 N.3    17  LYS17      -0.1314
     18  N          3.3780   42.2940    3.8150 N.3    74  ARG74      -0.1245
     19  CA         4.6720   41.6570    3.5270 C.3    74  ARG74       0.1563
     20  C          4.4020   40.2520    3.0190 C.2    74  ARG74       0.2260
     21  O          3.8120   39.4340    3.7260 O.2    74  ARG74      -0.2867
     22  CB         5.5450   41.5930    4.7920 C.3    74  ARG74       0.0307
     23  CG         7.0430   41.3120    4.5750 C.3    74  ARG74       0.0489
     24  CD         7.4060   39.8380    4.6950 C.3    74  ARG74       0.2205
     25  NE         8.8510   39.6080    4.6980 N.pl3  74  ARG74      -0.0865
     26  CZ         9.6040   39.5010    5.7910 C.cat  74  ARG74       0.5346
     27  NH1        9.0560   39.5950    6.9930 N.pl3  74  ARG74       0.1354
     28  NH2       10.9140   39.2880    5.6860 N.pl3  74  ARG74       0.1354
     29  N         14.7890   39.0720    2.2520 N.3   163  HIS163     -0.1241
     30  CA        15.0790   40.3520    2.9200 C.3   163  HIS163      0.1621
     31  C         15.3360   41.4870    1.9320 C.2   163  HIS163      0.2264
     32  O         16.1480   42.3830    2.2130 O.2   163  HIS163     -0.2867
     33  CB        16.3010   40.2480    3.8460 C.3   163  HIS163      0.0745
     34  CG        16.1070   39.3590    5.0170 C.ar  163  HIS163      0.0817
     35  ND1       17.0310   38.3940    5.3670 N.ar  163  HIS163     -0.2268
     36  CD2       15.1180   39.2950    5.9390 C.ar  163  HIS163      0.1154
     37  CE1       16.6200   37.7720    6.4490 C.ar  163  HIS163      0.1986
     38  NE2       15.4650   38.2940    6.8160 N.ar  163  HIS163     -0.2212
     39  N         22.2450   41.4880    6.8820 N.3   191  HIS191     -0.1241
     40  CA        21.0120   41.5380    7.6510 C.3   191  HIS191      0.1621
     41  C         21.0300   40.3230    8.5700 C.2   191  HIS191      0.2264
     42  O         20.7740   39.1940    8.1190 O.2   191  HIS191     -0.2867
     43  CB        19.8180   41.4940    6.7050 C.3   191  HIS191      0.0745
     44  CG        18.4910   41.5210    7.3910 C.ar  191  HIS191      0.0817
     45  ND1       17.6520   42.6170    7.3430 N.ar  191  HIS191     -0.2268
     46  CD2       17.8410   40.5800    8.1180 C.ar  191  HIS191      0.1154
     47  CE1       16.5550   42.3550    8.0320 C.ar  191  HIS191      0.1986
     48  NE2       16.6590   41.1360    8.5320 N.ar  191  HIS191     -0.2212
     49  N         19.3410   38.9230   11.6890 N.3   193  GLY193     -0.1210
     50  CA        18.1550   39.0040   12.5610 C.3   193  GLY193      0.1956
     51  C         17.7810   37.5870   12.9670 C.2   193  GLY193      0.2611
     52  O         18.6370   36.8450   13.3710 O.2   193  GLY193     -0.2717
     53  N         16.5110   37.2180   12.8310 N.am  194  ASN194     -0.1974
     54  CA        16.0790   35.8400   13.0280 C.3   194  ASN194      0.1688
     55  C         16.5420   35.0510   11.8000 C.2   194  ASN194      0.2292
     56  O         17.3550   34.1530   11.9090 O.2   194  ASN194     -0.2864
     57  CB        14.5520   35.7550   13.2010 C.3   194  ASN194      0.1181
     58  CG        14.0310   34.3330   13.0860 C.2   194  ASN194      0.2629
     59  OD1       14.5890   33.3880   13.6760 O.2   194  ASN194     -0.2716
     60  ND2       12.9660   34.1670   12.3060 N.am  194  ASN194     -0.0877
     61  N         17.8180   30.1410   20.5670 N.3   264  ARG264     -0.1231
     62  CA        17.7870   30.8290   19.2670 C.3   264  ARG264      0.1694
     63  C         18.1700   32.2930   19.4030 C.2   264  ARG264      0.2592
     64  O         18.6740   32.8920   18.4530 O.2   264  ARG264     -0.2718
     65  CB        16.4190   30.6840   18.5840 C.3   264  ARG264      0.0321
     66  CG        15.2820   31.4820   19.2000 C.3   264  ARG264      0.0489
     67  CD        13.9360   31.1150   18.5620 C.3   264  ARG264      0.2205
     68  NE        13.7740   31.6920   17.2210 N.pl3 264  ARG264     -0.0865
     69  CZ        12.7560   31.4290   16.3860 C.cat 264  ARG264      0.5346
     70  NH1       11.7860   30.5770   16.7220 N.pl3 264  ARG264      0.1354
     71  NH2       12.7100   32.0130   15.1900 N.pl3 264  ARG264      0.1354
     72  N         17.9510   32.8480   20.5900 N.am  265  ASP265     -0.1960
     73  CA        18.1880   34.2610   20.8640 C.3   265  ASP265      0.1840
     74  C         19.6460   34.5310   21.1840 C.2   265  ASP265      0.2622
     75  O         20.1970   33.9310   22.0900 O.2   265  ASP265     -0.2715
     76  CB        17.3050   34.6910   22.0510 C.3   265  ASP265      0.1450
     77  CG        17.3180   36.1850   22.2580 C.2   265  ASP265      0.3671
     78  OD1       18.2480   36.6880   22.8910 O.co2 265  ASP265     -0.2456
     79  OD2       16.4130   36.8590   21.7330 O.co2 265  ASP265     -0.2456
     80  N         20.2810   35.4440   20.4560 N.am  266  PHE266     -0.1960
     81  CA        21.7190   35.7130   20.6370 C.3   266  PHE266      0.1771
     82  C         22.1260   36.2960   21.9750 C.2   266  PHE266      0.2619
     83  O         23.2730   36.1490   22.3900 O.2   266  PHE266     -0.2715
     84  CB        22.2750   36.6180   19.5040 C.3   266  PHE266      0.0574
     85  CG        22.9000   35.8440   18.3970 C.ar  266  PHE266     -0.0200
     86  CD1       22.1700   34.8900   17.7430 C.ar  266  PHE266     -0.0042
     87  CD2       24.2420   36.0320   18.0470 C.ar  266  PHE266     -0.0042
     88  CE1       22.7340   34.1450   16.7180 C.ar  266  PHE266     -0.0003
     89  CE2       24.8150   35.2780   17.0460 C.ar  266  PHE266     -0.0003
     90  CZ        24.0590   34.3390   16.3750 C.ar  266  PHE266     -0.0000
     91  N         21.2080   36.9870   22.6550 N.am  267  ARG267     -0.1977
     92  CA        21.5320   37.4820   24.0050 C.3   267  ARG267      0.1597
     93  C         21.6570   36.2990   24.9590 C.2   267  ARG267      0.2287
     94  O         22.5820   36.2230   25.7560 O.2   267  ARG267     -0.2864
     95  CB        20.4670   38.4680   24.4890 C.3   267  ARG267      0.0334
     96  CG        20.4390   39.7310   23.6600 C.3   267  ARG267      0.0492
     97  CD        19.1720   40.5100   23.8940 C.3   267  ARG267      0.2205
     98  NE        18.0490   39.8450   23.2460 N.pl3 267  ARG267     -0.0865
     99  CZ        16.9040   40.4360   22.9430 C.cat 267  ARG267      0.5346
    100  NH1       15.9520   39.7390   22.3420 N.pl3 267  ARG267      0.1354
    101  NH2       16.7080   41.7220   23.2190 N.pl3 267  ARG267      0.1354
    102  N         19.7590   44.8130   11.1980 N.3   312  ALA312     -0.1231
    103  CA        18.7970   43.9550   11.9250 C.3   312  ALA312      0.1694
    104  C         19.2130   43.6800   13.3810 C.2   312  ALA312      0.2593
    105  O         20.1770   44.2750   13.9000 O.2   312  ALA312     -0.2718
    106  CB        18.4960   42.6680   11.1320 C.3   312  ALA312      0.0304
    107  N         18.4750   42.8060   14.0540 N.am  313  GLY313     -0.1942
    108  CA        18.5390   42.7170   15.5250 C.3   313  GLY313      0.2014
    109  C         19.9070   42.3700   16.0720 C.2   313  GLY313      0.2638
    110  O         20.3690   42.9690   17.0410 O.2   313  GLY313     -0.2714
    111  N         20.5780   41.4330   15.4110 N.am  314  ILE314     -0.1977
    112  CA        21.9410   41.0990   15.7610 C.3   314  ILE314      0.1596
    113  C         22.9410   42.1210   15.2120 C.2   314  ILE314      0.2287
    114  O         23.8570   42.5670   15.9300 O.2   314  ILE314     -0.2864
    115  CB        22.2900   39.6760   15.2550 C.3   314  ILE314      0.0276
    116  CG1       21.3310   38.6820   15.8460 C.3   314  ILE314      0.0022
    117  CG2       23.7160   39.3210   15.5960 C.3   314  ILE314      0.0022
    118  CD1       21.3790   37.3190   15.1670 C.3   314  ILE314      0.0001
    119  N         23.1040   45.4700   17.1080 N.3   317  ASN317     -0.1225
    120  CA        23.3230   45.4950   18.5340 C.3   317  ASN317      0.1785
    121  C         24.4780   44.6330   19.0560 C.2   317  ASN317      0.2597
    122  O         25.0260   44.9340   20.1040 O.2   317  ASN317     -0.2718
    123  CB        22.0270   45.0850   19.2160 C.3   317  ASN317      0.1169
    124  CG        20.8840   46.0340   18.8950 C.2   317  ASN317      0.2627
    125  OD1       21.0080   47.2460   19.1120 O.2   317  ASN317     -0.2716
    126  ND2       19.7970   45.5130   18.3430 N.am  317  ASN317     -0.0877
    127  N         24.8350   43.5430   18.3630 N.am  318  ASP318     -0.1974
    128  CA        25.8250   42.6070   18.9250 C.3   318  ASP318      0.1709
    129  C         27.2400   42.9490   18.4990 C.2   318  ASP318      0.2293
    130  O         27.7080   42.5530   17.4250 O.2   318  ASP318     -0.2864
    131  CB        25.4520   41.1750   18.5600 C.3   318  ASP318      0.1436
    132  CG        26.1840   40.1380   19.4030 C.2   318  ASP318      0.3671
    133  OD1       27.3940   40.3070   19.6510 O.co2 318  ASP318     -0.2456
    134  OD2       25.5340   39.1350   19.7670 O.co2 318  ASP318     -0.2456
    135  N         12.0990   48.1660    7.7210 N.3   367  GLU367     -0.1245
    136  CA        11.3770   47.5340    6.6360 C.3   367  GLU367      0.1567
    137  C          9.9300   48.0750    6.5100 C.2   367  GLU367      0.2260
    138  O          9.4060   48.2320    5.4120 O.2   367  GLU367     -0.2867
    139  CB        11.3650   46.0370    6.8700 C.3   367  GLU367      0.0388
    140  CG        12.7520   45.4400    6.6670 C.3   367  GLU367      0.1160
    141  CD        12.9110   44.1410    7.4160 C.2   367  GLU367      0.3649
    142  OE1       13.1410   44.2310    8.6410 O.co2 367  GLU367     -0.2457
    143  OE2       12.8140   43.0690    6.7680 O.co2 367  GLU367     -0.2457
@<TRIPOS>BOND
     1    31    32    2
     2    31    30    1
     3    29    30    1
     4    30    33    1
     5    20    19    1
     6    20    21    2
     7    19    18    1
     8    19    22    1
     9    33    34    1
    10    23    24    1
    11    23    22    1
    12    24    25    1
    13    25    26    2
    14    34    35   ar
    15    34    36   ar
    16    35    37   ar
    17   138   137    2
    18    28    26    1
    19    26    27    1
    20    36    38   ar
    21    37    38   ar
    22   137   136    1
    23   136   139    1
    24   136   135    1
    25   140   139    1
    26   140   141    1
    27    43    44    1
    28    43    40    1
    29   143   141   ar
    30    39    40    1
    31    45    44   ar
    32    45    47   ar
    33    44    46   ar
    34   141   142   ar
    35    40    41    1
    36    47    48   ar
    37    46    48   ar
    38    42    41    2
    39     7     6    2
    40     2     1    1
    41     2     5    1
    42     2     3    1
    43     6     5    1
    44     6     8   am
    45     3     4    2
    46   106   103    1
    47   102   103    1
    48    12    11    2
    49    49    50    1
    50    55    56    2
    51    55    54    1
    52   103   104    1
    53    60    58   am
    54    50    51    1
    55    11    10    1
    56    53    51   am
    57    53    54    1
    58    51    52    2
    59    54    57    1
    60    58    57    1
    61    58    59    2
    62     9    10    1
    63    13    10    1
    64    13    14    1
    65   104   105    2
    66   104   107   am
    67    15    14    1
    68    15    16    1
    69   107   108    1
    70    17    16    1
    71   118   116    1
    72    71    69    1
    73   113   112    1
    74   113   114    2
    75   115   117    1
    76   115   112    1
    77   115   116    1
    78   111   112    1
    79   111   109   am
    80   108   109    1
    81   109   110    2
    82    90    88   ar
    83    90    89   ar
    84    69    70    1
    85    69    68    2
    86    88    86   ar
    87    89    87   ar
    88   119   120    1
    89    68    67    1
    90   130   129    2
    91    86    85   ar
    92    87    85   ar
    93   126   124   am
    94   127   128    1
    95   127   121   am
    96    85    84    1
    97    64    63    2
    98   129   128    1
    99   120   121    1
   100   120   123    1
   101   131   128    1
   102   131   132    1
   103    67    66    1
   104    65    66    1
   105    65    62    1
   106   124   125    2
   107   124   123    1
   108   121   122    2
   109    62    63    1
   110    62    61    1
   111    63    72   am
   112   132   133   ar
   113   132   134   ar
   114    84    81    1
   115    80    81    1
   116    80    74   am
   117    72    73    1
   118    81    82    1
   119    73    74    1
   120    73    76    1
   121    74    75    2
   122    79    77   ar
   123    82    83    2
   124    82    91   am
   125    76    77    1
   126    77    78   ar
   127   100    99    1
   128    91    92    1
   129    99   101    1
   130    99    98    2
   131    98    97    1
   132    96    97    1
   133    96    95    1
   134    92    95    1
   135    92    93    1
   136    93    94    2
