@<TRIPOS>MOLECULE
tmp/4iz9A01.pdb
 103 96 0 0 0
SMALL
GASTEIGER

@<TRIPOS>ATOM
      1  N          2.6110   42.1390    8.8040 N.3    10  ASN10      -0.1240
      2  CA         3.5000   41.0020    8.5600 C.3    10  ASN10       0.1653
      3  C          2.8430   39.8110    9.2270 C.2    10  ASN10       0.2266
      4  O          2.8890   39.6630   10.4470 O.2    10  ASN10      -0.2867
      5  CB         4.8850   41.2770    9.1500 C.3    10  ASN10       0.1155
      6  CG         5.9070   40.1720    8.8650 C.2    10  ASN10       0.2627
      7  OD1        5.6370   39.1820    8.1780 O.2    10  ASN10      -0.2716
      8  ND2        7.1030   40.3540    9.4120 N.am   10  ASN10      -0.0877
      9  N          2.3420   40.7440   13.0900 N.3    17  LYS17      -0.1245
     10  CA         2.9560   42.0220   13.4660 C.3    17  LYS17       0.1561
     11  C          2.3370   43.1560   12.6880 C.2    17  LYS17       0.2260
     12  O          1.9820   43.0040   11.5350 O.2    17  LYS17      -0.2867
     13  CB         4.4640   42.0330   13.1960 C.3    17  LYS17       0.0271
     14  CG         5.2330   40.8890   13.8090 C.3    17  LYS17       0.0035
     15  CD         6.7150   41.1060   13.6050 C.3    17  LYS17       0.0206
     16  CE         7.5240   39.9490   14.1590 C.3    17  LYS17       0.1093
     17  NZ         8.9780   40.2580   14.0800 N.3    17  LYS17      -0.1314
     18  N          3.3780   42.2940    3.8150 N.3    74  ARG74      -0.1245
     19  CA         4.6720   41.6570    3.5270 C.3    74  ARG74       0.1563
     20  C          4.4020   40.2520    3.0190 C.2    74  ARG74       0.2260
     21  O          3.8120   39.4340    3.7260 O.2    74  ARG74      -0.2867
     22  CB         5.5450   41.5930    4.7920 C.3    74  ARG74       0.0307
     23  CG         7.0430   41.3120    4.5750 C.3    74  ARG74       0.0489
     24  CD         7.4060   39.8380    4.6950 C.3    74  ARG74       0.2205
     25  NE         8.8510   39.6080    4.6980 N.pl3  74  ARG74      -0.0865
     26  CZ         9.6040   39.5010    5.7910 C.cat  74  ARG74       0.5346
     27  NH1        9.0560   39.5950    6.9930 N.pl3  74  ARG74       0.1354
     28  NH2       10.9140   39.2880    5.6860 N.pl3  74  ARG74       0.1354
     29  N          6.2360   29.9800    4.1910 N.3   106  HIS106     -0.1241
     30  CA         6.1320   31.4230    4.4180 C.3   106  HIS106      0.1621
     31  C          4.9310   32.1570    3.8010 C.2   106  HIS106      0.2264
     32  O          4.5060   33.1600    4.3430 O.2   106  HIS106     -0.2867
     33  CB         7.4200   32.0850    3.9310 C.3   106  HIS106      0.0745
     34  CG         8.6430   31.6320    4.6650 C.ar  106  HIS106      0.0817
     35  ND1        9.3790   30.5330    4.2730 N.ar  106  HIS106     -0.2268
     36  CD2        9.2590   32.1310    5.7630 C.ar  106  HIS106      0.1154
     37  CE1       10.3900   30.3680    5.1120 C.ar  106  HIS106      0.1986
     38  NE2       10.3420   31.3280    6.0190 N.ar  106  HIS106     -0.2212
     39  N         14.7890   39.0720    2.2520 N.3   163  HIS163     -0.1241
     40  CA        15.0790   40.3520    2.9200 C.3   163  HIS163      0.1621
     41  C         15.3360   41.4870    1.9320 C.2   163  HIS163      0.2264
     42  O         16.1480   42.3830    2.2130 O.2   163  HIS163     -0.2867
     43  CB        16.3010   40.2480    3.8460 C.3   163  HIS163      0.0745
     44  CG        16.1070   39.3590    5.0170 C.ar  163  HIS163      0.0817
     45  ND1       17.0310   38.3940    5.3670 N.ar  163  HIS163     -0.2268
     46  CD2       15.1180   39.2950    5.9390 C.ar  163  HIS163      0.1154
     47  CE1       16.6200   37.7720    6.4490 C.ar  163  HIS163      0.1986
     48  NE2       15.4650   38.2940    6.8160 N.ar  163  HIS163     -0.2212
     49  N         22.2450   41.4880    6.8820 N.3   191  HIS191     -0.1241
     50  CA        21.0120   41.5380    7.6510 C.3   191  HIS191      0.1621
     51  C         21.0300   40.3230    8.5700 C.2   191  HIS191      0.2264
     52  O         20.7740   39.1940    8.1190 O.2   191  HIS191     -0.2867
     53  CB        19.8180   41.4940    6.7050 C.3   191  HIS191      0.0745
     54  CG        18.4910   41.5210    7.3910 C.ar  191  HIS191      0.0817
     55  ND1       17.6520   42.6170    7.3430 N.ar  191  HIS191     -0.2268
     56  CD2       17.8410   40.5800    8.1180 C.ar  191  HIS191      0.1154
     57  CE1       16.5550   42.3550    8.0320 C.ar  191  HIS191      0.1986
     58  NE2       16.6590   41.1360    8.5320 N.ar  191  HIS191     -0.2212
     59  N         19.3410   38.9230   11.6890 N.3   193  GLY193     -0.1210
     60  CA        18.1550   39.0040   12.5610 C.3   193  GLY193      0.1956
     61  C         17.7810   37.5870   12.9670 C.2   193  GLY193      0.2612
     62  O         18.6370   36.8450   13.3710 O.2   193  GLY193     -0.2717
     63  N         16.5110   37.2180   12.8310 N.am  194  ASN194     -0.1960
     64  CA        16.0790   35.8400   13.0280 C.3   194  ASN194      0.1819
     65  C         16.5420   35.0510   11.8000 C.2   194  ASN194      0.2621
     66  O         17.3550   34.1530   11.9090 O.2   194  ASN194     -0.2715
     67  CB        14.5520   35.7550   13.2010 C.3   194  ASN194      0.1195
     68  CG        14.0310   34.3330   13.0860 C.2   194  ASN194      0.2630
     69  OD1       14.5890   33.3880   13.6760 O.2   194  ASN194     -0.2716
     70  ND2       12.9660   34.1670   12.3060 N.am  194  ASN194     -0.0877
     71  N         15.9910   35.3790   10.6350 N.am  195  GLY195     -0.1954
     72  CA        16.6560   35.1110    9.3530 C.3   195  GLY195      0.1869
     73  C         17.9700   35.8950    9.2670 C.2   195  GLY195      0.2309
     74  O         18.0500   37.0100    9.7700 O.2   195  GLY195     -0.2863
     75  N         17.5900   28.0060   11.3680 N.3   224  ARG224     -0.1245
     76  CA        17.8170   27.4930    9.9950 C.3   224  ARG224      0.1563
     77  C         19.2780   27.1430    9.7840 C.2   224  ARG224      0.2260
     78  O         20.1580   27.8510   10.2730 O.2   224  ARG224     -0.2867
     79  CB        17.3840   28.5410    8.9570 C.3   224  ARG224      0.0307
     80  CG        15.8700   28.7000    8.8920 C.3   224  ARG224      0.0489
     81  CD        15.3620   29.6870    7.8620 C.3   224  ARG224      0.2205
     82  NE        14.7190   30.7620    8.5850 N.pl3 224  ARG224     -0.0865
     83  CZ        14.4940   32.0030    8.1640 C.cat 224  ARG224      0.5346
     84  NH1       14.8620   32.4180    6.9730 N.pl3 224  ARG224      0.1354
     85  NH2       13.8940   32.8500    9.0000 N.pl3 224  ARG224      0.1354
     86  N         19.7590   44.8130   11.1980 N.3   312  ALA312     -0.1231
     87  CA        18.7970   43.9550   11.9250 C.3   312  ALA312      0.1694
     88  C         19.2130   43.6800   13.3810 C.2   312  ALA312      0.2592
     89  O         20.1770   44.2750   13.9000 O.2   312  ALA312     -0.2718
     90  CB        18.4960   42.6680   11.1320 C.3   312  ALA312      0.0304
     91  N         18.4750   42.8060   14.0540 N.am  313  GLY313     -0.1957
     92  CA        18.5390   42.7170   15.5250 C.3   313  GLY313      0.1869
     93  C         19.9070   42.3700   16.0720 C.2   313  GLY313      0.2309
     94  O         20.3690   42.9690   17.0410 O.2   313  GLY313     -0.2863
     95  N         12.0990   48.1660    7.7210 N.3   367  GLU367     -0.1245
     96  CA        11.3770   47.5340    6.6360 C.3   367  GLU367      0.1567
     97  C          9.9300   48.0750    6.5100 C.2   367  GLU367      0.2260
     98  O          9.4060   48.2320    5.4120 O.2   367  GLU367     -0.2867
     99  CB        11.3650   46.0370    6.8700 C.3   367  GLU367      0.0388
    100  CG        12.7520   45.4400    6.6670 C.3   367  GLU367      0.1160
    101  CD        12.9110   44.1410    7.4160 C.2   367  GLU367      0.3649
    102  OE1       13.1410   44.2310    8.6410 O.co2 367  GLU367     -0.2457
    103  OE2       12.8140   43.0690    6.7680 O.co2 367  GLU367     -0.2457
@<TRIPOS>BOND
     1    41    42    2
     2    41    40    1
     3    39    40    1
     4    40    43    1
     5    20    19    1
     6    20    21    2
     7    19    18    1
     8    19    22    1
     9    31    32    2
    10    31    30    1
    11    43    44    1
    12    33    30    1
    13    33    34    1
    14    29    30    1
    15    35    34   ar
    16    35    37   ar
    17    23    24    1
    18    23    22    1
    19    34    36   ar
    20    24    25    1
    21    25    26    2
    22    44    45   ar
    23    44    46   ar
    24    37    38   ar
    25    45    47   ar
    26    98    97    2
    27    28    26    1
    28    36    38   ar
    29    26    27    1
    30    46    48   ar
    31    47    48   ar
    32    97    96    1
    33    96    99    1
    34    96    95    1
    35   100    99    1
    36   100   101    1
    37    53    54    1
    38    53    50    1
    39   103   101   ar
    40    49    50    1
    41    84    83    1
    42    55    54   ar
    43    55    57   ar
    44    54    56   ar
    45   101   102   ar
    46    50    51    1
    47    81    82    1
    48    81    80    1
    49    57    58   ar
    50    56    58   ar
    51    52    51    2
    52    83    82    2
    53    83    85    1
    54     7     6    2
    55     2     1    1
    56     2     5    1
    57     2     3    1
    58     6     5    1
    59     6     8   am
    60    80    79    1
    61    79    76    1
    62     3     4    2
    63    73    72    1
    64    73    74    2
    65    72    71    1
    66    77    76    1
    67    77    78    2
    68    76    75    1
    69    71    65   am
    70    90    87    1
    71    86    87    1
    72    12    11    2
    73    59    60    1
    74    65    66    2
    75    65    64    1
    76    87    88    1
    77    70    68   am
    78    60    61    1
    79    11    10    1
    80    63    61   am
    81    63    64    1
    82    61    62    2
    83    64    67    1
    84    68    67    1
    85    68    69    2
    86     9    10    1
    87    13    10    1
    88    13    14    1
    89    88    89    2
    90    88    91   am
    91    15    14    1
    92    15    16    1
    93    91    92    1
    94    17    16    1
    95    92    93    1
    96    93    94    2
