@<TRIPOS>MOLECULE
tmp/4izcB00.pdb
 203 196 0 0 0
SMALL
GASTEIGER

@<TRIPOS>ATOM
      1  N        106.4860    4.5660   53.9570 N.3    29  ASP29      -0.1225
      2  CA       106.8360    5.0270   55.3000 C.3    29  ASP29       0.1805
      3  C        106.8340    6.5400   55.3930 C.2    29  ASP29       0.2598
      4  O        106.9410    7.0960   56.4850 O.2    29  ASP29      -0.2718
      5  CB       108.2070    4.5000   55.7390 C.3    29  ASP29       0.1424
      6  CG       108.2480    2.9840   55.8290 C.2    29  ASP29       0.3668
      7  OD1      107.2360    2.3760   56.2500 O.co2  29  ASP29      -0.2456
      8  OD2      109.3010    2.4030   55.4890 O.co2  29  ASP29      -0.2456
      9  N        106.7310    7.2020   54.2400 N.am   30  LYS30      -0.1966
     10  CA       106.6720    8.6600   54.1870 C.3    30  LYS30       0.1728
     11  C        105.3150    9.0430   53.5810 C.2    30  LYS30       0.2616
     12  O        105.0890   10.2000   53.2150 O.2    30  LYS30      -0.2715
     13  CB       107.8110    9.2160   53.3270 C.3    30  LYS30       0.0311
     14  CG       109.1950    8.9310   53.8890 C.3    30  LYS30       0.0038
     15  CD       109.4020    9.6230   55.2200 C.3    30  LYS30       0.0206
     16  CE       110.7730    9.2930   55.8090 C.3    30  LYS30       0.1093
     17  NZ       110.9830    9.9790   57.1030 N.3    30  LYS30      -0.1314
     18  N        104.4200    8.0580   53.4940 N.am   31  ARG31      -0.1977
     19  CA       103.0760    8.2510   52.9540 C.3    31  ARG31       0.1597
     20  C        103.1490    8.7820   51.5140 C.2    31  ARG31       0.2287
     21  O        102.3170    9.5990   51.0780 O.2    31  ARG31      -0.2864
     22  CB       102.2740    9.2130   53.8470 C.3    31  ARG31       0.0334
     23  CG       102.1460    8.7420   55.3230 C.3    31  ARG31       0.0492
     24  CD       101.4320    7.3900   55.3750 C.3    31  ARG31       0.2205
     25  NE       101.2360    6.9450   56.7520 N.pl3  31  ARG31      -0.0865
     26  CZ       102.0600    6.1360   57.4140 C.cat  31  ARG31       0.5346
     27  NH1      103.1500    5.6570   56.8260 N.pl3  31  ARG31       0.1354
     28  NH2      101.8090    5.8320   58.6880 N.pl3  31  ARG31       0.1354
     29  N        105.0330   10.9000   50.0560 N.3    33  ALA33      -0.1245
     30  CA       105.2040   12.3340   49.8790 C.3    33  ALA33       0.1562
     31  C        106.0640   12.5760   48.6400 C.2    33  ALA33       0.2260
     32  O        107.0440   11.8720   48.3840 O.2    33  ALA33      -0.2867
     33  CB       105.8650   12.9440   51.1030 C.3    33  ALA33       0.0290
     34  N         97.9160    4.8480   52.1870 N.3    65  HIS65      -0.1241
     35  CA        97.5720    6.1890   51.7300 C.3    65  HIS65       0.1621
     36  C         98.1550    6.5110   50.3580 C.2    65  HIS65       0.2264
     37  O         99.3610    6.4240   50.1610 O.2    65  HIS65      -0.2867
     38  CB        98.0760    7.1970   52.7580 C.3    65  HIS65       0.0745
     39  CG        97.4790    7.0030   54.1130 C.ar   65  HIS65       0.0817
     40  ND1       96.2400    7.5030   54.4560 N.ar   65  HIS65      -0.2268
     41  CD2       97.9110    6.2920   55.1830 C.ar   65  HIS65       0.1154
     42  CE1       95.9320    7.1040   55.6780 C.ar   65  HIS65       0.1986
     43  NE2       96.9280    6.3670   56.1400 N.ar   65  HIS65      -0.2212
     44  N        100.5000   11.8540   50.3150 N.3    68  ALA68      -0.1245
     45  CA       100.3890   12.9420   51.2890 C.3    68  ALA68       0.1562
     46  C        100.7640   14.3210   50.7380 C.2    68  ALA68       0.2260
     47  O        100.7860   15.2970   51.4870 O.2    68  ALA68      -0.2867
     48  CB       101.2570   12.6350   52.4980 C.3    68  ALA68       0.0290
     49  N        103.1840   17.3310   48.7860 N.3    70  LEU70      -0.1231
     50  CA       104.5620   17.8500   48.8200 C.3    70  LEU70       0.1693
     51  C        105.2790   17.2680   50.0190 C.2    70  LEU70       0.2592
     52  O        104.6780   17.1460   51.0880 O.2    70  LEU70      -0.2718
     53  CB       104.5580   19.3720   48.9820 C.3    70  LEU70       0.0284
     54  CG       105.8800   20.1150   49.2410 C.3    70  LEU70       0.0019
     55  CD1      106.8000   19.9870   48.0290 C.3    70  LEU70       0.0001
     56  CD2      105.6020   21.5930   49.5210 C.3    70  LEU70       0.0001
     57  N        106.5480   16.9060   49.8450 N.am   71  ASP71      -0.1960
     58  CA       107.3270   16.3970   50.9730 C.3    71  ASP71       0.1840
     59  C        107.6480   17.6450   51.7930 C.2    71  ASP71       0.2622
     60  O        108.5570   18.4130   51.4560 O.2    71  ASP71      -0.2715
     61  CB       108.6160   15.7350   50.4870 C.3    71  ASP71       0.1450
     62  CG       109.4270   15.1440   51.6250 C.2    71  ASP71       0.3671
     63  OD1      109.3870   15.7080   52.7390 O.co2  71  ASP71      -0.2456
     64  OD2      110.1090   14.1290   51.3940 O.co2  71  ASP71      -0.2456
     65  N        106.8800   17.8330   52.8650 N.am   72  LEU72      -0.1963
     66  CA       106.9790   19.0040   53.7280 C.3    72  LEU72       0.1728
     67  C        108.2520   19.1180   54.5340 C.2    72  LEU72       0.2616
     68  O        108.6740   20.2180   54.8740 O.2    72  LEU72      -0.2715
     69  CB       105.7780   19.0450   54.6770 C.3    72  LEU72       0.0311
     70  CG       104.4090   19.2210   53.9990 C.3    72  LEU72       0.0022
     71  CD1      103.2900   18.9160   55.0100 C.3    72  LEU72       0.0001
     72  CD2      104.2870   20.6540   53.4650 C.3    72  LEU72       0.0001
     73  N        108.8330   17.9720   54.8530 N.am   73  VAL73      -0.1977
     74  CA       110.0610   17.9260   55.6260 C.3    73  VAL73       0.1596
     75  C        111.2320   18.3520   54.7500 C.2    73  VAL73       0.2287
     76  O        112.0500   19.1760   55.1730 O.2    73  VAL73      -0.2864
     77  CB       110.2780   16.5130   56.2020 C.3    73  VAL73       0.0276
     78  CG1      111.6330   16.4180   56.9230 C.3    73  VAL73       0.0022
     79  CG2      109.1560   16.2080   57.1700 C.3    73  VAL73       0.0022
     80  N        111.9070   27.4910   44.9250 N.3    85  PHE85      -0.1241
     81  CA       110.6590   26.7370   44.9810 C.3    85  PHE85       0.1605
     82  C        109.8030   26.9160   43.7360 C.2    85  PHE85       0.2264
     83  O        109.1090   25.9920   43.3440 O.2    85  PHE85      -0.2867
     84  CB       109.8360   27.0820   46.2210 C.3    85  PHE85       0.0534
     85  CG       108.6850   26.1430   46.4320 C.ar   85  PHE85      -0.0203
     86  CD1      108.9170   24.7840   46.6440 C.ar   85  PHE85      -0.0042
     87  CD2      107.3760   26.5920   46.3270 C.ar   85  PHE85      -0.0042
     88  CE1      107.8590   23.8790   46.7390 C.ar   85  PHE85      -0.0003
     89  CE2      106.3030   25.6990   46.4210 C.ar   85  PHE85      -0.0003
     90  CZ       106.5490   24.3400   46.6250 C.ar   85  PHE85      -0.0000
     91  N        108.1960   23.8840   41.5390 N.3    89  CYS89      -0.1235
     92  CA       106.8240   23.7930   41.0530 C.3    89  CYS89       0.1677
     93  C        106.7840   23.5580   39.5490 C.2    89  CYS89       0.2270
     94  O        105.9080   22.8460   39.0450 O.2    89  CYS89      -0.2867
     95  CB       106.0370   25.0490   41.4280 C.3    89  CYS89       0.0956
     96  SG       105.7100   25.1590   43.2290 S.3    89  CYS89      -0.0801
     97  N        107.0570   19.9470   38.8960 N.3    92  TRP92      -0.1241
     98  CA       105.7960   19.2430   39.1410 C.3    92  TRP92       0.1605
     99  C        104.9340   19.3720   37.8830 C.2    92  TRP92       0.2264
    100  O        104.2970   18.4170   37.4350 O.2    92  TRP92      -0.2867
    101  CB       105.0370   19.8730   40.3110 C.3    92  TRP92       0.0550
    102  CG       105.4920   19.4430   41.6840 C.ar   92  TRP92       0.0003
    103  CD1      106.7550   19.5460   42.2130 C.ar   92  TRP92       0.0946
    104  CD2      104.6610   18.9060   42.7250 C.ar   92  TRP92       0.0152
    105  NE1      106.7550   19.1090   43.5320 N.ar   92  TRP92      -0.2442
    106  CE2      105.4860   18.7090   43.8660 C.ar   92  TRP92       0.0810
    107  CE3      103.2990   18.5720   42.8040 C.ar   92  TRP92       0.0012
    108  CZ2      104.9900   18.1890   45.0730 C.ar   92  TRP92       0.0191
    109  CZ3      102.8000   18.0560   44.0080 C.ar   92  TRP92       0.0001
    110  CH2      103.6480   17.8700   45.1250 C.ar   92  TRP92       0.0015
    111  N         94.4090    8.7330   52.3600 N.3   113  ALA113     -0.1245
    112  CA        94.6540   10.1400   52.1020 C.3   113  ALA113      0.1562
    113  C         95.0930   10.4790   50.6800 C.2   113  ALA113      0.2260
    114  O         96.0880    9.9380   50.1830 O.2   113  ALA113     -0.2867
    115  CB        95.6960   10.6600   53.0840 C.3   113  ALA113      0.0290
    116  N         95.6580   13.9740   49.5350 N.3   115  VAL115     -0.1231
    117  CA        95.6800   15.3370   50.0440 C.3   115  VAL115      0.1692
    118  C         96.7350   16.3010   49.5230 C.2   115  VAL115      0.2593
    119  O         97.8740   15.9130   49.2950 O.2   115  VAL115     -0.2718
    120  CB        95.7850   15.2830   51.5930 C.3   115  VAL115      0.0266
    121  CG1       94.5840   14.5070   52.1500 C.3   115  VAL115      0.0020
    122  CG2       97.0980   14.5900   52.0220 C.3   115  VAL115      0.0020
    123  N         96.3360   17.5700   49.3720 N.am  116  GLY116     -0.1942
    124  CA        97.2550   18.6010   48.8960 C.3   116  GLY116      0.2014
    125  C         97.8020   18.2240   47.5350 C.2   116  GLY116      0.2639
    126  O         97.0220   17.9510   46.6300 O.2   116  GLY116     -0.2714
    127  N         99.1270   18.2250   47.3910 N.am  117  GLY117     -0.1954
    128  CA        99.7340   17.8500   46.1220 C.3   117  GLY117      0.1869
    129  C         99.3890   16.4220   45.7310 C.2   117  GLY117      0.2309
    130  O         99.5940   16.0260   44.5840 O.2   117  GLY117     -0.2863
    131  N         89.8930    9.5820   51.3520 N.3   135  TYR135     -0.1241
    132  CA        89.3730   10.8920   51.7200 C.3   135  TYR135      0.1605
    133  C         90.2090   11.9630   51.0240 C.2   135  TYR135      0.2264
    134  O         91.3860   11.7390   50.7090 O.2   135  TYR135     -0.2867
    135  CB        89.3240   11.0930   53.2400 C.3   135  TYR135      0.0534
    136  CG        90.6300   11.0090   53.9780 C.ar  135  TYR135     -0.0201
    137  CD1       91.2890   12.1620   54.3950 C.ar  135  TYR135     -0.0009
    138  CD2       91.1600    9.7740   54.3520 C.ar  135  TYR135     -0.0009
    139  CE1       92.4430   12.0930   55.1840 C.ar  135  TYR135      0.0417
    140  CE2       92.3090    9.6930   55.1350 C.ar  135  TYR135      0.0417
    141  CZ        92.9380   10.8550   55.5500 C.ar  135  TYR135      0.1957
    142  OH        94.0470   10.7790   56.3530 O.3   135  TYR135     -0.2866
    143  N         94.7980   20.6630   52.4660 N.3   139  PRO139     -0.2102
    144  CA        95.1650   21.2060   53.7780 C.3   139  PRO139      0.1504
    145  C         96.3150   22.1950   53.7690 C.2   139  PRO139      0.2575
    146  O         96.8230   22.5660   54.8220 O.2   139  PRO139     -0.2718
    147  CB        95.5070   19.9490   54.5720 C.3   139  PRO139      0.0282
    148  CG        96.2550   19.1160   53.5130 C.3   139  PRO139      0.0208
    149  CD        95.4750   19.3740   52.2130 C.3   139  PRO139      0.0893
    150  N         96.7300   22.6250   52.5820 N.am  140  GLU140     -0.1980
    151  CA        97.8420   23.5600   52.4730 C.3   140  GLU140      0.1602
    152  C         97.7910   24.7670   53.4210 C.2   140  GLU140      0.2287
    153  O         98.8150   25.1300   54.0110 O.2   140  GLU140     -0.2864
    154  CB        97.9680   24.0560   51.0180 C.3   140  GLU140      0.0415
    155  CG        98.5780   23.0440   50.0530 C.3   140  GLU140      0.1163
    156  CD        97.5760   22.0490   49.4580 C.2   140  GLU140      0.3649
    157  OE1       97.8820   21.5040   48.3750 O.co2 140  GLU140     -0.2457
    158  OE2       96.5030   21.7980   50.0580 O.co2 140  GLU140     -0.2457
    159  N         99.2230   24.4250   56.7560 N.3   143  ARG143     -0.1245
    160  CA       100.6810   24.4450   56.7650 C.3   143  ARG143      0.1563
    161  C        101.2080   25.8490   56.4610 C.2   143  ARG143      0.2260
    162  O        102.4210   26.0580   56.4390 O.2   143  ARG143     -0.2867
    163  CB       101.2460   23.4450   55.7400 C.3   143  ARG143      0.0307
    164  CG       100.6030   22.0560   55.7600 C.3   143  ARG143      0.0489
    165  CD       100.7800   21.3410   57.1210 C.3   143  ARG143      0.2205
    166  NE       100.0440   20.0870   57.1580 N.pl3 143  ARG143     -0.0865
    167  CZ        99.6480   19.4850   58.2790 C.cat 143  ARG143      0.5346
    168  NH1       99.9220   20.0250   59.4610 N.pl3 143  ARG143      0.1354
    169  NH2       98.9670   18.3470   58.2160 N.pl3 143  ARG143      0.1354
    170  N        100.7560   27.4350   53.5820 N.3   145  ILE145     -0.1231
    171  CA       101.1570   27.5760   52.1840 C.3   145  ILE145      0.1692
    172  C        100.0630   27.3550   51.1270 C.2   145  ILE145      0.2592
    173  O         98.9090   27.0730   51.4520 O.2   145  ILE145     -0.2718
    174  CB       102.3360   26.6350   51.9040 C.3   145  ILE145      0.0266
    175  CG1      101.8660   25.1700   51.9940 C.3   145  ILE145      0.0019
    176  CG2      103.4430   26.8910   52.9430 C.3   145  ILE145      0.0020
    177  CD1      102.9780   24.1340   51.8080 C.3   145  ILE145      0.0001
    178  N        100.4550   27.5110   49.8600 N.am  146  PHE146     -0.1962
    179  CA        99.5490   27.3850   48.7170 C.3   146  PHE146      0.1771
    180  C         99.7090   25.9930   48.1240 C.2   146  PHE146      0.2620
    181  O        100.6900   25.3090   48.4090 O.2   146  PHE146     -0.2715
    182  CB        99.9160   28.4520   47.6650 C.3   146  PHE146      0.0574
    183  CG        98.8330   28.7210   46.6370 C.ar  146  PHE146     -0.0200
    184  CD1       97.6380   29.3260   47.0070 C.ar  146  PHE146     -0.0042
    185  CD2       99.0370   28.4150   45.2960 C.ar  146  PHE146     -0.0042
    186  CE1       96.6550   29.6290   46.0550 C.ar  146  PHE146     -0.0003
    187  CE2       98.0610   28.7130   44.3310 C.ar  146  PHE146     -0.0003
    188  CZ        96.8720   29.3240   44.7180 C.ar  146  PHE146     -0.0000
    189  N         98.7480   25.5870   47.2980 N.am  147  THR147     -0.1937
    190  CA        98.7960   24.2830   46.6530 C.3   147  THR147      0.2028
    191  C         99.6670   24.3750   45.4000 C.2   147  THR147      0.2643
    192  O        100.2970   25.4020   45.1460 O.2   147  THR147     -0.2714
    193  CB        97.3670   23.7810   46.2900 C.3   147  THR147      0.1808
    194  OG1       97.4340   22.4130   45.8760 O.3   147  THR147     -0.2208
    195  CG2       96.7390   24.6320   45.1870 C.3   147  THR147      0.0379
    196  N         99.7240   23.3000   44.6320 N.am  148  GLY148     -0.1939
    197  CA       100.5460   23.3160   43.4300 C.3   148  GLY148      0.2014
    198  C        100.1640   22.1660   42.5290 C.2   148  GLY148      0.2639
    199  O         99.0840   21.5960   42.6840 O.2   148  GLY148     -0.2714
    200  N        101.0250   21.8220   41.5710 N.am  149  GLY149     -0.1954
    201  CA       100.7050   20.7190   40.6760 C.3   149  GLY149      0.1869
    202  C         99.4410   20.9650   39.8580 C.2   149  GLY149      0.2309
    203  O         98.7880   20.0230   39.3960 O.2   149  GLY149     -0.2863
@<TRIPOS>BOND
     1   100    99    2
     2    99    98    1
     3    97    98    1
     4    94    93    2
     5    98   101    1
     6   203   202    2
     7    93    92    1
     8   202   201    1
     9   101   102    1
    10   201   200    1
    11    92    95    1
    12    92    91    1
    13    95    96    1
    14   200   198   am
    15   102   103   ar
    16   102   104   ar
    17   103   105   ar
    18   198   199    2
    19   198   197    1
    20   104   107   ar
    21   104   106   ar
    22   107   109   ar
    23    83    82    2
    24   197   196    1
    25   105   106   ar
    26    82    81    1
    27   106   108   ar
    28   109   110   ar
    29   187   188   ar
    30   187   185   ar
    31   130   129    2
    32   196   191   am
    33   188   186   ar
    34    80    81    1
    35    81    84    1
    36   108   110   ar
    37   192   191    2
    38   195   193    1
    39   185   183   ar
    40   191   190    1
    41   129   128    1
    42   194   193    1
    43   186   184   ar
    44   128   127    1
    45    84    85    1
    46   193   190    1
    47    87    89   ar
    48    87    85   ar
    49    89    90   ar
    50    85    86   ar
    51    90    88   ar
    52   126   125    2
    53   183   184   ar
    54   183   182    1
    55    86    88   ar
    56   190   189    1
    57   189   180   am
    58   127   125   am
    59   125   124    1
    60   182   179    1
    61    55    54    1
    62   180   181    2
    63   180   179    1
    64   157   156   ar
    65    32    31    2
    66    31    30    1
    67   179   178    1
    68    49    50    1
    69    50    53    1
    70    50    51    1
    71   124   123    1
    72    53    54    1
    73    54    56    1
    74   119   118    2
    75   123   118   am
    76   156   155    1
    77   156   158   ar
    78   118   117    1
    79   116   117    1
    80    57    51   am
    81    57    58    1
    82   178   172   am
    83    30    29    1
    84    30    33    1
    85    51    52    2
    86   117   120    1
    87   155   154    1
    88    37    36    2
    89   114   113    2
    90    44    45    1
    91    36    35    1
    92    61    58    1
    93    61    62    1
    94   113   112    1
    95   134   133    2
    96    46    45    1
    97    46    47    2
    98    58    59    1
    99   154   151    1
   100   133   132    1
   101    21    20    2
   102   172   173    2
   103   172   171    1
   104    45    48    1
   105   131   132    1
   106    64    62   ar
   107    60    59    2
   108    20    19    1
   109   120   122    1
   110   120   121    1
   111    62    63   ar
   112   132   135    1
   113    35    34    1
   114    35    38    1
   115    59    65   am
   116   177   175    1
   117   174   175    1
   118   174   171    1
   119   174   176    1
   120   112   111    1
   121   112   115    1
   122   171   170    1
   123   149   143    1
   124   149   148    1
   125   143   144    1
   126   151   150    1
   127   151   152    1
   128   150   145   am
   129    38    39    1
   130    65    66    1
   131    19    18    1
   132    19    22    1
   133    12    11    2
   134   135   136    1
   135    13    14    1
   136    13    10    1
   137   152   153    2
   138    72    70    1
   139    18    11   am
   140   148   147    1
   141    11    10    1
   142    66    67    1
   143    66    69    1
   144   145   144    1
   145   145   146    2
   146   144   147    1
   147    22    23    1
   148    14    15    1
   149     1     2    1
   150   136   138   ar
   151   136   137   ar
   152    70    69    1
   153    70    71    1
   154    39    40   ar
   155    39    41   ar
   156    10     9    1
   157     9     3   am
   158   138   140   ar
   159   137   139   ar
   160    40    42   ar
   161    67    73   am
   162    67    68    2
   163    75    76    2
   164    75    74    1
   165    73    74    1
   166   140   141   ar
   167    41    43   ar
   168   139   141   ar
   169    15    16    1
   170     2     3    1
   171     2     5    1
   172    23    24    1
   173    24    25    1
   174     3     4    2
   175     8     6   ar
   176   141   142    1
   177    74    77    1
   178    42    43   ar
   179     5     6    1
   180   163   164    1
   181   163   160    1
   182   164   165    1
   183    16    17    1
   184     6     7   ar
   185    77    78    1
   186    77    79    1
   187   162   161    2
   188   161   160    1
   189    25    26    2
   190   159   160    1
   191    27    26    1
   192   165   166    1
   193   166   167    2
   194    26    28    1
   195   169   167    1
   196   167   168    1
