@<TRIPOS>MOLECULE
tmp/4izdA00.pdb
 121 114 0 0 0
SMALL
GASTEIGER

@<TRIPOS>ATOM
      1  N        125.0380   18.5480    4.4740 N.3    29  ASP29      -0.1225
      2  CA       124.8750   17.9130    3.1760 C.3    29  ASP29       0.1805
      3  C        123.4020   17.8930    2.7700 C.2    29  ASP29       0.2598
      4  O        123.0830   17.7980    1.5840 O.2    29  ASP29      -0.2718
      5  CB       125.4630   16.4950    3.2030 C.3    29  ASP29       0.1424
      6  CG       124.8760   15.6340    4.3060 C.2    29  ASP29       0.3668
      7  OD1      124.8970   16.0570    5.4850 O.co2  29  ASP29      -0.2456
      8  OD2      124.4050   14.5210    3.9910 O.co2  29  ASP29      -0.2456
      9  N        122.4980   17.9900    3.7490 N.am   30  LYS30      -0.1966
     10  CA       121.0700   18.0110    3.4410 C.3    30  LYS30       0.1728
     11  C        120.4590   19.3720    3.7790 C.2    30  LYS30       0.2616
     12  O        119.2360   19.5130    3.9150 O.2    30  LYS30      -0.2715
     13  CB       120.3540   16.8860    4.1920 C.3    30  LYS30       0.0311
     14  CG       120.8620   15.5130    3.7860 C.3    30  LYS30       0.0038
     15  CD       120.7020   15.3040    2.2860 C.3    30  LYS30       0.0206
     16  CE       121.4260   14.0470    1.8110 C.3    30  LYS30       0.1093
     17  NZ       121.0240   12.8520    2.5980 N.3    30  LYS30      -0.1314
     18  N        121.3290   20.3750    3.8710 N.am   31  ARG31      -0.1977
     19  CA       120.9340   21.7570    4.1900 C.3    31  ARG31       0.1597
     20  C        120.1900   21.8090    5.5300 C.2    31  ARG31       0.2287
     21  O        119.2470   22.5810    5.7180 O.2    31  ARG31      -0.2864
     22  CB       120.0760   22.3590    3.0720 C.3    31  ARG31       0.0334
     23  CG       120.7660   22.3690    1.6890 C.3    31  ARG31       0.0492
     24  CD       122.1460   23.0250    1.7640 C.3    31  ARG31       0.2205
     25  NE       122.8160   23.0680    0.4660 N.pl3  31  ARG31      -0.0865
     26  CZ       123.7930   22.2470    0.0900 C.cat  31  ARG31       0.5346
     27  NH1      124.3280   22.3740   -1.1180 N.pl3  31  ARG31       0.1354
     28  NH2      124.2480   21.3070    0.9150 N.pl3  31  ARG31       0.1354
     29  N        118.0840   19.8800    6.9180 N.3    33  ALA33      -0.1245
     30  CA       116.6710   19.4970    6.9080 C.3    33  ALA33       0.1562
     31  C        116.4150   18.7580    8.2150 C.2    33  ALA33       0.2260
     32  O        117.2640   17.9830    8.6850 O.2    33  ALA33      -0.2867
     33  CB       116.3700   18.5780    5.7240 C.3    33  ALA33       0.0290
     34  N        123.5010   27.6080    4.7360 N.3    65  HIS65      -0.1241
     35  CA       122.0530   27.7090    4.9230 C.3    65  HIS65       0.1621
     36  C        121.6140   27.2340    6.2940 C.2    65  HIS65       0.2264
     37  O        121.9260   26.1140    6.6940 O.2    65  HIS65      -0.2867
     38  CB       121.3290   26.8760    3.8630 C.3    65  HIS65       0.0745
     39  CG       121.6130   27.3170    2.4630 C.ar   65  HIS65       0.0817
     40  ND1      121.0890   28.4740    1.9300 N.ar   65  HIS65      -0.2268
     41  CD2      122.4370   26.8060    1.5150 C.ar   65  HIS65       0.1154
     42  CE1      121.5820   28.6620    0.7160 C.ar   65  HIS65       0.1986
     43  NE2      122.4030   27.6640    0.4410 N.ar   65  HIS65      -0.2212
     44  N        116.7620   24.0260    5.7230 N.3    68  ALA68      -0.1245
     45  CA       115.9040   23.8430    4.5530 C.3    68  ALA68       0.1562
     46  C        114.5130   23.3220    4.8530 C.2    68  ALA68       0.2260
     47  O        113.7420   23.0520    3.9270 O.2    68  ALA68      -0.2867
     48  CB       116.5900   22.9250    3.5360 C.3    68  ALA68       0.0290
     49  N        111.4990   20.7940    6.9120 N.3    70  LEU70      -0.1231
     50  CA       111.2180   19.4130    7.2670 C.3    70  LEU70       0.1693
     51  C        111.8960   18.5260    6.2250 C.2    70  LEU70       0.2592
     52  O        111.9600   18.8910    5.0510 O.2    70  LEU70      -0.2718
     53  CB       109.7080   19.1670    7.2550 C.3    70  LEU70       0.0284
     54  CG       109.2730   17.7500    7.6130 C.3    70  LEU70       0.0019
     55  CD1      108.0880   17.7890    8.5610 C.3    70  LEU70       0.0001
     56  CD2      108.9430   17.0140    6.3350 C.3    70  LEU70       0.0001
     57  N        112.4050   17.3830    6.6560 N.am   71  ASP71      -0.1960
     58  CA       113.0770   16.4600    5.7410 C.3    71  ASP71       0.1840
     59  C        112.0180   15.7900    4.8590 C.2    71  ASP71       0.2622
     60  O        111.3850   14.8090    5.2550 O.2    71  ASP71      -0.2715
     61  CB       113.8520   15.4070    6.5270 C.3    71  ASP71       0.1450
     62  CG       114.7160   14.5270    5.6320 C.2    71  ASP71       0.3671
     63  OD1      114.3500   14.3310    4.4490 O.co2  71  ASP71      -0.2456
     64  OD2      115.7420   14.0320    6.1240 O.co2  71  ASP71      -0.2456
     65  N        111.8300   16.3390    3.6610 N.am   72  LEU72      -0.1963
     66  CA       110.8350   15.8370    2.7180 C.3    72  LEU72       0.1728
     67  C        111.1670   14.4770    2.1120 C.2    72  LEU72       0.2616
     68  O        110.2790   13.7850    1.6140 O.2    72  LEU72      -0.2715
     69  CB       110.6160   16.8580    1.6030 C.3    72  LEU72       0.0311
     70  CG       110.0570   18.2100    2.0540 C.3    72  LEU72       0.0022
     71  CD1      110.1250   19.2100    0.8980 C.3    72  LEU72       0.0001
     72  CD2      108.6260   18.0320    2.5440 C.3    72  LEU72       0.0001
     73  N        112.4380   14.1030    2.1600 N.am   73  VAL73      -0.1977
     74  CA       112.8940   12.8180    1.6480 C.3    73  VAL73       0.1596
     75  C        112.4390   11.7420    2.6240 C.2    73  VAL73       0.2287
     76  O        111.8950   10.7100    2.2270 O.2    73  VAL73      -0.2864
     77  CB       114.4290   12.7850    1.5320 C.3    73  VAL73       0.0276
     78  CG1      114.8920   11.4060    1.1030 C.3    73  VAL73       0.0022
     79  CG2      114.8930   13.8370    0.5360 C.3    73  VAL73       0.0022
     80  N        119.1770   30.2020    3.4470 N.3   113  ALA113     -0.1245
     81  CA       117.7890   29.7640    3.5360 C.3   113  ALA113      0.1562
     82  C        117.2580   29.4900    4.9360 C.2   113  ALA113      0.2260
     83  O        117.8420   28.7140    5.6930 O.2   113  ALA113     -0.2867
     84  CB       117.5850   28.5220    2.6510 C.3   113  ALA113      0.0290
     85  N        113.7840   28.4650    5.5940 N.3   115  VAL115     -0.1245
     86  CA       112.5440   28.1680    4.9130 C.3   115  VAL115      0.1561
     87  C        111.7190   27.0280    5.4620 C.2   115  VAL115      0.2260
     88  O        112.2410   26.0430    5.9910 O.2   115  VAL115     -0.2867
     89  CB       112.8310   27.8900    3.4060 C.3   115  VAL115      0.0252
     90  CG1      113.4910   29.1160    2.7510 C.3   115  VAL115      0.0019
     91  CG2      113.7540   26.6950    3.2690 C.3   115  VAL115      0.0019
     92  N        117.4030   34.7250    3.8210 N.3   135  TYR135     -0.1241
     93  CA       116.0770   34.9280    3.2540 C.3   135  TYR135      0.1605
     94  C        115.0970   33.9740    3.9120 C.2   135  TYR135      0.2264
     95  O        115.4680   32.8820    4.4000 O.2   135  TYR135     -0.2867
     96  CB       116.0620   34.7790    1.7220 C.3   135  TYR135      0.0534
     97  CG       116.3600   33.4000    1.1940 C.ar  135  TYR135     -0.0201
     98  CD1      115.3250   32.5270    0.8820 C.ar  135  TYR135     -0.0009
     99  CD2      117.6720   32.9950    0.9350 C.ar  135  TYR135     -0.0009
    100  CE1      115.5710   31.2830    0.3070 C.ar  135  TYR135      0.0417
    101  CE2      117.9380   31.7420    0.3630 C.ar  135  TYR135      0.0417
    102  CZ       116.8770   30.8990    0.0440 C.ar  135  TYR135      0.1957
    103  OH       117.1020   29.7030   -0.6040 O.3   135  TYR135     -0.2866
    104  N        107.8450   28.0020    1.2690 N.3   139  PRO139     -0.2116
    105  CA       107.6220   27.4970   -0.0880 C.3   139  PRO139      0.1372
    106  C        106.9050   26.1660   -0.2790 C.2   139  PRO139      0.2244
    107  O        106.5780   25.8000   -1.4070 O.2   139  PRO139     -0.2868
    108  CB       109.0340   27.4500   -0.6450 C.3   139  PRO139      0.0268
    109  CG       109.7900   26.9240    0.5300 C.3   139  PRO139      0.0207
    110  CD       109.2390   27.7460    1.6890 C.3   139  PRO139      0.0892
    111  N        103.6270   23.2600   -3.0780 N.3   143  ARG143     -0.1245
    112  CA       103.5900   21.8300   -3.3630 C.3   143  ARG143      0.1563
    113  C        102.5560   21.1280   -2.4770 C.2   143  ARG143      0.2260
    114  O        102.7170   19.9580   -2.1270 O.2   143  ARG143     -0.2867
    115  CB       104.9710   21.1950   -3.1830 C.3   143  ARG143      0.0307
    116  CG       105.5020   21.1890   -1.7610 C.3   143  ARG143      0.0489
    117  CD       106.9060   20.5930   -1.7330 C.3   143  ARG143      0.2205
    118  NE       107.8650   21.4370   -2.4470 N.pl3 143  ARG143     -0.0865
    119  CZ       108.5900   22.3990   -1.8790 C.cat 143  ARG143      0.5346
    120  NH1      109.4280   23.1190   -2.6160 N.pl3 143  ARG143      0.1354
    121  NH2      108.4970   22.6270   -0.5700 N.pl3 143  ARG143      0.1354
@<TRIPOS>BOND
     1   112   115    1
     2   112   111    1
     3   112   113    1
     4   115   116    1
     5   120   119    1
     6   113   114    2
     7   118   119    2
     8   118   117    1
     9   119   121    1
    10   116   117    1
    11   107   106    2
    12    27    26    1
    13   108   105    1
    14   108   109    1
    15   103   102    1
    16   106   105    1
    17   105   104    1
    18   102   100   ar
    19   102   101   ar
    20    26    25    2
    21    26    28    1
    22   100    98   ar
    23   101    99   ar
    24    43    42   ar
    25    43    41   ar
    26    25    24    1
    27   109   110    1
    28    79    77    1
    29    42    40   ar
    30    98    97   ar
    31    71    70    1
    32    99    97   ar
    33    78    77    1
    34    97    96    1
    35   104   110    1
    36    41    39   ar
    37    77    74    1
    38     4     3    2
    39    69    70    1
    40    69    66    1
    41    68    67    2
    42    74    73    1
    43    74    75    1
    44    23    24    1
    45    23    22    1
    46    96    93    1
    47    16    15    1
    48    16    17    1
    49    40    39   ar
    50    70    72    1
    51    67    73   am
    52    67    66    1
    53    76    75    2
    54    15    14    1
    55    39    38    1
    56    84    81    1
    57    66    65    1
    58    90    89    1
    59     3     2    1
    60     3     9   am
    61    22    19    1
    62     2     5    1
    63     2     1    1
    64     5     6    1
    65    93    92    1
    66    93    94    1
    67    91    89    1
    68    89    86    1
    69    10     9    1
    70    10    11    1
    71    10    13    1
    72    80    81    1
    73    48    45    1
    74    81    82    1
    75    65    59   am
    76    11    18   am
    77    11    12    2
    78    14    13    1
    79    38    35    1
    80    18    19    1
    81    94    95    2
    82    47    46    2
    83     8     6   ar
    84    19    20    1
    85     6     7   ar
    86    63    62   ar
    87    45    46    1
    88    45    44    1
    89    34    35    1
    90    59    60    2
    91    59    58    1
    92    86    87    1
    93    86    85    1
    94    35    36    1
    95    82    83    2
    96    52    51    2
    97    87    88    2
    98    20    21    2
    99    62    64   ar
   100    62    61    1
   101    33    30    1
   102    58    61    1
   103    58    57    1
   104    51    57   am
   105    51    50    1
   106    36    37    2
   107    56    54    1
   108    30    29    1
   109    30    31    1
   110    49    50    1
   111    53    50    1
   112    53    54    1
   113    54    55    1
   114    31    32    2
