@<TRIPOS>MOLECULE
tmp/4izyA01.pdb
 146 138 0 0 0
SMALL
GASTEIGER

@<TRIPOS>ATOM
      1  N        -14.1250    9.9260  -27.7990 N.3    25  ILE25      -0.1231
      2  CA       -12.8140    9.7500  -27.1770 C.3    25  ILE25       0.1696
      3  C        -12.5000    8.2750  -26.8960 C.2    25  ILE25       0.2632
      4  O        -11.4040    7.9410  -26.4230 O.2    25  ILE25      -0.2714
      5  CB       -12.6850   10.5800  -25.8630 C.3    25  ILE25       0.0266
      6  CG1      -13.7150   10.1340  -24.8060 C.3    25  ILE25       0.0019
      7  CG2      -12.8100   12.0600  -26.1550 C.3    25  ILE25       0.0020
      8  CD1      -13.6020   10.8880  -23.4750 C.3    25  ILE25       0.0001
      9  N        -13.4540    7.3870  -27.1800 N.am   26  GLY26      -0.1718
     10  CA       -13.1960    5.9640  -26.9960 C.2    26  GLY26       0.1480
     11  C        -14.3720    5.0440  -27.2010 C.2    26  GLY26       0.2821
     12  O        -15.5320    5.4650  -27.1480 O.2    26  GLY26      -0.2669
     13  N        -14.0630    3.7730  -27.4400 N.am   27  SER27      -0.1901
     14  CA       -15.0810    2.7470  -27.5900 C.3    27  SER27       0.2058
     15  C        -14.5640    1.3750  -27.1680 C.2    27  SER27       0.2644
     16  O        -13.3700    1.1850  -26.9160 O.2    27  SER27      -0.2714
     17  CB       -15.6020    2.7080  -29.0320 C.3    27  SER27       0.2130
     18  OG       -14.5240    2.7230  -29.9520 O.3    27  SER27      -0.2179
     19  N        -15.4950    0.4340  -27.0710 N.am   28  GLY28      -0.1939
     20  CA       -15.2050   -0.9470  -26.7140 C.3    28  GLY28       0.2014
     21  C        -16.4650   -1.7650  -26.9150 C.2    28  GLY28       0.2639
     22  O        -17.4440   -1.2760  -27.4780 O.2    28  GLY28      -0.2714
     23  N        -16.4540   -3.0030  -26.4330 N.am   29  ALA29      -0.1963
     24  CA       -17.5790   -3.9050  -26.6440 C.3    29  ALA29       0.1728
     25  C        -18.8630   -3.4970  -25.9040 C.2    29  ALA29       0.2616
     26  O        -19.9560   -3.8960  -26.3060 O.2    29  ALA29      -0.2715
     27  CB       -17.1840   -5.3400  -26.2880 C.3    29  ALA29       0.0334
     28  N        -18.7210   -2.7080  -24.8370 N.am   30  GLN30      -0.1963
     29  CA       -19.8550   -2.3150  -23.9830 C.3    30  GLN30       0.1736
     30  C        -20.3910   -0.8950  -24.1960 C.2    30  GLN30       0.2655
     31  O        -21.4980   -0.5690  -23.7470 O.2    30  GLN30      -0.2711
     32  CB       -19.5090   -2.4920  -22.5080 C.3    30  GLN30       0.0408
     33  CG       -19.8650   -3.8490  -21.9390 C.3    30  GLN30       0.0908
     34  CD       -18.6960   -4.8000  -21.9600 C.2    30  GLN30       0.2608
     35  OE1      -18.3980   -5.4130  -22.9830 O.2    30  GLN30      -0.2717
     36  NE2      -18.0250   -4.9380  -20.8170 N.am   30  GLN30      -0.0878
     37  N        -19.6250   -0.0380  -24.8670 N.am   31  GLY31      -0.1730
     38  CA       -20.1130    1.3120  -25.0680 C.2    31  GLY31       0.1340
     39  C        -19.2480    2.2400  -25.8700 C.2    31  GLY31       0.2521
     40  O        -18.0910    1.9400  -26.1610 O.2    31  GLY31      -0.2816
     41  N        -17.9180    6.2740  -25.8840 N.3    33  VAL33      -0.1245
     42  CA       -17.7310    7.4180  -25.0010 C.3    33  VAL33       0.1561
     43  C        -17.3360    8.6850  -25.7630 C.2    33  VAL33       0.2260
     44  O        -16.4080    8.6710  -26.5830 O.2    33  VAL33      -0.2867
     45  CB       -16.7080    7.1050  -23.8680 C.3    33  VAL33       0.0252
     46  CG1      -16.5580    8.2960  -22.9100 C.3    33  VAL33       0.0019
     47  CG2      -17.1430    5.8530  -23.1010 C.3    33  VAL33       0.0019
     48  N        -17.9060   13.3790  -19.6150 N.3    46  ALA46      -0.1245
     49  CA       -17.8110   12.2260  -20.5000 C.3    46  ALA46       0.1562
     50  C        -19.1710   11.5470  -20.5520 C.2    46  ALA46       0.2260
     51  O        -19.7750   11.2490  -19.5080 O.2    46  ALA46      -0.2867
     52  CB       -16.7650   11.2600  -20.0170 C.3    46  ALA46       0.0290
     53  N        -21.1450    8.2500  -21.8590 N.3    48  LYS48      -0.1245
     54  CA       -21.0730    6.8830  -22.3590 C.3    48  LYS48       0.1561
     55  C        -22.4410    6.3690  -22.7770 C.2    48  LYS48       0.2260
     56  O        -23.3370    6.2570  -21.9390 O.2    48  LYS48      -0.2867
     57  CB       -20.4680    5.9670  -21.2990 C.3    48  LYS48       0.0271
     58  CG       -20.4400    4.4880  -21.6630 C.3    48  LYS48       0.0035
     59  CD       -19.7850    3.7010  -20.5420 C.3    48  LYS48       0.0206
     60  CE       -19.6890    2.2210  -20.8750 C.3    48  LYS48       0.1093
     61  NZ       -18.8920    1.4900  -19.8580 N.3    48  LYS48      -0.1314
     62  N        -14.5460    7.2920  -10.1620 N.3    79  ILE79      -0.1245
     63  CA       -15.3330    8.0220  -11.1500 C.3    79  ILE79       0.1561
     64  C        -16.7870    8.0100  -10.6850 C.2    79  ILE79       0.2260
     65  O        -17.3200    6.9730  -10.2740 O.2    79  ILE79      -0.2867
     66  CB       -15.1940    7.4240  -12.5770 C.3    79  ILE79       0.0252
     67  CG1      -15.7270    8.3990  -13.6350 C.3    79  ILE79       0.0019
     68  CG2      -15.9040    6.0820  -12.6910 C.3    79  ILE79       0.0019
     69  CD1      -14.7560    9.5280  -13.9950 C.3    79  ILE79       0.0001
     70  N        -20.4010   11.3400  -16.7320 N.3   101  MET101     -0.1230
     71  CA       -19.3590   11.4280  -15.7270 C.3   101  MET101      0.1702
     72  C        -18.5920   12.7380  -15.9030 C.2   101  MET101      0.2592
     73  O        -18.6450   13.3620  -16.9650 O.2   101  MET101     -0.2718
     74  CB       -18.3580   10.2820  -15.9010 C.3   101  MET101      0.0401
     75  CG       -18.8970    8.8810  -15.7480 C.3   101  MET101      0.0596
     76  SD       -17.9020    7.7540  -16.7550 S.3   101  MET101     -0.1393
     77  CE       -18.7820    7.7990  -18.3200 C.3   101  MET101      0.0692
     78  N        -17.8630   13.1240  -14.8620 N.am  102  GLU102     -0.1966
     79  CA       -16.8910   14.2000  -14.9450 C.3   102  GLU102      0.1733
     80  C        -15.8130   13.8310  -15.9650 C.2   102  GLU102      0.2616
     81  O        -15.3030   12.7010  -15.9680 O.2   102  GLU102     -0.2715
     82  CB       -16.2430   14.4350  -13.5770 C.3   102  GLU102      0.0429
     83  CG       -15.4500   15.7450  -13.4840 C.3   102  GLU102      0.1163
     84  CD       -14.7090   15.9410  -12.1510 C.2   102  GLU102      0.3649
     85  OE1      -14.8170   15.0740  -11.2500 O.co2 102  GLU102     -0.2457
     86  OE2      -14.0090   16.9750  -12.0140 O.co2 102  GLU102     -0.2457
     87  N        -15.4860   14.7820  -16.8380 N.am  103  LEU103     -0.1963
     88  CA       -14.4140   14.5820  -17.8090 C.3   103  LEU103      0.1728
     89  C        -13.0470   14.8340  -17.1820 C.2   103  LEU103      0.2616
     90  O        -12.7070   15.9670  -16.8380 O.2   103  LEU103     -0.2715
     91  CB       -14.5950   15.4750  -19.0330 C.3   103  LEU103      0.0311
     92  CG       -13.5290   15.2410  -20.1000 C.3   103  LEU103      0.0022
     93  CD1      -13.7920   13.9300  -20.8120 C.3   103  LEU103      0.0001
     94  CD2      -13.4640   16.4110  -21.0910 C.3   103  LEU103      0.0001
     95  N        -12.2840   13.7600  -17.0360 N.am  104  MET104     -0.1963
     96  CA       -10.9030   13.8150  -16.5730 C.3   104  MET104      0.1736
     97  C         -9.9560   14.1350  -17.7250 C.2   104  MET104      0.2616
     98  O        -10.3000   13.9290  -18.8990 O.2   104  MET104     -0.2715
     99  CB       -10.5280   12.4840  -15.9070 C.3   104  MET104      0.0427
    100  CG       -11.4790   12.1080  -14.7730 C.3   104  MET104      0.0599
    101  SD       -11.4440   13.2940  -13.4160 S.3   104  MET104     -0.1393
    102  CE        -9.9490   12.8100  -12.5580 C.3   104  MET104      0.0692
    103  N         -8.7710   14.6440  -17.3880 N.am  105  ASP105     -0.1957
    104  CA        -7.8370   15.1500  -18.3940 C.3   105  ASP105      0.1840
    105  C         -7.0330   14.0430  -19.0740 C.2   105  ASP105      0.2622
    106  O         -6.7340   14.1320  -20.2670 O.2   105  ASP105     -0.2715
    107  CB        -6.8960   16.1940  -17.7810 C.3   105  ASP105      0.1450
    108  CG        -7.6350   17.4220  -17.2670 C.2   105  ASP105      0.3671
    109  OD1       -8.6010   17.8620  -17.9160 O.co2 105  ASP105     -0.2456
    110  OD2       -7.2540   17.9590  -16.2100 O.co2 105  ASP105     -0.2456
    111  N         -6.6840   13.0020  -18.3200 N.am  106  ALA106     -0.1963
    112  CA        -5.8520   11.9220  -18.8490 C.3   106  ALA106      0.1728
    113  C         -5.9570   10.6500  -18.0110 C.2   106  ALA106      0.2616
    114  O         -6.3830   10.6960  -16.8590 O.2   106  ALA106     -0.2715
    115  CB        -4.3760   12.3820  -18.9290 C.3   106  ALA106      0.0334
    116  N         -5.5750    9.5190  -18.5980 N.am  107  ASN107     -0.1972
    117  CA        -5.2650    8.3250  -17.8190 C.3   107  ASN107      0.1688
    118  C         -3.7950    8.3910  -17.3670 C.2   107  ASN107      0.2292
    119  O         -3.1230    9.3840  -17.6190 O.2   107  ASN107     -0.2864
    120  CB        -5.5820    7.0420  -18.5990 C.3   107  ASN107      0.1181
    121  CG        -4.7430    6.8870  -19.8500 C.2   107  ASN107      0.2629
    122  OD1       -3.5590    7.2260  -19.8690 O.2   107  ASN107     -0.2716
    123  ND2       -5.3520    6.3560  -20.9030 N.am  107  ASN107     -0.0877
    124  N         -7.6700    7.4900  -14.0290 N.3   151  VAL151     -0.1245
    125  CA        -7.6730    8.8080  -14.6430 C.3   151  VAL151      0.1561
    126  C         -7.2870    9.9140  -13.6750 C.2   151  VAL151      0.2260
    127  O         -7.4660    9.7880  -12.4510 O.2   151  VAL151     -0.2867
    128  CB        -9.0090    9.1260  -15.3710 C.3   151  VAL151      0.0252
    129  CG1       -9.0910    8.3390  -16.6850 C.3   151  VAL151      0.0019
    130  CG2      -10.2310    8.8360  -14.4900 C.3   151  VAL151      0.0019
    131  N        -11.3590    4.4140  -12.8790 N.3   161  LEU161     -0.1231
    132  CA       -12.3790    4.5360  -13.9270 C.3   161  LEU161      0.1693
    133  C        -13.5320    3.5570  -13.8370 C.2   161  LEU161      0.2592
    134  O        -14.6700    3.9140  -14.1510 O.2   161  LEU161     -0.2718
    135  CB       -11.7690    4.4230  -15.3340 C.3   161  LEU161      0.0284
    136  CG       -11.7250    5.6710  -16.2150 C.3   161  LEU161      0.0019
    137  CD1      -11.3810    5.3130  -17.6770 C.3   161  LEU161      0.0001
    138  CD2      -13.0260    6.4500  -16.1380 C.3   161  LEU161      0.0001
    139  N        -13.2470    2.3150  -13.4680 N.am  162  ASP162     -0.1974
    140  CA       -14.2940    1.2930  -13.4610 C.3   162  ASP162      0.1709
    141  C        -14.1250    0.2750  -12.3370 C.2   162  ASP162      0.2293
    142  O        -13.1840    0.3620  -11.5500 O.2   162  ASP162     -0.2864
    143  CB       -14.4110    0.6060  -14.8360 C.3   162  ASP162      0.1436
    144  CG       -13.1270   -0.0900  -15.2700 C.2   162  ASP162      0.3671
    145  OD1      -12.4650   -0.7620  -14.4390 O.co2 162  ASP162     -0.2456
    146  OD2      -12.7860    0.0200  -16.4670 O.co2 162  ASP162     -0.2456
@<TRIPOS>BOND
     1    18    17    1
     2    17    14    1
     3     1     2    1
     4    14    13    1
     5    14    15    1
     6    22    21    2
     7    13    11   am
     8    11    12    2
     9    11    10    1
    10     9    10    2
    11     9     3    1
    12     2     3    1
    13     2     5    1
    14    15    19   am
    15    15    16    2
    16    19    20    1
    17    21    20    1
    18    21    23   am
    19     3     4    2
    20    24    23    1
    21    24    27    1
    22    24    25    1
    23    44    43    2
    24    26    25    2
    25    40    39    2
    26     7     5    1
    27    25    28   am
    28    41    42    1
    29    39    38    1
    30     5     6    1
    31    43    42    1
    32    38    37    2
    33    42    45    1
    34    37    30    1
    35    28    29    1
    36     6     8    1
    37    30    29    1
    38    30    31    2
    39    29    32    1
    40    45    47    1
    41    45    46    1
    42    35    34    2
    43    55    54    1
    44    55    56    2
    45    32    33    1
    46    54    53    1
    47    54    57    1
    48    34    33    1
    49    34    36   am
    50    58    57    1
    51    58    59    1
    52    94    92    1
    53   123   121   am
    54    60    59    1
    55    60    61    1
    56    93    92    1
    57    50    49    1
    58    50    51    2
    59    49    52    1
    60    49    48    1
    61   106   105    2
    62    92    91    1
    63   122   121    2
    64   121   120    1
    65   105   104    1
    66   105   111   am
    67    91    88    1
    68   115   112    1
    69    98    97    2
    70   112   111    1
    71   112   113    1
    72   120   117    1
    73   116   113   am
    74   116   117    1
    75   104   107    1
    76   104   103    1
    77    77    76    1
    78   113   114    2
    79   109   108   ar
    80   117   118    1
    81    88    89    1
    82    88    87    1
    83   107   108    1
    84    97   103   am
    85    97    96    1
    86   137   136    1
    87   119   118    2
    88   108   110   ar
    89    89    95   am
    90    89    90    2
    91    95    96    1
    92    73    72    2
    93    87    80   am
    94    76    75    1
    95    70    71    1
    96   129   128    1
    97    96    99    1
    98   146   144   ar
    99   136   138    1
   100   136   135    1
   101    81    80    2
   102    80    79    1
   103    99   100    1
   104    72    71    1
   105    72    78   am
   106    74    75    1
   107    74    71    1
   108   128   125    1
   109   128   130    1
   110   135   132    1
   111   144   143    1
   112   144   145   ar
   113    79    78    1
   114    79    82    1
   115   143   140    1
   116   100   101    1
   117   125   124    1
   118   125   126    1
   119   134   133    2
   120    69    67    1
   121   132   133    1
   122   132   131    1
   123   133   139   am
   124   126   127    2
   125    67    66    1
   126    82    83    1
   127    83    84    1
   128   139   140    1
   129   140   141    1
   130   101   102    1
   131    68    66    1
   132    66    63    1
   133   141   142    2
   134    84    86   ar
   135    84    85   ar
   136    63    64    1
   137    63    62    1
   138    64    65    2
