@<TRIPOS>MOLECULE
tmp/4j02A00.pdb
 124 120 0 0 0
SMALL
GASTEIGER

@<TRIPOS>ATOM
      1  N        -26.2790   50.0630   47.2650 N.3   415  LEU415     -0.1245
      2  CA       -26.2580   51.1380   48.2440 C.3   415  LEU415      0.1561
      3  C        -26.4680   52.4860   47.5670 C.2   415  LEU415      0.2260
      4  O        -27.2880   53.2960   48.0140 O.2   415  LEU415     -0.2867
      5  CB       -24.9160   51.1310   48.9740 C.3   415  LEU415      0.0270
      6  CG       -24.6470   52.2030   50.0270 C.3   415  LEU415      0.0019
      7  CD1      -25.6310   52.0590   51.1780 C.3   415  LEU415      0.0001
      8  CD2      -23.2100   52.0600   50.5230 C.3   415  LEU415      0.0001
      9  N        -30.0190   53.0910   45.7570 N.3   418  ARG418     -0.1231
     10  CA       -31.0650   53.2820   46.7560 C.3   418  ARG418      0.1694
     11  C        -30.9750   54.6270   47.4700 C.2   418  ARG418      0.2591
     12  O        -31.9490   55.3790   47.5150 O.2   418  ARG418     -0.2718
     13  CB       -31.0230   52.1440   47.7820 C.3   418  ARG418      0.0321
     14  CG       -31.3250   50.7630   47.1900 C.3   418  ARG418      0.0489
     15  CD       -31.1020   49.6590   48.2200 C.3   418  ARG418      0.2205
     16  NE       -32.1300   49.6340   49.2620 N.pl3 418  ARG418     -0.0865
     17  CZ       -32.0140   48.9650   50.4060 C.cat 418  ARG418      0.5346
     18  NH1      -30.9120   48.2730   50.6660 N.pl3 418  ARG418      0.1354
     19  NH2      -33.0090   48.9640   51.2790 N.pl3 418  ARG418      0.1354
     20  N        -29.8070   54.9420   48.0160 N.am  419  MET419     -0.1979
     21  CA       -29.6500   56.1960   48.7450 C.3   419  MET419      0.1605
     22  C        -29.5490   57.4470   47.8800 C.2   419  MET419      0.2287
     23  O        -29.9990   58.5200   48.2840 O.2   419  MET419     -0.2864
     24  CB       -28.4250   56.1310   49.6600 C.3   419  MET419      0.0413
     25  CG       -28.5070   55.0610   50.7330 C.3   419  MET419      0.0598
     26  SD       -27.1820   55.2210   51.9560 S.3   419  MET419     -0.1393
     27  CE       -27.8230   56.6060   52.9220 C.3   419  MET419      0.0692
     28  N        -31.8440   45.1790   52.1150 N.3   470  LEU470     -0.1231
     29  CA       -30.4090   44.9500   52.2310 C.3   470  LEU470      0.1693
     30  C        -29.7610   45.9700   53.1570 C.2   470  LEU470      0.2592
     31  O        -30.1210   47.1520   53.1570 O.2   470  LEU470     -0.2718
     32  CB       -29.7240   45.0090   50.8630 C.3   470  LEU470      0.0284
     33  CG       -30.1150   43.9240   49.8610 C.3   470  LEU470      0.0019
     34  CD1      -29.1600   43.9480   48.6750 C.3   470  LEU470      0.0001
     35  CD2      -30.0700   42.5720   50.5480 C.3   470  LEU470      0.0001
     36  N        -28.8080   45.4920   53.9500 N.am  471  HIS471     -0.1962
     37  CA       -28.0770   46.3310   54.8890 C.3   471  HIS471      0.1787
     38  C        -26.7360   45.6590   55.1420 C.2   471  HIS471      0.2621
     39  O        -26.5090   44.5360   54.6910 O.2   471  HIS471     -0.2715
     40  CB       -28.8610   46.4730   56.1950 C.3   471  HIS471      0.0785
     41  CG       -29.0830   45.1790   56.9100 C.ar  471  HIS471      0.0821
     42  ND1      -28.1850   44.6670   57.8220 N.ar  471  HIS471     -0.2267
     43  CD2      -30.0930   44.2800   56.8310 C.ar  471  HIS471      0.1154
     44  CE1      -28.6320   43.5090   58.2740 C.ar  471  HIS471      0.1986
     45  NE2      -29.7880   43.2510   57.6890 N.ar  471  HIS471     -0.2212
     46  N        -25.8500   46.3430   55.8570 N.am  472  SER472     -0.1936
     47  CA       -24.5290   45.8010   56.1390 C.3   472  SER472      0.2055
     48  C        -23.8230   45.4050   54.8440 C.2   472  SER472      0.2643
     49  O        -23.5130   44.2280   54.6260 O.2   472  SER472     -0.2714
     50  CB       -24.6280   44.5830   57.0630 C.3   472  SER472      0.2130
     51  OG       -25.2300   44.9280   58.3000 O.3   472  SER472     -0.2179
     52  N        -23.5820   46.3920   53.9850 N.am  473  TYR473     -0.1973
     53  CA       -22.8910   46.1650   52.7250 C.3   473  TYR473      0.1639
     54  C        -21.4170   45.9330   53.0440 C.2   473  TYR473      0.2290
     55  O        -20.9760   46.2160   54.1540 O.2   473  TYR473     -0.2864
     56  CB       -23.0490   47.3780   51.8030 C.3   473  TYR473      0.0560
     57  CG       -24.4410   47.5390   51.2250 C.ar  473  TYR473     -0.0198
     58  CD1      -25.4470   48.1740   51.9410 C.ar  473  TYR473     -0.0009
     59  CD2      -24.7410   47.0650   49.9550 C.ar  473  TYR473     -0.0009
     60  CE1      -26.7140   48.3400   51.4030 C.ar  473  TYR473      0.0417
     61  CE2      -26.0050   47.2230   49.4080 C.ar  473  TYR473      0.0417
     62  CZ       -26.9860   47.8630   50.1350 C.ar  473  TYR473      0.1957
     63  OH       -28.2370   48.0390   49.5900 O.3   473  TYR473     -0.2866
     64  N        -18.7850   49.9690   50.2910 N.3   478  ILE478     -0.1245
     65  CA       -19.0160   51.2440   50.9620 C.3   478  ILE478      0.1561
     66  C        -17.8890   52.2330   50.6510 C.2   478  ILE478      0.2260
     67  O        -18.1430   53.3920   50.3170 O.2   478  ILE478     -0.2867
     68  CB       -19.1010   51.0630   52.4930 C.3   478  ILE478      0.0252
     69  CG1      -20.2850   50.1630   52.8480 C.3   478  ILE478      0.0019
     70  CG2      -19.2330   52.4200   53.1680 C.3   478  ILE478      0.0019
     71  CD1      -20.3030   49.7320   54.2990 C.3   478  ILE478      0.0001
     72  N        -23.3210   60.2300   52.0300 N.3   493  LEU493     -0.1231
     73  CA       -24.5120   59.4200   52.2550 C.3   493  LEU493      0.1693
     74  C        -25.3890   59.8930   53.4110 C.2   493  LEU493      0.2591
     75  O        -26.6160   59.8080   53.3320 O.2   493  LEU493     -0.2718
     76  CB       -24.1130   57.9560   52.4430 C.3   493  LEU493      0.0284
     77  CG       -23.4710   57.3280   51.1960 C.3   493  LEU493      0.0019
     78  CD1      -23.0400   55.8910   51.4980 C.3   493  LEU493      0.0001
     79  CD2      -24.4630   57.3480   50.0410 C.3   493  LEU493      0.0001
     80  N        -24.7800   60.4130   54.4710 N.am  494  ARG494     -0.1980
     81  CA       -25.5670   60.8880   55.6070 C.3   494  ARG494      0.1597
     82  C        -26.5750   61.9350   55.1530 C.2   494  ARG494      0.2287
     83  O        -27.7010   61.9820   55.6510 O.2   494  ARG494     -0.2864
     84  CB       -24.6590   61.4650   56.7050 C.3   494  ARG494      0.0334
     85  CG       -23.7920   62.6490   56.2860 C.3   494  ARG494      0.0492
     86  CD       -23.0100   63.1970   57.4880 C.3   494  ARG494      0.2205
     87  NE       -21.8840   64.0370   57.0800 N.pl3 494  ARG494     -0.0865
     88  CZ       -21.9920   65.2880   56.6420 C.cat 494  ARG494      0.5346
     89  NH1      -23.1840   65.8660   56.5570 N.pl3 494  ARG494      0.1354
     90  NH2      -20.9030   65.9570   56.2720 N.pl3 494  ARG494      0.1354
     91  N        -29.5510   60.3690   53.3480 N.3   497  ARG497     -0.1245
     92  CA       -30.4920   59.7510   54.2780 C.3   497  ARG497      0.1563
     93  C        -31.4680   60.8150   54.7670 C.2   497  ARG497      0.2260
     94  O        -32.6790   60.5960   54.8150 O.2   497  ARG497     -0.2867
     95  CB       -29.7530   59.1640   55.4760 C.3   497  ARG497      0.0307
     96  CG       -30.6510   58.4070   56.4440 C.3   497  ARG497      0.0489
     97  CD       -29.8420   57.9380   57.6320 C.3   497  ARG497      0.2205
     98  NE       -30.5050   56.8900   58.3950 N.pl3 497  ARG497     -0.0865
     99  CZ       -29.9140   56.2130   59.3730 C.cat 497  ARG497      0.5346
    100  NH1      -28.6540   56.4860   59.6970 N.pl3 497  ARG497      0.1354
    101  NH2      -30.5730   55.2640   60.0210 N.pl3 497  ARG497      0.1354
    102  N        -35.4290   51.8040   53.9680 N.3   524  TRP524     -0.1241
    103  CA       -34.0900   51.9250   54.5340 C.3   524  TRP524      0.1605
    104  C        -33.9350   53.2460   55.2800 C.2   524  TRP524      0.2264
    105  O        -33.1240   53.3570   56.2000 O.2   524  TRP524     -0.2867
    106  CB       -33.0170   51.8580   53.4380 C.3   524  TRP524      0.0550
    107  CG       -33.1480   52.9090   52.3610 C.ar  524  TRP524      0.0003
    108  CD1      -33.8280   52.7950   51.1800 C.ar  524  TRP524      0.0946
    109  CD2      -32.5740   54.2250   52.3650 C.ar  524  TRP524      0.0152
    110  NE1      -33.7070   53.9520   50.4490 N.ar  524  TRP524     -0.2442
    111  CE2      -32.9430   54.8460   51.1540 C.ar  524  TRP524      0.0810
    112  CE3      -31.7840   54.9360   53.2750 C.ar  524  TRP524      0.0012
    113  CZ2      -32.5470   56.1450   50.8290 C.ar  524  TRP524      0.0191
    114  CZ3      -31.3910   56.2280   52.9490 C.ar  524  TRP524      0.0001
    115  CH2      -31.7730   56.8170   51.7360 C.ar  524  TRP524      0.0015
    116  N        -38.4480   49.9130   60.9900 N.3   529  LYS529     -0.1245
    117  CA       -38.7340   49.2940   59.7030 C.3   529  LYS529      0.1561
    118  C        -40.1400   48.7260   59.6040 C.2   529  LYS529      0.2260
    119  O        -40.6620   48.1520   60.5610 O.2   529  LYS529     -0.2867
    120  CB       -37.7320   48.1690   59.4340 C.3   529  LYS529      0.0271
    121  CG       -36.2800   48.5770   59.5920 C.3   529  LYS529      0.0035
    122  CD       -35.9200   49.6990   58.6410 C.3   529  LYS529      0.0206
    123  CE       -34.4820   50.1460   58.8440 C.3   529  LYS529      0.1093
    124  NZ       -34.1210   51.2270   57.8940 N.3   529  LYS529     -0.1314
@<TRIPOS>BOND
     1     9    10    1
     2    10    11    1
     3    10    13    1
     4    14    13    1
     5    14    15    1
     6     1     2    1
     7    11    12    2
     8    11    20   am
     9     3     4    2
    10     3     2    1
    11    22    23    2
    12    22    21    1
    13    20    21    1
    14    15    16    1
    15     2     5    1
    16    34    33    1
    17    21    24    1
    18     5     6    1
    19    16    17    2
    20    61    59   ar
    21    61    62   ar
    22    63    62    1
    23    24    25    1
    24    33    35    1
    25    33    32    1
    26    59    57   ar
    27     6     8    1
    28     6     7    1
    29    79    77    1
    30    62    60   ar
    31    64    65    1
    32    67    66    2
    33    17    18    1
    34    17    19    1
    35   110   111   ar
    36   110   108   ar
    37    66    65    1
    38    25    26    1
    39   113   111   ar
    40   113   115   ar
    41    32    29    1
    42    65    68    1
    43   111   109   ar
    44   108   107   ar
    45    77    78    1
    46    77    76    1
    47    57    56    1
    48    57    58   ar
    49    60    58   ar
    50   115   114   ar
    51    56    53    1
    52    26    27    1
    53    72    73    1
    54    28    29    1
    55    29    30    1
    56    73    76    1
    57    73    74    1
    58   107   109   ar
    59   107   106    1
    60   109   112   ar
    61    68    69    1
    62    68    70    1
    63    53    54    1
    64    53    52    1
    65    69    71    1
    66   114   112   ar
    67    54    55    2
    68    30    31    2
    69    30    36   am
    70    75    74    2
    71    91    92    1
    72    74    80   am
    73   106   103    1
    74    36    37    1
    75   102   103    1
    76    52    48   am
    77    92    93    1
    78    92    95    1
    79    80    81    1
    80   103   104    1
    81    49    48    2
    82    39    38    2
    83    93    94    2
    84    48    47    1
    85    37    38    1
    86    37    40    1
    87    38    46   am
    88    82    81    1
    89    82    83    2
    90   104   105    2
    91    95    96    1
    92    81    84    1
    93    46    47    1
    94    47    50    1
    95    40    41    1
    96    90    88    1
    97    85    84    1
    98    85    86    1
    99    96    97    1
   100    89    88    1
   101    88    87    2
   102    43    41   ar
   103    43    45   ar
   104    41    42   ar
   105    50    51    1
   106    87    86    1
   107    97    98    1
   108    45    44   ar
   109    42    44   ar
   110   124   123    1
   111    98    99    2
   112   122   123    1
   113   122   121    1
   114    99   100    1
   115    99   101    1
   116   120   121    1
   117   120   117    1
   118   118   117    1
   119   118   119    2
   120   117   116    1
