@<TRIPOS>MOLECULE
tmp/4j04A00.pdb
 136 131 0 0 0
SMALL
GASTEIGER

@<TRIPOS>ATOM
      1  N        -26.0000   49.4150   47.4860 N.3   415  LEU415     -0.1245
      2  CA       -25.9810   50.4650   48.4890 C.3   415  LEU415      0.1561
      3  C        -26.1640   51.8270   47.8270 C.2   415  LEU415      0.2260
      4  O        -26.9230   52.6650   48.3110 O.2   415  LEU415     -0.2867
      5  CB       -24.6430   50.4250   49.2320 C.3   415  LEU415      0.0270
      6  CG       -24.3680   51.5520   50.2230 C.3   415  LEU415      0.0019
      7  CD1      -25.3740   51.4730   51.3610 C.3   415  LEU415      0.0001
      8  CD2      -22.9430   51.4390   50.7500 C.3   415  LEU415      0.0001
      9  N        -29.8260   52.4300   46.0200 N.3   418  ARG418     -0.1231
     10  CA       -30.8710   52.6140   47.0220 C.3   418  ARG418      0.1694
     11  C        -30.7590   53.9530   47.7580 C.2   418  ARG418      0.2591
     12  O        -31.7200   54.7230   47.8170 O.2   418  ARG418     -0.2718
     13  CB       -30.8240   51.4710   48.0370 C.3   418  ARG418      0.0321
     14  CG       -31.1130   50.1090   47.4410 C.3   418  ARG418      0.0489
     15  CD       -30.8480   49.0060   48.4510 C.3   418  ARG418      0.2205
     16  NE       -31.9230   48.8730   49.4340 N.pl3 418  ARG418     -0.0865
     17  CZ       -31.8220   48.1660   50.5540 C.cat 418  ARG418      0.5346
     18  NH1      -30.6900   47.5350   50.8410 N.pl3 418  ARG418      0.1354
     19  NH2      -32.8600   48.0700   51.3760 N.pl3 418  ARG418      0.1354
     20  N        -29.5820   54.2290   48.3110 N.am  419  MET419     -0.1979
     21  CA       -29.3760   55.4550   49.0660 C.3   419  MET419      0.1605
     22  C        -29.2900   56.7190   48.2270 C.2   419  MET419      0.2287
     23  O        -29.7550   57.7770   48.6590 O.2   419  MET419     -0.2864
     24  CB       -28.1120   55.3510   49.9310 C.3   419  MET419      0.0413
     25  CG       -28.2040   54.3480   51.0730 C.3   419  MET419      0.0598
     26  SD       -26.8000   54.4510   52.2100 S.3   419  MET419     -0.1393
     27  CE       -27.2690   55.8910   53.1920 C.3   419  MET419      0.0692
     28  N        -34.2050   44.7250   51.9120 N.3   469  THR469     -0.1203
     29  CA       -33.7340   44.4670   53.2710 C.3   469  THR469      0.1994
     30  C        -32.2370   44.2060   53.4090 C.2   469  THR469      0.2618
     31  O        -31.7570   43.9540   54.5140 O.2   469  THR469     -0.2717
     32  CB       -34.4420   43.2480   53.8830 C.3   469  THR469      0.1784
     33  OG1      -33.9670   42.0530   53.2450 O.3   469  THR469     -0.2211
     34  CG2      -35.9480   43.3520   53.6920 C.3   469  THR469      0.0376
     35  N        -31.4970   44.2450   52.3050 N.am  470  LEU470     -0.1965
     36  CA       -30.0610   44.0010   52.3810 C.3   470  LEU470      0.1728
     37  C        -29.3760   45.0010   53.2960 C.2   470  LEU470      0.2616
     38  O        -29.7060   46.1870   53.2950 O.2   470  LEU470     -0.2715
     39  CB       -29.4150   44.0760   50.9970 C.3   470  LEU470      0.0311
     40  CG       -29.8080   42.9950   49.9890 C.3   470  LEU470      0.0022
     41  CD1      -28.8640   43.0420   48.7970 C.3   470  LEU470      0.0001
     42  CD2      -29.7370   41.6340   50.6600 C.3   470  LEU470      0.0001
     43  N        -28.4120   44.5110   54.0680 N.am  471  HIS471     -0.1959
     44  CA       -27.6530   45.3460   54.9850 C.3   471  HIS471      0.1787
     45  C        -26.3060   44.6800   55.2000 C.2   471  HIS471      0.2621
     46  O        -26.0660   43.5790   54.7060 O.2   471  HIS471     -0.2715
     47  CB       -28.3930   45.4830   56.3200 C.3   471  HIS471      0.0785
     48  CG       -28.5110   44.1990   57.0780 C.ar  471  HIS471      0.0821
     49  ND1      -27.4880   43.6960   57.8550 N.ar  471  HIS471     -0.2267
     50  CD2      -29.5210   43.3010   57.1580 C.ar  471  HIS471      0.1154
     51  CE1      -27.8650   42.5450   58.3820 C.ar  471  HIS471      0.1986
     52  NE2      -29.0940   42.2820   57.9740 N.ar  471  HIS471     -0.2212
     53  N        -25.4250   45.3510   55.9270 N.am  472  SER472     -0.1936
     54  CA       -24.1020   44.8150   56.2000 C.3   472  SER472      0.2055
     55  C        -23.3500   44.5000   54.9120 C.2   472  SER472      0.2643
     56  O        -22.9310   43.3630   54.6810 O.2   472  SER472     -0.2714
     57  CB       -24.2130   43.5560   57.0670 C.3   472  SER472      0.2130
     58  OG       -24.8290   43.8640   58.3100 O.3   472  SER472     -0.2179
     59  N        -23.1860   45.5140   54.0690 N.am  473  TYR473     -0.1973
     60  CA       -22.4630   45.3410   52.8180 C.3   473  TYR473      0.1639
     61  C        -20.9870   45.1370   53.1460 C.2   473  TYR473      0.2290
     62  O        -20.5590   45.4010   54.2700 O.2   473  TYR473     -0.2864
     63  CB       -22.6420   46.5710   51.9250 C.3   473  TYR473      0.0560
     64  CG       -24.0610   46.7720   51.4260 C.ar  473  TYR473     -0.0198
     65  CD1      -25.0160   47.4280   52.2030 C.ar  473  TYR473     -0.0009
     66  CD2      -24.4400   46.3180   50.1700 C.ar  473  TYR473     -0.0009
     67  CE1      -26.3100   47.6280   51.7300 C.ar  473  TYR473      0.0417
     68  CE2      -25.7220   46.5090   49.6920 C.ar  473  TYR473      0.0417
     69  CZ       -26.6550   47.1640   50.4680 C.ar  473  TYR473      0.1957
     70  OH       -27.9290   47.3560   49.9680 O.3   473  TYR473     -0.2866
     71  N        -18.4110   49.3150   50.3930 N.3   478  ILE478     -0.1245
     72  CA       -18.7000   50.5610   51.0870 C.3   478  ILE478      0.1561
     73  C        -17.6110   51.5890   50.7900 C.2   478  ILE478      0.2260
     74  O        -17.9090   52.7410   50.4770 O.2   478  ILE478     -0.2867
     75  CB       -18.7900   50.3470   52.6130 C.3   478  ILE478      0.0252
     76  CG1      -20.0400   49.5250   52.9470 C.3   478  ILE478      0.0019
     77  CG2      -18.8260   51.6980   53.3360 C.3   478  ILE478      0.0019
     78  CD1      -20.0960   49.0670   54.3960 C.3   478  ILE478      0.0001
     79  N        -18.0940   55.3080   49.0470 N.3   482  ALA482     -0.1245
     80  CA       -17.7050   56.5000   49.7990 C.3   482  ALA482      0.1562
     81  C        -16.6300   57.3190   49.0850 C.2   482  ALA482      0.2260
     82  O        -16.7680   58.5300   48.9290 O.2   482  ALA482     -0.2867
     83  CB       -17.2170   56.1020   51.2080 C.3   482  ALA482      0.0290
     84  N        -23.1360   59.6540   52.4060 N.3   493  LEU493     -0.1231
     85  CA       -24.2990   58.8010   52.6070 C.3   493  LEU493      0.1693
     86  C        -25.1790   59.2030   53.7920 C.2   493  LEU493      0.2591
     87  O        -26.3940   59.0110   53.7580 O.2   493  LEU493     -0.2718
     88  CB       -23.8500   57.3420   52.7340 C.3   493  LEU493      0.0284
     89  CG       -23.2300   56.7720   51.4480 C.3   493  LEU493      0.0019
     90  CD1      -22.6460   55.3930   51.7060 C.3   493  LEU493      0.0001
     91  CD2      -24.2940   56.7020   50.3580 C.3   493  LEU493      0.0001
     92  N        -24.5860   59.7780   54.8340 N.am  494  ARG494     -0.1980
     93  CA       -25.3870   60.1860   55.9850 C.3   494  ARG494      0.1597
     94  C        -26.3940   61.2300   55.5290 C.2   494  ARG494      0.2287
     95  O        -27.5260   61.2600   56.0120 O.2   494  ARG494     -0.2864
     96  CB       -24.5080   60.7580   57.1080 C.3   494  ARG494      0.0334
     97  CG       -23.7700   62.0510   56.7630 C.3   494  ARG494      0.0492
     98  CD       -23.0020   62.5850   57.9780 C.3   494  ARG494      0.2205
     99  NE       -22.0740   63.6490   57.6090 N.pl3 494  ARG494     -0.0865
    100  CZ       -22.4430   64.8630   57.2160 C.cat 494  ARG494      0.5346
    101  NH1      -23.7280   65.1840   57.1450 N.pl3 494  ARG494      0.1354
    102  NH2      -21.5220   65.7540   56.8770 N.pl3 494  ARG494      0.1354
    103  N        -29.3050   59.5620   53.7190 N.3   497  ARG497     -0.1245
    104  CA       -30.2390   58.8810   54.6110 C.3   497  ARG497      0.1563
    105  C        -31.2580   59.8970   55.1190 C.2   497  ARG497      0.2260
    106  O        -32.4560   59.6120   55.1920 O.2   497  ARG497     -0.2867
    107  CB       -29.5140   58.2560   55.8040 C.3   497  ARG497      0.0307
    108  CG       -30.4530   57.4770   56.7120 C.3   497  ARG497      0.0489
    109  CD       -29.8090   57.0710   58.0240 C.3   497  ARG497      0.2205
    110  NE       -30.7140   56.2320   58.8050 N.pl3 497  ARG497     -0.0865
    111  CZ       -30.7740   56.2210   60.1330 C.cat 497  ARG497      0.5346
    112  NH1      -29.9800   57.0100   60.8450 N.pl3 497  ARG497      0.1354
    113  NH2      -31.6310   55.4180   60.7510 N.pl3 497  ARG497      0.1354
    114  N        -35.0140   50.8290   54.3100 N.3   524  TRP524     -0.1241
    115  CA       -33.6400   50.8780   54.8110 C.3   524  TRP524      0.1605
    116  C        -33.3250   52.1570   55.5830 C.2   524  TRP524      0.2264
    117  O        -32.4120   52.1800   56.4070 O.2   524  TRP524     -0.2867
    118  CB       -32.6370   50.7700   53.6550 C.3   524  TRP524      0.0550
    119  CG       -32.7740   51.8510   52.6120 C.ar  524  TRP524      0.0003
    120  CD1      -33.4820   51.7780   51.4440 C.ar  524  TRP524      0.0946
    121  CD2      -32.2290   53.1800   52.6660 C.ar  524  TRP524      0.0152
    122  NE1      -33.4140   52.9790   50.7730 N.ar  524  TRP524     -0.2442
    123  CE2      -32.6510   53.8540   51.5010 C.ar  524  TRP524      0.0810
    124  CE3      -31.4270   53.8650   53.5880 C.ar  524  TRP524      0.0012
    125  CZ2      -32.3020   55.1790   51.2350 C.ar  524  TRP524      0.0191
    126  CZ3      -31.0800   55.1850   53.3210 C.ar  524  TRP524      0.0001
    127  CH2      -31.5180   55.8250   52.1540 C.ar  524  TRP524      0.0015
    128  N        -38.2650   49.1240   61.2020 N.3   529  LYS529     -0.1245
    129  CA       -38.5840   48.5320   59.9090 C.3   529  LYS529      0.1561
    130  C        -40.0410   48.0970   59.8220 C.2   529  LYS529      0.2260
    131  O        -40.6580   47.7480   60.8270 O.2   529  LYS529     -0.2867
    132  CB       -37.6870   47.3170   59.6560 C.3   529  LYS529      0.0271
    133  CG       -36.2010   47.5820   59.8410 C.3   529  LYS529      0.0035
    134  CD       -35.7030   48.6630   58.8970 C.3   529  LYS529      0.0206
    135  CE       -34.2140   48.9100   59.0900 C.3   529  LYS529      0.1093
    136  NZ       -33.6990   49.9650   58.1710 N.3   529  LYS529     -0.1314
@<TRIPOS>BOND
     1     9    10    1
     2    10    11    1
     3    10    13    1
     4    14    13    1
     5    14    15    1
     6     1     2    1
     7    11    12    2
     8    11    20   am
     9     3     4    2
    10     3     2    1
    11    22    23    2
    12    22    21    1
    13    20    21    1
    14    15    16    1
    15     2     5    1
    16    41    40    1
    17    82    81    2
    18    79    80    1
    19    21    24    1
    20    81    80    1
    21     5     6    1
    22    16    17    2
    23    68    66   ar
    24    68    69   ar
    25    80    83    1
    26    24    25    1
    27    70    69    1
    28    40    42    1
    29    40    39    1
    30    66    64   ar
    31     6     8    1
    32     6     7    1
    33    91    89    1
    34    71    72    1
    35    69    67   ar
    36    74    73    2
    37    17    18    1
    38    17    19    1
    39   122   120   ar
    40   122   123   ar
    41    73    72    1
    42    39    36    1
    43    25    26    1
    44    72    75    1
    45   125   123   ar
    46   125   127   ar
    47    64    63    1
    48    64    65   ar
    49   120   119   ar
    50    89    90    1
    51    89    88    1
    52   123   121   ar
    53    67    65   ar
    54    28    29    1
    55    63    60    1
    56   127   126   ar
    57    26    27    1
    58    35    36    1
    59    35    30   am
    60    36    37    1
    61    84    85    1
    62    85    88    1
    63    85    86    1
    64   119   121   ar
    65   119   118    1
    66    75    76    1
    67    75    77    1
    68   121   124   ar
    69    60    61    1
    70    60    59    1
    71    76    78    1
    72    61    62    2
    73    33    32    1
    74    29    30    1
    75    29    32    1
    76    38    37    2
    77    37    43   am
    78   126   124   ar
    79    30    31    2
    80   118   115    1
    81    34    32    1
    82   103   104    1
    83    87    86    2
    84    86    92   am
    85    43    44    1
    86    59    55   am
    87   114   115    1
    88   104   105    1
    89   104   107    1
    90    56    55    2
    91    46    45    2
    92   115   116    1
    93    92    93    1
    94    55    54    1
    95    44    45    1
    96    44    47    1
    97   105   106    2
    98    45    53   am
    99    94    93    1
   100    94    95    2
   101   116   117    2
   102   107   108    1
   103    53    54    1
   104    93    96    1
   105    54    57    1
   106    47    48    1
   107   108   109    1
   108    97    96    1
   109    97    98    1
   110   102   100    1
   111    57    58    1
   112    48    50   ar
   113    48    49   ar
   114   101   100    1
   115    50    52   ar
   116   100    99    2
   117    99    98    1
   118    49    51   ar
   119    52    51   ar
   120   109   110    1
   121   136   135    1
   122   110   111    2
   123   134   135    1
   124   134   133    1
   125   132   133    1
   126   132   129    1
   127   130   129    1
   128   130   131    2
   129   129   128    1
   130   111   113    1
   131   111   112    1
