@<TRIPOS>MOLECULE
tmp/4j04A01.pdb
 116 113 0 0 0
SMALL
GASTEIGER

@<TRIPOS>ATOM
      1  N        -21.9910   32.4380   40.7810 N.3   201  VAL201     -0.1245
      2  CA       -21.7690   31.8470   42.0920 C.3   201  VAL201      0.1561
      3  C        -21.7120   30.3210   42.0130 C.2   201  VAL201      0.2260
      4  O        -20.7710   29.7110   42.5090 O.2   201  VAL201     -0.2867
      5  CB       -22.8770   32.2700   43.0930 C.3   201  VAL201      0.0252
      6  CG1      -22.8090   31.4080   44.3460 C.3   201  VAL201      0.0019
      7  CG2      -22.7020   33.7380   43.4660 C.3   201  VAL201      0.0019
      8  N        -18.6890   29.0760   40.1500 N.3   204  TRP204     -0.1227
      9  CA       -17.5150   29.2350   40.9930 C.3   204  TRP204      0.1737
     10  C        -17.4320   28.1210   42.0400 C.2   204  TRP204      0.2595
     11  O        -16.3760   27.5200   42.2400 O.2   204  TRP204     -0.2718
     12  CB       -17.5590   30.5980   41.6840 C.3   204  TRP204      0.0564
     13  CG       -16.2940   30.9490   42.3990 C.ar  204  TRP204      0.0003
     14  CD1      -16.0230   30.7790   43.7230 C.ar  204  TRP204      0.0946
     15  CD2      -15.1140   31.5120   41.8160 C.ar  204  TRP204      0.0152
     16  NE1      -14.7460   31.2050   44.0030 N.ar  204  TRP204     -0.2442
     17  CE2      -14.1670   31.6580   42.8470 C.ar  204  TRP204      0.0810
     18  CE3      -14.7680   31.9070   40.5190 C.ar  204  TRP204      0.0012
     19  CZ2      -12.8950   32.1800   42.6250 C.ar  204  TRP204      0.0191
     20  CZ3      -13.5050   32.4250   40.2990 C.ar  204  TRP204      0.0001
     21  CH2      -12.5840   32.5570   41.3460 C.ar  204  TRP204      0.0015
     22  N        -18.5540   27.8490   42.6990 N.am  205  LYS205     -0.1980
     23  CA       -18.6090   26.8160   43.7290 C.3   205  LYS205      0.1596
     24  C        -18.4420   25.3930   43.1970 C.2   205  LYS205      0.2287
     25  O        -18.0510   24.4970   43.9410 O.2   205  LYS205     -0.2864
     26  CB       -19.9360   26.8950   44.4860 C.3   205  LYS205      0.0298
     27  CG       -20.1230   28.1530   45.3030 C.3   205  LYS205      0.0038
     28  CD       -21.4000   28.0660   46.1210 C.3   205  LYS205      0.0206
     29  CE       -22.6000   27.7750   45.2340 C.3   205  LYS205      0.1093
     30  NZ       -23.8610   27.6590   46.0170 N.3   205  LYS205     -0.1314
     31  N         -8.4520   34.5450   42.0630 N.3   354  TYR354     -0.1227
     32  CA        -8.8620   33.3970   42.8560 C.3   354  TYR354      0.1736
     33  C         -9.9860   33.7420   43.8200 C.2   354  TYR354      0.2595
     34  O        -10.2910   32.9850   44.7440 O.2   354  TYR354     -0.2718
     35  CB        -7.6420   32.8270   43.5880 C.3   354  TYR354      0.0548
     36  CG        -6.6120   32.3070   42.6110 C.ar  354  TYR354     -0.0200
     37  CD1       -6.7610   31.0640   42.0140 C.ar  354  TYR354     -0.0009
     38  CD2       -5.5450   33.1050   42.2050 C.ar  354  TYR354     -0.0009
     39  CE1       -5.8850   30.6280   41.0360 C.ar  354  TYR354      0.0417
     40  CE2       -4.6640   32.6770   41.2240 C.ar  354  TYR354      0.0417
     41  CZ        -4.8410   31.4410   40.6450 C.ar  354  TYR354      0.1957
     42  OH        -3.9750   31.0150   39.6650 O.3   354  TYR354     -0.2866
     43  N        -10.6030   34.8940   43.5900 N.am  355  ASP355     -0.1960
     44  CA       -11.7180   35.3530   44.4050 C.3   355  ASP355      0.1840
     45  C        -12.7630   35.9600   43.4660 C.2   355  ASP355      0.2622
     46  O        -12.4940   36.9470   42.7890 O.2   355  ASP355     -0.2715
     47  CB       -11.2480   36.4040   45.4100 C.3   355  ASP355      0.1450
     48  CG       -12.2670   36.6500   46.5000 C.2   355  ASP355      0.3671
     49  OD1      -12.0560   36.1620   47.6340 O.co2 355  ASP355     -0.2456
     50  OD2      -13.2870   37.3180   46.2200 O.co2 355  ASP355     -0.2456
     51  N        -13.9510   35.3670   43.4360 N.am  356  LEU356     -0.1963
     52  CA       -15.0300   35.8220   42.5650 C.3   356  LEU356      0.1728
     53  C        -15.3620   37.3100   42.6560 C.2   356  LEU356      0.2616
     54  O        -15.7310   37.9270   41.6560 O.2   356  LEU356     -0.2715
     55  CB       -16.2990   35.0040   42.8390 C.3   356  LEU356      0.0311
     56  CG       -17.5070   35.2950   41.9390 C.3   356  LEU356      0.0022
     57  CD1      -17.1420   35.0060   40.4870 C.3   356  LEU356      0.0001
     58  CD2      -18.6920   34.4410   42.3660 C.3   356  LEU356      0.0001
     59  N        -15.2350   37.8960   43.8410 N.am  357  GLU357     -0.1977
     60  CA       -15.5640   39.3110   43.9940 C.3   357  GLU357      0.1602
     61  C        -14.6140   40.2220   43.2170 C.2   357  GLU357      0.2287
     62  O        -14.9930   41.3230   42.8340 O.2   357  GLU357     -0.2864
     63  CB       -15.5610   39.7080   45.4800 C.3   357  GLU357      0.0415
     64  CG       -16.3560   40.9840   45.7780 C.3   357  GLU357      0.1163
     65  CD       -16.4480   41.3050   47.2640 C.2   357  GLU357      0.3649
     66  OE1      -17.1760   42.2590   47.6260 O.co2 357  GLU357     -0.2457
     67  OE2      -15.7940   40.6100   48.0720 O.co2 357  GLU357     -0.2457
     68  N        -19.5720   40.7560   41.3650 N.3   366  VAL366     -0.1231
     69  CA       -20.4770   40.1830   42.3460 C.3   366  VAL366      0.1692
     70  C        -19.9520   40.5430   43.7290 C.2   366  VAL366      0.2593
     71  O        -18.7430   40.6230   43.9410 O.2   366  VAL366     -0.2718
     72  CB       -20.5500   38.6380   42.2310 C.3   366  VAL366      0.0266
     73  CG1      -21.5190   38.0860   43.2730 C.3   366  VAL366      0.0020
     74  CG2      -21.0040   38.2310   40.8260 C.3   366  VAL366      0.0020
     75  N        -20.8610   40.7920   44.6630 N.am  367  SER367     -0.1938
     76  CA       -20.4670   41.1050   46.0300 C.3   367  SER367      0.2055
     77  C        -21.5020   40.4720   46.9510 C.2   367  SER367      0.2642
     78  O        -22.4490   39.8460   46.4780 O.2   367  SER367     -0.2714
     79  CB       -20.4070   42.6200   46.2430 C.3   367  SER367      0.2130
     80  OG       -19.8320   42.9110   47.5040 O.3   367  SER367     -0.2179
     81  N        -21.3380   40.6300   48.2590 N.am  368  VAL368     -0.1977
     82  CA       -22.2860   40.0250   49.1820 C.3   368  VAL368      0.1596
     83  C        -22.8090   40.9780   50.2560 C.2   368  VAL368      0.2287
     84  O        -22.1200   41.9160   50.6730 O.2   368  VAL368     -0.2864
     85  CB       -21.6540   38.7870   49.8760 C.3   368  VAL368      0.0276
     86  CG1      -20.6450   39.2280   50.9190 C.3   368  VAL368      0.0022
     87  CG2      -22.7380   37.9110   50.4970 C.3   368  VAL368      0.0022
     88  N        -26.4670   35.2590   54.0180 N.3   376  ARG376     -0.1245
     89  CA       -25.6550   35.8220   52.9470 C.3   376  ARG376      0.1563
     90  C        -26.4500   35.8670   51.6470 C.2   376  ARG376      0.2260
     91  O        -27.1390   34.9140   51.2900 O.2   376  ARG376     -0.2867
     92  CB       -24.4000   34.9760   52.7140 C.3   376  ARG376      0.0307
     93  CG       -23.6670   34.5530   53.9710 C.3   376  ARG376      0.0489
     94  CD       -22.2640   35.1180   54.0150 C.3   376  ARG376      0.2205
     95  NE       -21.5020   34.8220   52.8000 N.pl3 376  ARG376     -0.0865
     96  CZ       -20.3260   35.3720   52.5230 C.cat 376  ARG376      0.5346
     97  NH1      -19.7890   36.2330   53.3770 N.pl3 376  ARG376      0.1354
     98  NH2      -19.6970   35.0840   51.3910 N.pl3 376  ARG376      0.1354
     99  N        -25.8630   37.1640   47.5680 N.3   378  TYR378     -0.1241
    100  CA       -24.9990   37.7130   46.5360 C.3   378  TYR378      0.1605
    101  C        -25.8180   38.5860   45.6050 C.2   378  TYR378      0.2264
    102  O        -26.9940   38.3250   45.3640 O.2   378  TYR378     -0.2867
    103  CB       -24.3280   36.5700   45.7680 C.3   378  TYR378      0.0534
    104  CG       -23.3930   35.7790   46.6450 C.ar  378  TYR378     -0.0201
    105  CD1      -22.1100   36.2330   46.9050 C.ar  378  TYR378     -0.0009
    106  CD2      -23.8240   34.6300   47.2900 C.ar  378  TYR378     -0.0009
    107  CE1      -21.2850   35.5660   47.7870 C.ar  378  TYR378      0.0417
    108  CE2      -23.0050   33.9590   48.1760 C.ar  378  TYR378      0.0417
    109  CZ       -21.7370   34.4340   48.4220 C.ar  378  TYR378      0.1957
    110  OH       -20.9190   33.7870   49.3180 O.3   378  TYR378     -0.2866
    111  N        -20.2060   44.6710   52.1750 N.3   474  SER474     -0.1217
    112  CA       -18.7860   44.4360   52.4140 C.3   474  SER474      0.1889
    113  C        -18.0200   45.7450   52.5570 C.2   474  SER474      0.2288
    114  O        -18.4230   46.7800   52.0250 O.2   474  SER474     -0.2866
    115  CB       -18.1780   43.6060   51.2780 C.3   474  SER474      0.2089
    116  OG       -18.0110   44.3840   50.1030 O.3   474  SER474     -0.2183
@<TRIPOS>BOND
     1    42    41    1
     2     8     9    1
     3    20    18   ar
     4    20    21   ar
     5    57    56    1
     6    18    15   ar
     7    41    39   ar
     8    41    40   ar
     9     1     2    1
    10    74    72    1
    11     9    12    1
    12     9    10    1
    13    39    37   ar
    14    40    38   ar
    15    21    19   ar
    16    68    69    1
    17    54    53    2
    18    12    13    1
    19    15    13   ar
    20    15    17   ar
    21    56    58    1
    22    56    55    1
    23     3     2    1
    24     3     4    2
    25    37    36   ar
    26    10    11    2
    27    10    22   am
    28    31    32    1
    29     2     5    1
    30    38    36   ar
    31    72    69    1
    32    72    73    1
    33    69    70    1
    34    13    14   ar
    35    52    53    1
    36    52    55    1
    37    52    51    1
    38    36    35    1
    39    19    17   ar
    40    53    59   am
    41    22    23    1
    42    46    45    2
    43    62    61    2
    44    17    16   ar
    45    32    35    1
    46    32    33    1
    47     5     7    1
    48     5     6    1
    49    24    23    1
    50    24    25    2
    51    61    60    1
    52    51    45   am
    53    45    44    1
    54    43    33   am
    55    43    44    1
    56    14    16   ar
    57    23    26    1
    58    70    71    2
    59    70    75   am
    60    33    34    2
    61    59    60    1
    62    60    63    1
    63    44    47    1
    64    26    27    1
    65    75    76    1
    66    29    30    1
    67    29    28    1
    68    27    28    1
    69   102   101    2
    70    47    48    1
    71    63    64    1
    72   101   100    1
    73   103   100    1
    74   103   104    1
    75    64    65    1
    76    76    79    1
    77    76    77    1
    78    50    48   ar
    79    79    80    1
    80    78    77    2
    81    48    49   ar
    82   100    99    1
    83   104   105   ar
    84   104   106   ar
    85   105   107   ar
    86    77    81   am
    87    65    66   ar
    88    65    67   ar
    89   106   108   ar
    90   107   109   ar
    91   108   109   ar
    92    81    82    1
    93   109   110    1
    94    82    85    1
    95    82    83    1
    96    85    87    1
    97    85    86    1
    98   116   115    1
    99    83    84    2
   100   115   112    1
   101    91    90    2
   102    98    96    1
   103    90    89    1
   104   114   113    2
   105   111   112    1
   106   112   113    1
   107    96    95    2
   108    96    97    1
   109    92    89    1
   110    92    93    1
   111    95    94    1
   112    89    88    1
   113    93    94    1
