@<TRIPOS>MOLECULE
tmp/4j06B00.pdb
 113 110 0 0 0
SMALL
GASTEIGER

@<TRIPOS>ATOM
      1  N        -23.2870  -15.8830  -13.0250 N.3   414  LEU414     -0.1245
      2  CA       -23.3270  -16.9430  -14.0200 C.3   414  LEU414      0.1561
      3  C        -23.5360  -16.3790  -15.4240 C.2   414  LEU414      0.2260
      4  O        -22.8260  -16.7440  -16.3630 O.2   414  LEU414     -0.2867
      5  CB       -24.4580  -17.9080  -13.6560 C.3   414  LEU414      0.0270
      6  CG       -24.5380  -19.2830  -14.3090 C.3   414  LEU414      0.0019
      7  CD1      -23.1860  -19.9820  -14.2280 C.3   414  LEU414      0.0001
      8  CD2      -25.6140  -20.0990  -13.6000 C.3   414  LEU414      0.0001
      9  N        -20.5390  -14.0160  -16.7700 N.3   417  ARG417     -0.1231
     10  CA       -19.3640  -14.8150  -17.1000 C.3   417  ARG417      0.1694
     11  C        -19.5260  -15.6710  -18.3570 C.2   417  ARG417      0.2591
     12  O        -18.6800  -15.6450  -19.2500 O.2   417  ARG417     -0.2718
     13  CB       -19.0060  -15.7210  -15.9210 C.3   417  ARG417      0.0321
     14  CG       -18.6630  -14.9740  -14.6370 C.3   417  ARG417      0.0489
     15  CD       -18.3760  -15.9480  -13.5110 C.3   417  ARG417      0.2205
     16  NE       -17.1400  -16.6930  -13.7370 N.pl3 417  ARG417     -0.0865
     17  CZ       -16.7110  -17.6840  -12.9620 C.cat 417  ARG417      0.5346
     18  NH1      -17.4210  -18.0610  -11.9060 N.pl3 417  ARG417      0.1354
     19  NH2      -15.5610  -18.2840  -13.2330 N.pl3 417  ARG417      0.1354
     20  N        -20.6130  -16.4270  -18.4320 N.am  418  MET418     -0.1979
     21  CA       -20.8370  -17.3050  -19.5770 C.3   418  MET418      0.1605
     22  C        -21.3610  -16.6330  -20.8410 C.2   418  MET418      0.2287
     23  O        -20.9660  -16.9960  -21.9530 O.2   418  MET418     -0.2864
     24  CB       -21.7800  -18.4370  -19.1760 C.3   418  MET418      0.0413
     25  CG       -21.2380  -19.2840  -18.0410 C.3   418  MET418      0.0598
     26  SD       -22.3300  -20.6230  -17.5560 S.3   418  MET418     -0.1393
     27  CE       -21.8040  -21.9150  -18.6970 C.3   418  MET418      0.0692
     28  N        -15.8620  -18.9860   -8.8830 N.3   469  LEU469     -0.1231
     29  CA       -17.1720  -19.3350   -8.3450 C.3   469  LEU469      0.1693
     30  C        -17.8130  -20.4760   -9.1260 C.2   469  LEU469      0.2592
     31  O        -17.7180  -20.5430  -10.3530 O.2   469  LEU469     -0.2718
     32  CB       -18.1120  -18.1260   -8.3550 C.3   469  LEU469      0.0284
     33  CG       -17.9050  -17.0790   -7.2610 C.3   469  LEU469      0.0019
     34  CD1      -18.9870  -16.0100   -7.3650 C.3   469  LEU469      0.0001
     35  CD2      -17.9520  -17.7570   -5.8940 C.3   469  LEU469      0.0001
     36  N        -18.4640  -21.3720   -8.3940 N.am  470  HIS470     -0.1962
     37  CA       -19.1400  -22.5210   -8.9800 C.3   470  HIS470      0.1787
     38  C        -20.2480  -22.9540   -8.0310 C.2   470  HIS470      0.2621
     39  O        -20.3560  -22.4430   -6.9150 O.2   470  HIS470     -0.2715
     40  CB       -18.1500  -23.6720   -9.1880 C.3   470  HIS470      0.0785
     41  CG       -17.5420  -24.1810   -7.9180 C.ar  470  HIS470      0.0821
     42  ND1      -18.2700  -24.8550   -6.9610 N.ar  470  HIS470     -0.2267
     43  CD2      -16.2780  -24.0940   -7.4370 C.ar  470  HIS470      0.1154
     44  CE1      -17.4820  -25.1600   -5.9450 C.ar  470  HIS470      0.1986
     45  NE2      -16.2690  -24.7090   -6.2090 N.ar  470  HIS470     -0.2212
     46  N        -21.0720  -23.8950   -8.4780 N.am  471  SER471     -0.1936
     47  CA       -22.1720  -24.3960   -7.6680 C.3   471  SER471      0.2055
     48  C        -23.0800  -23.2690   -7.1730 C.2   471  SER471      0.2643
     49  O        -23.1990  -23.0330   -5.9690 O.2   471  SER471     -0.2714
     50  CB       -21.6240  -25.1830   -6.4770 C.3   471  SER471      0.2130
     51  OG       -20.8000  -26.2490   -6.9220 O.3   471  SER471     -0.2179
     52  N        -23.7190  -22.5780   -8.1120 N.am  472  TYR472     -0.1973
     53  CA       -24.6290  -21.4920   -7.7710 C.3   472  TYR472      0.1639
     54  C        -25.9190  -22.0650   -7.1830 C.2   472  TYR472      0.2290
     55  O        -26.1020  -23.2820   -7.1470 O.2   472  TYR472     -0.2864
     56  CB       -24.9390  -20.6530   -9.0150 C.3   472  TYR472      0.0560
     57  CG       -23.7580  -19.8640   -9.5420 C.ar  472  TYR472     -0.0198
     58  CD1      -22.7360  -20.4850  -10.2510 C.ar  472  TYR472     -0.0009
     59  CD2      -23.6680  -18.4930   -9.3330 C.ar  472  TYR472     -0.0009
     60  CE1      -21.6570  -19.7570  -10.7400 C.ar  472  TYR472      0.0417
     61  CE2      -22.5950  -17.7600   -9.8150 C.ar  472  TYR472      0.0417
     62  CZ       -21.5980  -18.3900  -10.5160 C.ar  472  TYR472      0.1957
     63  OH       -20.5410  -17.6540  -11.0060 O.3   472  TYR472     -0.2866
     64  N        -29.8710  -20.1710  -10.7440 N.3   477  ILE477     -0.1245
     65  CA       -29.7220  -20.9420  -11.9680 C.3   477  ILE477      0.1561
     66  C        -31.0450  -20.9740  -12.7280 C.2   477  ILE477      0.2260
     67  O        -31.0820  -20.7390  -13.9310 O.2   477  ILE477     -0.2867
     68  CB       -29.2670  -22.3900  -11.6640 C.3   477  ILE477      0.0252
     69  CG1      -27.8350  -22.3780  -11.1190 C.3   477  ILE477      0.0019
     70  CG2      -29.3550  -23.2460  -12.9250 C.3   477  ILE477      0.0019
     71  CD1      -27.2890  -23.7580  -10.7700 C.3   477  ILE477      0.0001
     72  N        -27.2130  -21.9870  -21.2600 N.3   492  LEU492     -0.1231
     73  CA       -25.9170  -21.7160  -20.6410 C.3   492  LEU492      0.1693
     74  C        -24.7990  -22.6380  -21.1180 C.2   492  LEU492      0.2591
     75  O        -23.8190  -22.1740  -21.7000 O.2   492  LEU492     -0.2718
     76  CB       -26.0350  -21.7760  -19.1140 C.3   492  LEU492      0.0284
     77  CG       -26.7800  -20.5970  -18.4750 C.3   492  LEU492      0.0019
     78  CD1      -26.9190  -20.8150  -16.9760 C.3   492  LEU492      0.0001
     79  CD2      -26.0230  -19.3040  -18.7650 C.3   492  LEU492      0.0001
     80  N        -24.9540  -23.9400  -20.8920 N.am  493  ARG493     -0.1980
     81  CA       -23.9410  -24.9170  -21.2970 C.3   493  ARG493      0.1597
     82  C        -23.4270  -24.7530  -22.7310 C.2   493  ARG493      0.2287
     83  O        -22.2720  -25.0690  -23.0180 O.2   493  ARG493     -0.2864
     84  CB       -24.4790  -26.3410  -21.1190 C.3   493  ARG493      0.0334
     85  CG       -25.8490  -26.5430  -21.7290 C.3   493  ARG493      0.0492
     86  CD       -26.0870  -27.9720  -22.1790 C.3   493  ARG493      0.2205
     87  NE       -26.0450  -28.9380  -21.0890 N.pl3 493  ARG493     -0.0865
     88  CZ       -26.4490  -30.2000  -21.2030 C.cat 493  ARG493      0.5346
     89  NH1      -26.9300  -30.6420  -22.3570 N.pl3 493  ARG493      0.1354
     90  NH2      -26.3640  -31.0250  -20.1670 N.pl3 493  ARG493      0.1354
     91  N        -13.3440  -20.9340  -16.4830 N.3   523  TRP523     -0.1241
     92  CA       -14.4840  -21.7990  -16.1950 C.3   523  TRP523      0.1605
     93  C        -14.8530  -22.6370  -17.4170 C.2   523  TRP523      0.2264
     94  O        -15.5740  -23.6270  -17.3010 O.2   523  TRP523     -0.2867
     95  CB       -15.7000  -20.9590  -15.7890 C.3   523  TRP523      0.0550
     96  CG       -16.0610  -19.9320  -16.8170 C.ar  523  TRP523      0.0003
     97  CD1      -15.5890  -18.6530  -16.8990 C.ar  523  TRP523      0.0946
     98  CD2      -16.9050  -20.1210  -17.9610 C.ar  523  TRP523      0.0152
     99  NE1      -16.0820  -18.0360  -18.0240 N.ar  523  TRP523     -0.2442
    100  CE2      -16.8920  -18.9160  -18.6940 C.ar  523  TRP523      0.0810
    101  CE3      -17.6660  -21.1940  -18.4390 C.ar  523  TRP523      0.0012
    102  CZ2      -17.6100  -18.7530  -19.8790 C.ar  523  TRP523      0.0191
    103  CZ3      -18.3780  -21.0320  -19.6180 C.ar  523  TRP523      0.0001
    104  CH2      -18.3440  -19.8190  -20.3250 C.ar  523  TRP523      0.0015
    105  N         -8.9540  -27.0740  -15.3150 N.3   528  LYS528     -0.1245
    106  CA        -8.7740  -25.7990  -14.6260 C.3   528  LYS528      0.1561
    107  C         -7.3190  -25.4390  -14.3440 C.2   528  LYS528      0.2260
    108  O         -6.4890  -26.3110  -14.0880 O.2   528  LYS528     -0.2867
    109  CB        -9.5380  -25.8080  -13.2980 C.3   528  LYS528      0.0271
    110  CG       -10.9890  -26.2400  -13.4050 C.3   528  LYS528      0.0035
    111  CD       -11.7950  -25.3030  -14.2870 C.3   528  LYS528      0.0206
    112  CE       -13.2350  -25.7760  -14.3920 C.3   528  LYS528      0.1093
    113  NZ       -14.0610  -24.8870  -15.2520 N.3   528  LYS528     -0.1314
@<TRIPOS>BOND
     1    83    82    2
     2    82    81    1
     3    89    88    1
     4    86    85    1
     5    86    87    1
     6    23    22    2
     7    85    84    1
     8    75    74    2
     9    81    84    1
    10    81    80    1
    11    72    73    1
    12    88    87    2
    13    88    90    1
    14    74    80   am
    15    74    73    1
    16    22    21    1
    17    73    76    1
    18   104   102   ar
    19   104   103   ar
    20   102   100   ar
    21   103   101   ar
    22    21    24    1
    23    21    20    1
    24    12    11    2
    25    24    25    1
    26    76    77    1
    27    79    77    1
    28    27    26    1
    29   100    99   ar
    30   100    98   ar
    31    77    78    1
    32   101    98   ar
    33    20    11   am
    34    11    10    1
    35    25    26    1
    36    99    97   ar
    37    98    96   ar
    38    93    94    2
    39    93    92    1
    40    10     9    1
    41    10    13    1
    42    97    96   ar
    43    96    95    1
    44    91    92    1
    45     4     3    2
    46    92    95    1
    47    13    14    1
    48     3     2    1
    49   105   106    1
    50   113   112    1
    51    14    15    1
    52   106   107    1
    53   106   109    1
    54   112   111    1
    55   107   108    2
    56     6     7    1
    57     6     5    1
    58     6     8    1
    59   111   110    1
    60     2     5    1
    61     2     1    1
    62    67    66    2
    63    16    15    1
    64    16    17    2
    65   110   109    1
    66    19    17    1
    67    17    18    1
    68    70    68    1
    69    66    65    1
    70    65    68    1
    71    65    64    1
    72    68    69    1
    73    69    71    1
    74    63    62    1
    75    60    62   ar
    76    60    58   ar
    77    62    61   ar
    78    31    30    2
    79    58    57   ar
    80    61    59   ar
    81    57    59   ar
    82    57    56    1
    83    40    37    1
    84    40    41    1
    85    30    36   am
    86    30    29    1
    87    56    53    1
    88    37    36    1
    89    37    38    1
    90    28    29    1
    91    46    38   am
    92    46    47    1
    93    32    29    1
    94    32    33    1
    95    52    53    1
    96    52    48   am
    97    38    39    2
    98    41    43   ar
    99    41    42   ar
   100    53    54    1
   101    47    48    1
   102    47    50    1
   103    43    45   ar
   104    34    33    1
   105    33    35    1
   106    54    55    2
   107    48    49    2
   108    42    44   ar
   109    51    50    1
   110    45    44   ar
