@<TRIPOS>MOLECULE
tmp/4j08A00.pdb
 140 135 0 0 0
SMALL
GASTEIGER

@<TRIPOS>ATOM
      1  N        -25.1910   48.2040   48.3020 N.3   415  LEU415     -0.1245
      2  CA       -25.1250   49.2150   49.3380 C.3   415  LEU415      0.1561
      3  C        -25.2900   50.6170   48.7400 C.2   415  LEU415      0.2260
      4  O        -25.9210   51.4850   49.3400 O.2   415  LEU415     -0.2867
      5  CB       -23.7720   49.0900   50.0430 C.3   415  LEU415      0.0270
      6  CG       -23.2990   50.1580   51.0210 C.3   415  LEU415      0.0019
      7  CD1      -24.2460   50.2300   52.2080 C.3   415  LEU415      0.0001
      8  CD2      -21.8830   49.8130   51.4770 C.3   415  LEU415      0.0001
      9  N        -29.0490   51.3450   47.0250 N.3   418  ARG418     -0.1231
     10  CA       -30.0680   51.5110   48.0540 C.3   418  ARG418      0.1694
     11  C        -29.8840   52.8310   48.7910 C.2   418  ARG418      0.2591
     12  O        -30.7900   53.6540   48.8420 O.2   418  ARG418     -0.2718
     13  CB       -30.0020   50.3530   49.0470 C.3   418  ARG418      0.0321
     14  CG       -30.2060   48.9830   48.4060 C.3   418  ARG418      0.0489
     15  CD       -29.9340   47.8720   49.3900 C.3   418  ARG418      0.2205
     16  NE       -30.9340   47.8370   50.4460 N.pl3 418  ARG418     -0.0865
     17  CZ       -30.7810   47.2000   51.5990 C.cat 418  ARG418      0.5346
     18  NH1      -29.6570   46.5440   51.8510 N.pl3 418  ARG418      0.1354
     19  NH2      -31.7570   47.2200   52.4940 N.pl3 418  ARG418      0.1354
     20  N        -28.6950   53.0340   49.3480 N.am  419  MET419     -0.1979
     21  CA       -28.4030   54.2500   50.0870 C.3   419  MET419      0.1605
     22  C        -28.4770   55.5260   49.2480 C.2   419  MET419      0.2287
     23  O        -29.0050   56.5400   49.6980 O.2   419  MET419     -0.2864
     24  CB       -27.0140   54.1560   50.7230 C.3   419  MET419      0.0413
     25  CG       -26.5950   55.4160   51.4820 C.3   419  MET419      0.0598
     26  SD       -24.8800   55.3640   52.0480 S.3   419  MET419     -0.1393
     27  CE       -24.0380   55.9780   50.6080 C.3   419  MET419      0.0692
     28  N        -30.4300   43.3700   53.2970 N.3   470  LEU470     -0.1231
     29  CA       -28.9880   43.1310   53.3520 C.3   470  LEU470      0.1693
     30  C        -28.2260   44.1140   54.2340 C.2   470  LEU470      0.2592
     31  O        -28.5500   45.2910   54.2950 O.2   470  LEU470     -0.2718
     32  CB       -28.3690   43.1560   51.9540 C.3   470  LEU470      0.0284
     33  CG       -28.7770   42.0850   50.9430 C.3   470  LEU470      0.0019
     34  CD1      -27.7970   42.1190   49.7830 C.3   470  LEU470      0.0001
     35  CD2      -28.7690   40.7200   51.5860 C.3   470  LEU470      0.0001
     36  N        -27.2010   43.6130   54.9090 N.am  471  HIS471     -0.1962
     37  CA       -26.3720   44.4360   55.7690 C.3   471  HIS471      0.1787
     38  C        -25.0550   43.6990   55.9330 C.2   471  HIS471      0.2621
     39  O        -24.9030   42.5800   55.4450 O.2   471  HIS471     -0.2715
     40  CB       -27.0350   44.6290   57.1300 C.3   471  HIS471      0.0785
     41  CG       -27.1320   43.3690   57.9230 C.ar  471  HIS471      0.0821
     42  ND1      -26.0590   42.8370   58.6070 N.ar  471  HIS471     -0.2267
     43  CD2      -28.1590   42.5080   58.1040 C.ar  471  HIS471      0.1154
     44  CE1      -26.4220   41.7020   59.1750 C.ar  471  HIS471      0.1986
     45  NE2      -27.6910   41.4790   58.8840 N.ar  471  HIS471     -0.2212
     46  N        -24.1130   44.3310   56.6220 N.am  472  SER472     -0.1936
     47  CA       -22.7950   43.7640   56.8390 C.3   472  SER472      0.2055
     48  C        -22.1630   43.3640   55.5030 C.2   472  SER472      0.2643
     49  O        -21.9130   42.1890   55.2370 O.2   472  SER472     -0.2714
     50  CB       -22.8870   42.5600   57.7830 C.3   472  SER472      0.2130
     51  OG       -23.4300   42.9530   59.0360 O.3   472  SER472     -0.2179
     52  N        -21.9370   44.3670   54.6580 N.am  473  TYR473     -0.1973
     53  CA       -21.3210   44.1740   53.3560 C.3   473  TYR473      0.1639
     54  C        -19.8240   43.9040   53.5500 C.2   473  TYR473      0.2290
     55  O        -19.2730   44.1690   54.6210 O.2   473  TYR473     -0.2864
     56  CB       -21.5300   45.4230   52.4930 C.3   473  TYR473      0.0560
     57  CG       -22.9680   45.6450   52.0580 C.ar  473  TYR473     -0.0198
     58  CD1      -23.8840   46.2870   52.8830 C.ar  473  TYR473     -0.0009
     59  CD2      -23.4010   45.2160   50.8060 C.ar  473  TYR473     -0.0009
     60  CE1      -25.2010   46.5050   52.4620 C.ar  473  TYR473      0.0417
     61  CE2      -24.7010   45.4220   50.3800 C.ar  473  TYR473      0.0417
     62  CZ       -25.5950   46.0690   51.1990 C.ar  473  TYR473      0.1957
     63  OH       -26.8540   46.3200   50.7200 O.3   473  TYR473     -0.2866
     64  N        -17.2460   47.9160   50.9200 N.3   478  ILE478     -0.1245
     65  CA       -17.3910   49.1460   51.6930 C.3   478  ILE478      0.1561
     66  C        -16.2810   50.1390   51.3530 C.2   478  ILE478      0.2260
     67  O        -16.5450   51.3260   51.1680 O.2   478  ILE478     -0.2867
     68  CB       -17.4020   48.8550   53.2190 C.3   478  ILE478      0.0252
     69  CG1      -18.6990   48.1370   53.5920 C.3   478  ILE478      0.0019
     70  CG2      -17.3030   50.1560   54.0220 C.3   478  ILE478      0.0019
     71  CD1      -18.7520   47.6890   55.0320 C.3   478  ILE478      0.0001
     72  N        -16.9400   51.6460   47.8510 N.3   481  VAL481     -0.1231
     73  CA       -18.0190   52.6270   47.8480 C.3   481  VAL481      0.1692
     74  C        -17.5820   53.9170   48.5280 C.2   481  VAL481      0.2591
     75  O        -17.8370   55.0160   48.0270 O.2   481  VAL481     -0.2718
     76  CB       -19.2840   52.0880   48.5630 C.3   481  VAL481      0.0266
     77  CG1      -20.2590   53.2250   48.8280 C.3   481  VAL481      0.0020
     78  CG2      -19.9440   51.0240   47.7070 C.3   481  VAL481      0.0020
     79  N        -16.9040   53.7790   49.6650 N.am  482  ALA482     -0.1980
     80  CA       -16.4490   54.9380   50.4180 C.3   482  ALA482      0.1597
     81  C        -15.4750   55.7990   49.6260 C.2   482  ALA482      0.2287
     82  O        -15.6290   57.0140   49.5740 O.2   482  ALA482     -0.2864
     83  CB       -15.8120   54.4980   51.7270 C.3   482  ALA482      0.0319
     84  N        -17.3730   57.8060   47.0580 N.3   485  LEU485     -0.1245
     85  CA       -18.0850   58.9640   47.5790 C.3   485  LEU485      0.1561
     86  C        -17.1350   60.1360   47.8400 C.2   485  LEU485      0.2260
     87  O        -17.4780   61.2850   47.5670 O.2   485  LEU485     -0.2867
     88  CB       -18.8450   58.5820   48.8540 C.3   485  LEU485      0.0270
     89  CG       -19.6800   57.2950   48.7430 C.3   485  LEU485      0.0019
     90  CD1      -20.7090   57.2520   49.8540 C.3   485  LEU485      0.0001
     91  CD2      -20.3800   57.2430   47.3950 C.3   485  LEU485      0.0001
     92  N        -22.0830   61.6630   52.8910 N.3   492  PRO492     -0.2102
     93  CA       -21.8610   60.4380   53.6670 C.3   492  PRO492      0.1504
     94  C        -23.1500   59.6950   54.0530 C.2   492  PRO492      0.2575
     95  O        -24.2550   60.2160   53.9020 O.2   492  PRO492     -0.2718
     96  CB       -21.1070   60.9490   54.8940 C.3   492  PRO492      0.0282
     97  CG       -21.7460   62.3040   55.1120 C.3   492  PRO492      0.0208
     98  CD       -21.7730   62.8580   53.7020 C.3   492  PRO492      0.0893
     99  N        -22.9890   58.4780   54.5630 N.am  493  LEU493     -0.1980
    100  CA       -24.1230   57.6560   54.9740 C.3   493  LEU493      0.1596
    101  C        -25.1420   58.4130   55.8340 C.2   493  LEU493      0.2287
    102  O        -26.3390   58.4060   55.5370 O.2   493  LEU493     -0.2864
    103  CB       -23.6300   56.4340   55.7440 C.3   493  LEU493      0.0297
    104  CG       -24.7400   55.6200   56.4040 C.3   493  LEU493      0.0022
    105  CD1      -25.6890   55.0890   55.3390 C.3   493  LEU493      0.0001
    106  CD2      -24.1350   54.4940   57.2060 C.3   493  LEU493      0.0001
    107  N        -29.0530   58.6200   55.1800 N.3   497  ARG497     -0.1245
    108  CA       -29.9850   58.0030   56.1280 C.3   497  ARG497      0.1563
    109  C        -31.0540   59.0240   56.5110 C.2   497  ARG497      0.2260
    110  O        -32.2480   58.7190   56.5180 O.2   497  ARG497     -0.2867
    111  CB       -29.2490   57.5170   57.3900 C.3   497  ARG497      0.0307
    112  CG       -30.1620   56.8800   58.4580 C.3   497  ARG497      0.0489
    113  CD       -29.3710   56.2030   59.5630 C.3   497  ARG497      0.2205
    114  NE       -28.4170   57.1100   60.2050 N.pl3 497  ARG497     -0.0865
    115  CZ       -27.0970   56.9250   60.2070 C.cat 497  ARG497      0.5346
    116  NH1      -26.5750   55.8630   59.6020 N.pl3 497  ARG497      0.1354
    117  NH2      -26.2940   57.7990   60.8100 N.pl3 497  ARG497      0.1354
    118  N        -33.9130   49.9100   55.4800 N.3   524  TRP524     -0.1241
    119  CA       -32.5350   50.0060   55.9560 C.3   524  TRP524      0.1605
    120  C        -32.2560   51.2920   56.7250 C.2   524  TRP524      0.2264
    121  O        -31.2810   51.3750   57.4680 O.2   524  TRP524     -0.2867
    122  CB       -31.5460   49.9380   54.7880 C.3   524  TRP524      0.0550
    123  CG       -31.7240   51.0520   53.7790 C.ar  524  TRP524      0.0003
    124  CD1      -32.4630   51.0070   52.6280 C.ar  524  TRP524      0.0946
    125  CD2      -31.1930   52.3820   53.8590 C.ar  524  TRP524      0.0152
    126  NE1      -32.4230   52.2220   51.9930 N.ar  524  TRP524     -0.2442
    127  CE2      -31.6530   53.0850   52.7270 C.ar  524  TRP524      0.0810
    128  CE3      -30.3740   53.0480   54.7760 C.ar  524  TRP524      0.0012
    129  CZ2      -31.3230   54.4230   52.4920 C.ar  524  TRP524      0.0191
    130  CZ3      -30.0490   54.3730   54.5410 C.ar  524  TRP524      0.0001
    131  CH2      -30.5220   55.0460   53.4100 C.ar  524  TRP524      0.0015
    132  N        -37.4350   48.2190   62.5260 N.3   529  LYS529     -0.1245
    133  CA       -37.7350   47.5410   61.2720 C.3   529  LYS529      0.1561
    134  C        -39.1970   47.1230   61.1990 C.2   529  LYS529      0.2260
    135  O        -39.8870   47.0310   62.2170 O.2   529  LYS529     -0.2867
    136  CB       -36.8550   46.2990   61.1250 C.3   529  LYS529      0.0271
    137  CG       -35.3690   46.5600   61.2840 C.3   529  LYS529      0.0035
    138  CD       -34.8760   47.5540   60.2660 C.3   529  LYS529      0.0206
    139  CE       -33.3780   47.7750   60.4030 C.3   529  LYS529      0.1093
    140  NZ       -32.9130   48.8360   59.4580 N.3   529  LYS529     -0.1314
@<TRIPOS>BOND
     1     9    10    1
     2    84    85    1
     3    91    89    1
     4    87    86    2
     5    85    86    1
     6    85    88    1
     7    78    76    1
     8    73    72    1
     9    73    74    1
    10    73    76    1
    11    75    74    2
    12    10    11    1
    13    10    13    1
    14     1     2    1
    15    14    13    1
    16    14    15    1
    17    74    79   am
    18    76    77    1
    19     3     2    1
    20     3     4    2
    21    89    88    1
    22    89    90    1
    23    11    12    2
    24    11    20   am
    25    22    23    2
    26    22    21    1
    27     2     5    1
    28    20    21    1
    29    15    16    1
    30    82    81    2
    31    81    80    1
    32    79    80    1
    33    34    33    1
    34     5     6    1
    35    21    24    1
    36    61    59   ar
    37    61    62   ar
    38    80    83    1
    39    16    17    2
    40    27    26    1
    41    63    62    1
    42    24    25    1
    43    59    57   ar
    44    64    65    1
    45    33    35    1
    46    33    32    1
    47     6     8    1
    48     6     7    1
    49    67    66    2
    50    62    60   ar
    51    66    65    1
    52    25    26    1
    53    17    18    1
    54    17    19    1
    55    65    68    1
    56    32    29    1
    57   126   124   ar
    58   126   127   ar
    59    57    56    1
    60    57    58   ar
    61    60    58   ar
    62   129   127   ar
    63   129   131   ar
    64    56    53    1
    65   124   123   ar
    66   127   125   ar
    67    92    93    1
    68    92    98    1
    69    68    69    1
    70    68    70    1
    71    28    29    1
    72    29    30    1
    73    53    54    1
    74    53    52    1
    75   131   130   ar
    76    54    55    2
    77    69    71    1
    78    93    94    1
    79    93    96    1
    80    98    97    1
    81   123   125   ar
    82   123   122    1
    83   125   128   ar
    84    95    94    2
    85    94    99   am
    86    30    31    2
    87    30    36   am
    88   130   128   ar
    89    99   100    1
    90    52    48   am
    91   122   119    1
    92    96    97    1
    93    36    37    1
    94   100   103    1
    95   100   101    1
    96   107   108    1
    97    49    48    2
    98   105   104    1
    99    39    38    2
   100   118   119    1
   101    48    47    1
   102   102   101    2
   103   103   104    1
   104    37    38    1
   105    37    40    1
   106    38    46   am
   107   119   120    1
   108   108   109    1
   109   108   111    1
   110   104   106    1
   111   109   110    2
   112    46    47    1
   113   120   121    2
   114    47    50    1
   115    40    41    1
   116   111   112    1
   117    50    51    1
   118    41    43   ar
   119    41    42   ar
   120    43    45   ar
   121   112   113    1
   122    42    44   ar
   123    45    44   ar
   124   140   139    1
   125   113   114    1
   126   116   115    1
   127   114   115    2
   128   115   117    1
   129   138   139    1
   130   138   137    1
   131   136   133    1
   132   136   137    1
   133   134   133    1
   134   134   135    2
   135   133   132    1
