@<TRIPOS>MOLECULE
tmp/4j09A00.pdb
 141 137 0 0 0
SMALL
GASTEIGER

@<TRIPOS>ATOM
      1  N         -7.0930   15.1740    5.9350 N.3    73  GLN73      -0.1231
      2  CA        -7.1070   14.8220    7.3560 C.3    73  GLN73       0.1698
      3  C         -7.5450   15.9770    8.2370 C.2    73  GLN73       0.2592
      4  O         -7.4960   15.8670    9.4620 O.2    73  GLN73      -0.2718
      5  CB        -5.7130   14.3060    7.7720 C.3    73  GLN73       0.0381
      6  CG        -5.2850   13.1390    6.8830 C.3    73  GLN73       0.0905
      7  CD        -3.9710   12.5550    7.2880 C.2    73  GLN73       0.2608
      8  OE1       -3.8880   11.3650    7.5710 O.2    73  GLN73      -0.2717
      9  NE2       -2.9050   13.3810    7.3040 N.am   73  GLN73      -0.0878
     10  N         -8.0520   17.0490    7.6270 N.am   74  ASP74      -0.1960
     11  CA        -8.5520   18.1960    8.3810 C.3    74  ASP74       0.1840
     12  C         -9.8260   17.7940    9.1050 C.2    74  ASP74       0.2621
     13  O        -10.7800   17.3530    8.4720 O.2    74  ASP74      -0.2715
     14  CB        -8.7750   19.4260    7.4640 C.3    74  ASP74       0.1450
     15  CG        -8.9770   20.7310    8.2370 C.2    74  ASP74       0.3671
     16  OD1       -9.5900   20.6910    9.3080 O.co2  74  ASP74      -0.2456
     17  OD2       -8.4620   21.7690    7.7910 O.co2  74  ASP74      -0.2456
     18  N         -9.8620   17.9830   10.4340 N.am   75  LEU75      -0.1977
     19  CA       -11.0440   17.6150   11.2220 C.3    75  LEU75       0.1596
     20  C        -12.2740   18.4850   10.8620 C.2    75  LEU75       0.2287
     21  O        -13.4050   18.0630   11.1090 O.2    75  LEU75      -0.2864
     22  CB       -10.7480   17.6780   12.7360 C.3    75  LEU75       0.0297
     23  CG        -9.8880   16.5050   13.2990 C.3    75  LEU75       0.0022
     24  CD1       -9.5220   16.7470   14.7470 C.3    75  LEU75       0.0001
     25  CD2      -10.6280   15.1700   13.2130 C.3    75  LEU75       0.0001
     26  N         -3.7460   14.9600   -0.8740 N.3    99  HIS99      -0.1241
     27  CA        -5.1340   15.0940   -0.4480 C.3    99  HIS99       0.1621
     28  C         -5.8140   16.3140   -1.0290 C.2    99  HIS99       0.2264
     29  O         -5.1640   17.3310   -1.2760 O.2    99  HIS99      -0.2867
     30  CB        -5.1930   15.1310    1.0850 C.3    99  HIS99       0.0745
     31  CG        -4.9210   13.8170    1.7460 C.ar   99  HIS99       0.0817
     32  ND1       -4.7700   13.7280    3.1160 N.ar   99  HIS99      -0.2268
     33  CD2       -4.8170   12.5730    1.2110 C.ar   99  HIS99       0.1154
     34  CE1       -4.6230   12.4390    3.3750 C.ar   99  HIS99       0.1986
     35  NE2       -4.6210   11.7100    2.2550 N.ar   99  HIS99      -0.2212
     36  N          4.0740   13.4190    1.6860 N.3   122  HIS122     -0.1241
     37  CA         2.6780   13.7780    1.9390 C.3   122  HIS122      0.1621
     38  C          2.4120   15.2200    1.5760 C.2   122  HIS122      0.2264
     39  O          3.1340   16.1020    2.0290 O.2   122  HIS122     -0.2867
     40  CB         2.3310   13.5550    3.4270 C.3   122  HIS122      0.0745
     41  CG         0.9540   14.0160    3.7670 C.ar  122  HIS122      0.0817
     42  ND1       -0.1650   13.3740    3.2620 N.ar  122  HIS122     -0.2268
     43  CD2        0.5560   15.0710    4.5170 C.ar  122  HIS122      0.1154
     44  CE1       -1.2070   14.0350    3.7600 C.ar  122  HIS122      0.1986
     45  NE2       -0.8200   15.0670    4.5070 N.ar  122  HIS122     -0.2212
     46  N         -0.6340   17.6440    1.9980 N.3   124  ALA124     -0.1231
     47  CA        -1.9060   17.8320    2.6900 C.3   124  ALA124      0.1694
     48  C         -2.8710   18.7320    1.9200 C.2   124  ALA124      0.2592
     49  O         -2.5100   19.3650    0.9180 O.2   124  ALA124     -0.2718
     50  CB        -1.6300   18.4580    4.0560 C.3   124  ALA124      0.0304
     51  N         -4.0850   18.8500    2.4420 N.am  125  HIS125     -0.1976
     52  CA        -5.0950   19.7580    1.8810 C.3   125  HIS125      0.1656
     53  C         -4.5680   21.1750    1.7110 C.2   125  HIS125      0.2291
     54  O         -3.8090   21.6580    2.5530 O.2   125  HIS125     -0.2864
     55  CB        -6.3110   19.8310    2.8120 C.3   125  HIS125      0.0771
     56  CG        -5.9910   20.2510    4.2150 C.ar  125  HIS125      0.0820
     57  ND1       -6.0780   21.5790    4.6110 N.ar  125  HIS125     -0.2267
     58  CD2       -5.6510   19.4920    5.2830 C.ar  125  HIS125      0.1154
     59  CE1       -5.8050   21.5850    5.9080 C.ar  125  HIS125      0.1986
     60  NE2       -5.5370   20.3450    6.3540 N.ar  125  HIS125     -0.2212
     61  N          6.9280   15.6410    4.7560 N.3   140  THR140     -0.1218
     62  CA         5.5040   15.8260    5.0600 C.3   140  THR140      0.1862
     63  C          5.1020   17.2840    5.1140 C.2   140  THR140      0.2287
     64  O          5.5960   18.0450    5.9410 O.2   140  THR140     -0.2866
     65  CB         5.1740   15.1270    6.3980 C.3   140  THR140      0.1770
     66  OG1        5.6960   13.7990    6.3690 O.3   140  THR140     -0.2211
     67  CG2        3.6700   15.0580    6.6830 C.3   140  THR140      0.0375
     68  N          2.2310   19.8940    6.0070 N.3   142  ALA142     -0.1231
     69  CA         0.9440   20.0340    6.6980 C.3   142  ALA142      0.1694
     70  C          0.0160   20.9180    5.8420 C.2   142  ALA142      0.2592
     71  O          0.3940   21.3220    4.7370 O.2   142  ALA142     -0.2718
     72  CB         1.1440   20.6160    8.0970 C.3   142  ALA142      0.0304
     73  N         -1.2220   21.0970    6.2750 N.am  143  GLY143     -0.1957
     74  CA        -2.1960   21.8610    5.5000 C.3   143  GLY143      0.1869
     75  C         -1.7470   23.2670    5.1480 C.2   143  GLY143      0.2309
     76  O         -1.0540   23.9250    5.9350 O.2   143  GLY143     -0.2863
     77  N          9.3460   17.6640    8.1530 N.3   158  ALA158     -0.1231
     78  CA         7.9740   18.1430    8.2550 C.3   158  ALA158      0.1694
     79  C          7.9190   19.6640    8.0600 C.2   158  ALA158      0.2592
     80  O          8.7960   20.3900    8.5370 O.2   158  ALA158     -0.2718
     81  CB         7.3940   17.7730    9.6210 C.3   158  ALA158      0.0304
     82  N          6.8780   20.1460    7.3800 N.am  159  VAL159     -0.1966
     83  CA         6.6640   21.5900    7.1970 C.3   159  VAL159      0.1727
     84  C          5.3440   21.9200    7.8640 C.2   159  VAL159      0.2616
     85  O          4.3410   21.3310    7.4730 O.2   159  VAL159     -0.2715
     86  CB         6.7020   22.0430    5.7150 C.3   159  VAL159      0.0290
     87  CG1        6.5190   23.5460    5.6230 C.3   159  VAL159      0.0023
     88  CG2        8.0070   21.6050    5.0340 C.3   159  VAL159      0.0023
     89  N          5.3540   22.8410    8.8690 N.am  160  HIS160     -0.1959
     90  CA         4.1870   23.2430    9.6920 C.3   160  HIS160      0.1787
     91  C          3.1430   23.8980    8.8180 C.2   160  HIS160      0.2620
     92  O          3.4840   24.5050    7.8010 O.2   160  HIS160     -0.2715
     93  CB         4.6370   24.1930   10.8480 C.3   160  HIS160      0.0785
     94  CG         3.5550   24.7530   11.7490 C.ar  160  HIS160      0.0821
     95  ND1        3.2860   24.1980   13.0030 N.ar  160  HIS160     -0.2267
     96  CD2        2.7810   25.8550   11.5940 C.ar  160  HIS160      0.1154
     97  CE1        2.3380   24.9580   13.5470 C.ar  160  HIS160      0.1986
     98  NE2        1.9950   25.9630   12.7320 N.ar  160  HIS160     -0.2212
     99  N          1.8690   23.8070    9.2180 N.am  161  GLN161     -0.1977
    100  CA         0.7530   24.3940    8.4560 C.3   161  GLN161      0.1601
    101  C          0.9760   25.8650    8.1040 C.2   161  GLN161      0.2287
    102  O          1.5510   26.6000    8.9090 O.2   161  GLN161     -0.2864
    103  CB        -0.5770   24.2630    9.2290 C.3   161  GLN161      0.0394
    104  CG        -0.5090   24.7300   10.6850 C.3   161  GLN161      0.0908
    105  CD        -1.8580   24.8400   11.3420 C.2   161  GLN161      0.2608
    106  OE1       -2.8230   24.1630   10.9550 O.2   161  GLN161     -0.2717
    107  NE2       -1.9410   25.6640   12.3770 N.am  161  GLN161     -0.0878
    108  N         12.4360   20.2100   10.9660 N.3   176  GLY176     -0.1210
    109  CA        11.1000   20.6720   11.3070 C.3   176  GLY176      0.1956
    110  C         11.0010   22.1370   10.9440 C.2   176  GLY176      0.2612
    111  O         11.6720   22.9540   11.5780 O.2   176  GLY176     -0.2717
    112  N         10.2270   22.4830    9.8720 N.am  177  VAL177     -0.1965
    113  CA        10.0730   23.8830    9.4190 C.3   177  VAL177      0.1727
    114  C          8.8190   24.4970   10.0570 C.2   177  VAL177      0.2616
    115  O          7.6960   24.0890    9.7460 O.2   177  VAL177     -0.2715
    116  CB        10.0720   24.0200    7.8740 C.3   177  VAL177      0.0290
    117  CG1        9.9420   25.4780    7.4610 C.3   177  VAL177      0.0023
    118  CG2       11.3400   23.4220    7.2850 C.3   177  VAL177      0.0023
    119  N          9.0130   25.4960   10.9430 N.am  178  ALA178     -0.1977
    120  CA         7.9040   26.1100   11.6810 C.3   178  ALA178      0.1597
    121  C          7.5700   27.5360   11.2290 C.2   178  ALA178      0.2287
    122  O          6.5670   28.0960   11.6700 O.2   178  ALA178     -0.2864
    123  CB         8.2080   26.1080   13.1750 C.3   178  ALA178      0.0319
    124  N         15.5360   21.4420   13.8440 N.3   190  ASN190     -0.1225
    125  CA        14.1760   21.3700   14.3620 C.3   190  ASN190      0.1785
    126  C         14.0830   22.2220   15.6390 C.2   190  ASN190      0.2597
    127  O         14.5390   21.7670   16.6770 O.2   190  ASN190     -0.2718
    128  CB        13.7620   19.9050   14.5920 C.3   190  ASN190      0.1169
    129  CG        12.3930   19.7140   15.2050 C.2   190  ASN190      0.2627
    130  OD1       11.4230   20.4080   14.8730 O.2   190  ASN190     -0.2716
    131  ND2       12.2930   18.7620   16.1250 N.am  190  ASN190     -0.0877
    132  N         13.5500   23.4600   15.5790 N.am  191  HIS191     -0.1975
    133  CA        12.9940   24.0930   14.3850 C.3   191  HIS191      0.1656
    134  C         14.1020   24.5710   13.4490 C.2   191  HIS191      0.2291
    135  O         15.1850   24.9510   13.8930 O.2   191  HIS191     -0.2864
    136  CB        12.0520   25.2490   14.7410 C.3   191  HIS191      0.0771
    137  CG        10.7910   24.8240   15.4390 C.ar  191  HIS191      0.0820
    138  ND1       10.3530   23.5030   15.4270 N.ar  191  HIS191     -0.2267
    139  CD2        9.9180   25.5630   16.1590 C.ar  191  HIS191      0.1154
    140  CE1        9.2320   23.4920   16.1260 C.ar  191  HIS191      0.1986
    141  NE2        8.9190   24.7100   16.5650 N.ar  191  HIS191     -0.2212
@<TRIPOS>BOND
     1    29    28    2
     2    28    27    1
     3    26    27    1
     4    27    30    1
     5    49    48    2
     6    30    31    1
     7    33    31   ar
     8    33    35   ar
     9    38    37    1
    10    38    39    2
    11    36    37    1
    12    53    52    1
    13    53    54    2
    14    31    32   ar
    15    52    51    1
    16    52    55    1
    17    48    51   am
    18    48    47    1
    19    37    40    1
    20    46    47    1
    21    35    34   ar
    22    47    50    1
    23    55    56    1
    24    32    34   ar
    25    42    44   ar
    26    42    41   ar
    27    40    41    1
    28    44    45   ar
    29    41    43   ar
    30    56    57   ar
    31    56    58   ar
    32    45    43   ar
    33    57    59   ar
    34    71    70    2
    35    61    62    1
    36    88    86    1
    37    62    63    1
    38    62    65    1
    39    63    64    2
    40    75    74    1
    41    75    76    2
    42    58    60   ar
    43    74    73    1
    44    87    86    1
    45    86    83    1
    46    70    73   am
    47    70    69    1
    48    59    60   ar
    49     1     2    1
    50    68    69    1
    51    66    65    1
    52    65    67    1
    53    69    72    1
    54     6     7    1
    55     6     5    1
    56    83    82    1
    57    83    84    1
    58   118   116    1
    59     7     9   am
    60     7     8    2
    61     2     5    1
    62     2     3    1
    63    82    79   am
    64   117   116    1
    65    14    15    1
    66    14    11    1
    67    85    84    2
    68    10     3   am
    69    10    11    1
    70    17    15   ar
    71    92    91    2
    72    84    89   am
    73   116   113    1
    74    79    78    1
    75    79    80    2
    76   101   100    1
    77   101   102    2
    78    77    78    1
    79    15    16   ar
    80     3     4    2
    81    78    81    1
    82    11    12    1
    83   100    99    1
    84   100   103    1
    85    13    12    2
    86    91    99   am
    87    91    90    1
    88    89    90    1
    89    12    18   am
    90   103   104    1
    91   113   112    1
    92   113   114    1
    93    90    93    1
    94   115   114    2
    95   112   110   am
    96   114   119   am
    97    18    19    1
    98   104   105    1
    99    93    94    1
   100    20    21    2
   101    20    19    1
   102   119   120    1
   103   110   109    1
   104   110   111    2
   105   106   105    2
   106   108   109    1
   107    19    22    1
   108   121   122    2
   109   121   120    1
   110   105   107   am
   111    96    94   ar
   112    96    98   ar
   113   120   123    1
   114    94    95   ar
   115    98    97   ar
   116    22    23    1
   117    95    97   ar
   118    25    23    1
   119    23    24    1
   120   134   135    2
   121   134   133    1
   122   124   125    1
   123   125   128    1
   124   125   126    1
   125   133   136    1
   126   133   132    1
   127   128   129    1
   128   136   137    1
   129   130   129    2
   130   129   131   am
   131   138   137   ar
   132   138   140   ar
   133   137   139   ar
   134   132   126   am
   135   126   127    2
   136   140   141   ar
   137   139   141   ar
