@<TRIPOS>MOLECULE
tmp/4j0aA00.pdb
 133 127 0 0 0
SMALL
GASTEIGER

@<TRIPOS>ATOM
      1  N        -25.1800   48.3010   48.3340 N.3   415  LEU415     -0.1245
      2  CA       -25.1850   49.3540   49.3230 C.3   415  LEU415      0.1561
      3  C        -25.3300   50.7330   48.6570 C.2   415  LEU415      0.2260
      4  O        -26.1070   51.5730   49.1070 O.2   415  LEU415     -0.2867
      5  CB       -23.8850   49.2690   50.1220 C.3   415  LEU415      0.0270
      6  CG       -23.4180   50.4880   50.9060 C.3   415  LEU415      0.0019
      7  CD1      -24.4470   50.8310   51.9670 C.3   415  LEU415      0.0001
      8  CD2      -22.0570   50.1940   51.5240 C.3   415  LEU415      0.0001
      9  N        -29.0640   51.4150   47.0810 N.3   418  ARG418     -0.1231
     10  CA       -30.1370   51.5880   48.0540 C.3   418  ARG418      0.1694
     11  C        -29.9920   52.8930   48.8270 C.2   418  ARG418      0.2591
     12  O        -30.9650   53.6260   49.0190 O.2   418  ARG418     -0.2718
     13  CB       -30.1510   50.4260   49.0400 C.3   418  ARG418      0.0321
     14  CG       -30.2300   49.0580   48.4070 C.3   418  ARG418      0.0489
     15  CD       -29.9560   47.9950   49.4360 C.3   418  ARG418      0.2205
     16  NE       -31.0220   47.9260   50.4210 N.pl3 418  ARG418     -0.0865
     17  CZ       -30.9010   47.3340   51.6010 C.cat 418  ARG418      0.5346
     18  NH1      -29.7580   46.7620   51.9460 N.pl3 418  ARG418      0.1354
     19  NH2      -31.9270   47.3160   52.4320 N.pl3 418  ARG418      0.1354
     20  N        -28.7660   53.1850   49.2490 N.am  419  MET419     -0.1979
     21  CA       -28.4830   54.3880   50.0220 C.3   419  MET419      0.1605
     22  C        -28.4780   55.6860   49.2160 C.2   419  MET419      0.2287
     23  O        -28.9280   56.7260   49.7040 O.2   419  MET419     -0.2864
     24  CB       -27.1400   54.2220   50.7410 C.3   419  MET419      0.0413
     25  CG       -26.6270   55.4560   51.4560 C.3   419  MET419      0.0598
     26  SD       -25.0000   55.1620   52.1940 S.3   419  MET419     -0.1393
     27  CE       -24.0570   56.4610   51.5310 C.3   419  MET419      0.0692
     28  N        -30.3420   43.2480   53.2870 N.3   470  LEU470     -0.1231
     29  CA       -28.9130   42.9600   53.3100 C.3   470  LEU470      0.1693
     30  C        -28.2110   43.9780   54.1630 C.2   470  LEU470      0.2592
     31  O        -28.5140   45.1580   54.1060 O.2   470  LEU470     -0.2718
     32  CB       -28.3050   42.9790   51.9000 C.3   470  LEU470      0.0284
     33  CG       -28.7450   41.8470   50.9760 C.3   470  LEU470      0.0019
     34  CD1      -28.0170   41.9330   49.6410 C.3   470  LEU470      0.0001
     35  CD2      -28.4650   40.5220   51.6680 C.3   470  LEU470      0.0001
     36  N        -27.2760   43.5090   54.9690 N.am  471  HIS471     -0.1962
     37  CA       -26.5130   44.3920   55.8120 C.3   471  HIS471      0.1787
     38  C        -25.1500   43.7430   55.9980 C.2   471  HIS471      0.2621
     39  O        -24.8880   42.6750   55.4500 O.2   471  HIS471     -0.2715
     40  CB       -27.2350   44.6010   57.1480 C.3   471  HIS471      0.0785
     41  CG       -27.4220   43.3470   57.9360 C.ar  471  HIS471      0.0821
     42  ND1      -26.3960   42.7470   58.6340 N.ar  471  HIS471     -0.2267
     43  CD2      -28.5000   42.5430   58.0880 C.ar  471  HIS471      0.1154
     44  CE1      -26.8330   41.6250   59.1780 C.ar  471  HIS471      0.1986
     45  NE2      -28.1070   41.4770   58.8610 N.ar  471  HIS471     -0.2212
     46  N        -24.2730   44.3970   56.7450 N.am  472  SER472     -0.1936
     47  CA       -22.9440   43.8600   56.9720 C.3   472  SER472      0.2055
     48  C        -22.2760   43.5060   55.6370 C.2   472  SER472      0.2643
     49  O        -21.9130   42.3540   55.4020 O.2   472  SER472     -0.2714
     50  CB       -23.0390   42.6150   57.8630 C.3   472  SER472      0.2130
     51  OG       -23.8690   42.8630   58.9900 O.3   472  SER472     -0.2179
     52  N        -22.1270   44.4930   54.7570 N.am  473  TYR473     -0.1973
     53  CA       -21.4870   44.2650   53.4630 C.3   473  TYR473      0.1639
     54  C        -20.0050   43.9600   53.6760 C.2   473  TYR473      0.2290
     55  O        -19.4900   44.1380   54.7670 O.2   473  TYR473     -0.2864
     56  CB       -21.6610   45.4910   52.5500 C.3   473  TYR473      0.0560
     57  CG       -23.0830   45.7110   52.0620 C.ar  473  TYR473     -0.0198
     58  CD1      -24.0280   46.3300   52.8640 C.ar  473  TYR473     -0.0009
     59  CD2      -23.4820   45.2860   50.7930 C.ar  473  TYR473     -0.0009
     60  CE1      -25.3280   46.5270   52.4170 C.ar  473  TYR473      0.0417
     61  CE2      -24.7800   45.4750   50.3440 C.ar  473  TYR473      0.0417
     62  CZ       -25.6970   46.0970   51.1570 C.ar  473  TYR473      0.1957
     63  OH       -26.9900   46.3040   50.7210 O.3   473  TYR473     -0.2866
     64  N        -17.2890   47.9640   50.9550 N.3   478  ILE478     -0.1245
     65  CA       -17.4480   49.2130   51.6900 C.3   478  ILE478      0.1561
     66  C        -16.3580   50.2110   51.3120 C.2   478  ILE478      0.2260
     67  O        -16.6450   51.3920   51.0690 O.2   478  ILE478     -0.2867
     68  CB       -17.4040   48.9900   53.2300 C.3   478  ILE478      0.0252
     69  CG1      -18.6810   48.2870   53.6920 C.3   478  ILE478      0.0019
     70  CG2      -17.2790   50.3140   53.9560 C.3   478  ILE478      0.0019
     71  CD1      -18.6790   47.9420   55.1690 C.3   478  ILE478      0.0001
     72  N        -16.8270   51.8180   47.7890 N.3   481  VAL481     -0.1231
     73  CA       -17.8830   52.8260   47.7540 C.3   481  VAL481      0.1692
     74  C        -17.4290   54.1110   48.4300 C.2   481  VAL481      0.2591
     75  O        -17.5250   55.2040   47.8560 O.2   481  VAL481     -0.2718
     76  CB       -19.1790   52.3170   48.4370 C.3   481  VAL481      0.0266
     77  CG1      -20.1350   53.4810   48.6910 C.3   481  VAL481      0.0020
     78  CG2      -19.8420   51.2760   47.5590 C.3   481  VAL481      0.0020
     79  N        -16.9150   53.9680   49.6450 N.am  482  ALA482     -0.1980
     80  CA       -16.4540   55.1050   50.4200 C.3   482  ALA482      0.1597
     81  C        -15.4990   55.9550   49.6070 C.2   482  ALA482      0.2287
     82  O        -15.7800   57.1180   49.3340 O.2   482  ALA482     -0.2864
     83  CB       -15.7750   54.6270   51.6900 C.3   482  ALA482      0.0319
     84  N        -17.3200   57.8730   46.9450 N.3   485  LEU485     -0.1245
     85  CA       -18.1040   59.0110   47.4260 C.3   485  LEU485      0.1561
     86  C        -17.1790   60.2100   47.7200 C.2   485  LEU485      0.2260
     87  O        -17.5490   61.3680   47.4810 O.2   485  LEU485     -0.2867
     88  CB       -18.8940   58.6130   48.6810 C.3   485  LEU485      0.0270
     89  CG       -19.8020   57.3750   48.5260 C.3   485  LEU485      0.0019
     90  CD1      -20.6730   57.2260   49.7460 C.3   485  LEU485      0.0001
     91  CD2      -20.6820   57.5080   47.2900 C.3   485  LEU485      0.0001
     92  N        -22.9170   58.6670   54.7440 N.3   493  LEU493     -0.1245
     93  CA       -24.0420   57.8550   55.1720 C.3   493  LEU493      0.1561
     94  C        -25.0750   58.6560   55.9580 C.2   493  LEU493      0.2260
     95  O        -26.2590   58.6570   55.6230 O.2   493  LEU493     -0.2867
     96  CB       -23.5420   56.6930   56.0290 C.3   493  LEU493      0.0270
     97  CG       -24.5750   55.7550   56.6610 C.3   493  LEU493      0.0019
     98  CD1      -25.3670   55.0510   55.5570 C.3   493  LEU493      0.0001
     99  CD2      -23.8690   54.7360   57.5600 C.3   493  LEU493      0.0001
    100  N        -29.1430   58.7770   55.2390 N.3   497  ARG497     -0.1245
    101  CA       -30.0930   58.1570   56.1530 C.3   497  ARG497      0.1563
    102  C        -31.1480   59.1910   56.5290 C.2   497  ARG497      0.2260
    103  O        -32.3520   58.9120   56.5060 O.2   497  ARG497     -0.2867
    104  CB       -29.3810   57.6300   57.4070 C.3   497  ARG497      0.0307
    105  CG       -30.2930   56.9060   58.4020 C.3   497  ARG497      0.0489
    106  CD       -29.4800   56.2460   59.5190 C.3   497  ARG497      0.2205
    107  NE       -28.6180   57.2230   60.1820 N.pl3 497  ARG497     -0.0865
    108  CZ       -27.3220   57.0450   60.4090 C.cat 497  ARG497      0.5346
    109  NH1      -26.7360   55.9200   60.0350 N.pl3 497  ARG497      0.1354
    110  NH2      -26.6020   58.0000   60.9760 N.pl3 497  ARG497      0.1354
    111  N        -33.9520   50.0500   55.5420 N.3   524  TRP524     -0.1241
    112  CA       -32.5760   50.1050   56.0410 C.3   524  TRP524      0.1605
    113  C        -32.3180   51.3860   56.8200 C.2   524  TRP524      0.2264
    114  O        -31.3810   51.4600   57.6150 O.2   524  TRP524     -0.2867
    115  CB       -31.5650   50.0380   54.8920 C.3   524  TRP524      0.0550
    116  CG       -31.7680   51.0900   53.8270 C.ar  524  TRP524      0.0003
    117  CD1      -32.4420   50.9360   52.6520 C.ar  524  TRP524      0.0946
    118  CD2      -31.2890   52.4450   53.8360 C.ar  524  TRP524      0.0152
    119  NE1      -32.4090   52.0990   51.9260 N.ar  524  TRP524     -0.2442
    120  CE2      -31.7090   53.0430   52.6290 C.ar  524  TRP524      0.0810
    121  CE3      -30.5420   53.2070   54.7390 C.ar  524  TRP524      0.0012
    122  CZ2      -31.4130   54.3730   52.3060 C.ar  524  TRP524      0.0191
    123  CZ3      -30.2470   54.5230   54.4180 C.ar  524  TRP524      0.0001
    124  CH2      -30.6800   55.0910   53.2120 C.ar  524  TRP524      0.0015
    125  N        -37.7370   48.3810   62.4900 N.3   529  LYS529     -0.1245
    126  CA       -38.0280   47.6780   61.2450 C.3   529  LYS529      0.1561
    127  C        -39.4930   47.2750   61.1340 C.2   529  LYS529      0.2260
    128  O        -40.2670   47.3940   62.0900 O.2   529  LYS529     -0.2867
    129  CB       -37.1520   46.4390   61.1320 C.3   529  LYS529      0.0271
    130  CG       -35.6900   46.6800   61.4900 C.3   529  LYS529      0.0035
    131  CD       -34.9900   47.6480   60.5460 C.3   529  LYS529      0.0206
    132  CE       -33.4770   47.6190   60.7760 C.3   529  LYS529      0.1093
    133  NZ       -32.7030   48.5810   59.9220 N.3   529  LYS529     -0.1314
@<TRIPOS>BOND
     1    84    85    1
     2     9    10    1
     3    91    89    1
     4    85    86    1
     5    85    88    1
     6    87    86    2
     7    78    76    1
     8    73    72    1
     9    73    74    1
    10    73    76    1
    11    75    74    2
    12    10    11    1
    13    10    13    1
    14     1     2    1
    15    14    13    1
    16    14    15    1
    17    74    79   am
    18    76    77    1
    19    89    88    1
    20    89    90    1
    21     3     4    2
    22     3     2    1
    23    11    12    2
    24    11    20   am
    25    22    23    2
    26    22    21    1
    27    20    21    1
    28     2     5    1
    29    82    81    2
    30    15    16    1
    31    81    80    1
    32    34    33    1
    33    79    80    1
    34    21    24    1
    35     5     6    1
    36    61    59   ar
    37    61    62   ar
    38    80    83    1
    39    16    17    2
    40    63    62    1
    41    24    25    1
    42    59    57   ar
    43     6     8    1
    44     6     7    1
    45    64    65    1
    46    33    35    1
    47    33    32    1
    48    67    66    2
    49    62    60   ar
    50    66    65    1
    51    25    26    1
    52    27    26    1
    53    17    18    1
    54    17    19    1
    55    65    68    1
    56    32    29    1
    57   119   120   ar
    58   119   117   ar
    59    57    56    1
    60    57    58   ar
    61   122   120   ar
    62   122   124   ar
    63    60    58   ar
    64    56    53    1
    65   120   118   ar
    66   117   116   ar
    67   124   123   ar
    68    68    69    1
    69    68    70    1
    70    28    29    1
    71    29    30    1
    72    53    54    1
    73    53    52    1
    74    54    55    2
    75    69    71    1
    76   116   118   ar
    77   116   115    1
    78   118   121   ar
    79    31    30    2
    80    30    36   am
    81   123   121   ar
    82    92    93    1
    83    52    48   am
    84   115   112    1
    85    36    37    1
    86    93    94    1
    87    93    96    1
    88   100   101    1
    89    49    48    2
    90    39    38    2
    91   111   112    1
    92    98    97    1
    93    95    94    2
    94    48    47    1
    95    37    38    1
    96    37    40    1
    97    38    46   am
    98    96    97    1
    99   112   113    1
   100   101   102    1
   101   101   104    1
   102   103   102    2
   103    97    99    1
   104    46    47    1
   105   113   114    2
   106    47    50    1
   107    40    41    1
   108   104   105    1
   109    50    51    1
   110    41    43   ar
   111    41    42   ar
   112    43    45   ar
   113   105   106    1
   114    42    44   ar
   115    45    44   ar
   116   106   107    1
   117   133   132    1
   118   109   108    1
   119   107   108    2
   120   108   110    1
   121   131   132    1
   122   131   130    1
   123   129   126    1
   124   129   130    1
   125   127   126    1
   126   127   128    2
   127   126   125    1
