@<TRIPOS>MOLECULE
tmp/4j0dB07.pdb
 75 72 0 0 0
SMALL
GASTEIGER

@<TRIPOS>ATOM
      1  N         43.3550   41.9990   14.6010 N.3    18  VAL18      -0.1231
      2  CA        42.3900   43.0080   14.2530 C.3    18  VAL18       0.1692
      3  C         43.0410   43.9340   13.2440 C.2    18  VAL18       0.2592
      4  O         44.2040   44.3070   13.3780 O.2    18  VAL18      -0.2718
      5  CB        41.8670   43.6830   15.5570 C.3    18  VAL18       0.0266
      6  CG1       42.9980   44.3910   16.2810 C.3    18  VAL18       0.0020
      7  CG2       40.7110   44.5670   15.2570 C.3    18  VAL18       0.0020
      8  N         42.3090   44.1630   12.1680 N.am   19  GLN19      -0.1966
      9  CA        42.7110   45.0460   11.0710 C.3    19  GLN19       0.1733
     10  C         41.8800   46.3040   11.2040 C.2    19  GLN19       0.2616
     11  O         40.6820   46.2930   10.9520 O.2    19  GLN19      -0.2715
     12  CB        42.4870   44.3560    9.7280 C.3    19  GLN19       0.0408
     13  CG        43.5730   43.3590    9.4110 C.3    19  GLN19       0.0908
     14  CD        43.2760   42.6200    8.1390 C.2    19  GLN19       0.2608
     15  OE1       42.4530   41.7140    8.1400 O.2    19  GLN19      -0.2717
     16  NE2       43.9150   43.0260    7.0300 N.am   19  GLN19      -0.0878
     17  N         42.5110   47.3700   11.6840 N.am   20  VAL20      -0.1977
     18  CA        41.8070   48.6400   11.8850 C.3    20  VAL20       0.1596
     19  C         42.7790   49.7800   11.6650 C.2    20  VAL20       0.2287
     20  O         43.9120   49.7040   12.0930 O.2    20  VAL20      -0.2864
     21  CB        41.2410   48.7810   13.3290 C.3    20  VAL20       0.0276
     22  CG1       40.3000   47.6500   13.6320 C.3    20  VAL20       0.0022
     23  CG2       42.3620   48.7840   14.3520 C.3    20  VAL20       0.0022
     24  N         38.7120   43.3930   21.8680 N.3    87  PRO87      -0.2102
     25  CA        39.2130   44.2390   20.7700 C.3    87  PRO87       0.1504
     26  C         38.3740   44.0800   19.4950 C.2    87  PRO87       0.2576
     27  O         38.4860   44.9050   18.5940 O.2    87  PRO87      -0.2718
     28  CB        40.6690   43.7170   20.5600 C.3    87  PRO87       0.0282
     29  CG        40.6100   42.2790   21.0830 C.3    87  PRO87       0.0208
     30  CD        39.6760   42.3430   22.2470 C.3    87  PRO87       0.0893
     31  N         37.5460   43.0460   19.4270 N.am   88  GLN88      -0.1966
     32  CA        36.6680   42.8310   18.2700 C.3    88  GLN88       0.1733
     33  C         35.2820   43.4310   18.4720 C.2    88  GLN88       0.2616
     34  O         34.4470   43.3920   17.5720 O.2    88  GLN88      -0.2715
     35  CB        36.5330   41.3150   18.0020 C.3    88  GLN88       0.0408
     36  CG        37.8490   40.6180   17.6930 C.3    88  GLN88       0.0908
     37  CD        38.3400   40.9100   16.2870 C.2    88  GLN88       0.2608
     38  OE1       37.5910   41.4310   15.4380 O.2    88  GLN88      -0.2717
     39  NE2       39.5990   40.6050   16.0360 N.am   88  GLN88      -0.0878
     40  N         35.0280   43.9940   19.6520 N.am   89  ARG89      -0.1963
     41  CA        33.6680   44.3940   20.0150 C.3    89  ARG89       0.1729
     42  C         33.3040   45.6810   19.3040 C.2    89  ARG89       0.2616
     43  O         34.0600   46.6500   19.3040 O.2    89  ARG89      -0.2715
     44  CB        33.5410   44.5420   21.5450 C.3    89  ARG89       0.0348
     45  CG        32.1300   44.9730   22.0710 C.3    89  ARG89       0.0492
     46  CD        32.1440   44.9340   23.6170 C.3    89  ARG89       0.2205
     47  NE        30.9260   45.5160   24.1490 N.pl3  89  ARG89      -0.0865
     48  CZ        29.7840   44.8530   24.3430 C.cat  89  ARG89       0.5346
     49  NH1       29.7050   43.5360   24.1460 N.pl3  89  ARG89       0.1354
     50  NH2       28.7220   45.5070   24.7840 N.pl3  89  ARG89       0.1354
     51  N         32.1210   45.6890   18.7080 N.am   90  VAL90      -0.1977
     52  CA        31.6460   46.8770   18.0080 C.3    90  VAL90       0.1596
     53  C         30.3520   47.3860   18.6310 C.2    90  VAL90       0.2287
     54  O         29.7940   48.3870   18.1930 O.2    90  VAL90      -0.2864
     55  CB        31.4250   46.5760   16.5010 C.3    90  VAL90       0.0276
     56  CG1       32.7730   46.4070   15.7830 C.3    90  VAL90       0.0022
     57  CG2       30.6280   45.2860   16.3260 C.3    90  VAL90       0.0022
     58  N         37.0520   49.0390   22.7820 N.3    96  ALA96      -0.1231
     59  CA        37.8420   48.1440   21.9160 C.3    96  ALA96       0.1694
     60  C         39.1070   48.8170   21.3970 C.2    96  ALA96       0.2592
     61  O         40.1330   48.1810   21.3650 O.2    96  ALA96      -0.2718
     62  CB        36.9940   47.6680   20.7300 C.3    96  ALA96       0.0304
     63  N         39.0160   50.0870   20.9960 N.am   97  GLY97      -0.1957
     64  CA        40.1860   50.7990   20.4730 C.3    97  GLY97       0.1869
     65  C         41.3090   50.8610   21.4800 C.2    97  GLY97       0.2309
     66  O         42.4780   50.7060   21.1450 O.2    97  GLY97      -0.2863
     67  N         42.9270   47.4320   21.6900 N.3   100  GLN100     -0.1245
     68  CA        43.7840   47.2370   20.5100 C.3   100  GLN100      0.1566
     69  C         45.1280   47.9230   20.7000 C.2   100  GLN100      0.2260
     70  O         46.1740   47.3550   20.4390 O.2   100  GLN100     -0.2867
     71  CB        43.1150   47.8150   19.2580 C.3   100  GLN100      0.0367
     72  CG        41.8550   47.0530   18.8640 C.3   100  GLN100      0.0905
     73  CD        40.9520   47.8450   17.9870 C.2   100  GLN100      0.2608
     74  OE1       41.3030   48.9490   17.5680 O.2   100  GLN100     -0.2717
     75  NE2       39.7340   47.3160   17.7240 N.am  100  GLN100     -0.0878
@<TRIPOS>BOND
     1    16    14   am
     2    14    15    2
     3    14    13    1
     4    13    12    1
     5    12     9    1
     6    11    10    2
     7     9    10    1
     8     9     8    1
     9    10    17   am
    10    19    18    1
    11    19    20    2
    12    17    18    1
    13    18    21    1
    14     8     3   am
    15     3     4    2
    16     3     2    1
    17    21    22    1
    18    21    23    1
    19     2     1    1
    20     2     5    1
    21     7     5    1
    22    38    37    2
    23     5     6    1
    24    56    55    1
    25    39    37   am
    26    37    36    1
    27    57    55    1
    28    55    52    1
    29    74    73    2
    30    34    33    2
    31    36    35    1
    32    75    73   am
    33    73    72    1
    34    35    32    1
    35    52    53    1
    36    52    51    1
    37    54    53    2
    38    32    33    1
    39    32    31    1
    40    33    40   am
    41    27    26    2
    42    51    42   am
    43    72    71    1
    44    71    68    1
    45    42    43    2
    46    42    41    1
    47    31    26   am
    48    26    25    1
    49    40    41    1
    50    41    44    1
    51    70    69    2
    52    64    63    1
    53    64    65    1
    54    68    69    1
    55    68    67    1
    56    28    25    1
    57    28    29    1
    58    62    59    1
    59    25    24    1
    60    63    60   am
    61    29    30    1
    62    66    65    2
    63    61    60    2
    64    60    59    1
    65    44    45    1
    66    24    30    1
    67    59    58    1
    68    45    46    1
    69    46    47    1
    70    49    48    1
    71    47    48    2
    72    48    50    1
