@<TRIPOS>MOLECULE
tmp/4j0dB00.pdb
 111 106 0 0 0
SMALL
GASTEIGER

@<TRIPOS>ATOM
      1  N         27.8780   74.1710   45.0490 N.3   219  TRP219     -0.1227
      2  CA        28.9950   75.1110   45.1940 C.3   219  TRP219      0.1737
      3  C         29.4590   75.6360   43.8210 C.2   219  TRP219      0.2595
      4  O         29.6310   76.8570   43.6210 O.2   219  TRP219     -0.2718
      5  CB        30.1530   74.4890   45.9800 C.3   219  TRP219      0.0564
      6  CG        31.3700   75.3720   45.9710 C.ar  219  TRP219      0.0003
      7  CD1       31.5860   76.5000   46.7570 C.ar  219  TRP219      0.0946
      8  CD2       32.5130   75.2260   45.1390 C.ar  219  TRP219      0.0152
      9  NE1       32.8140   77.0210   46.4650 N.ar  219  TRP219     -0.2442
     10  CE2       33.3850   76.2900   45.4530 C.ar  219  TRP219      0.0810
     11  CE3       32.8870   74.3090   44.1250 C.ar  219  TRP219      0.0012
     12  CZ2       34.6150   76.4530   44.8200 C.ar  219  TRP219      0.0191
     13  CZ3       34.1070   74.4640   43.5120 C.ar  219  TRP219      0.0001
     14  CH2       34.9590   75.5420   43.8390 C.ar  219  TRP219      0.0015
     15  N         29.5970   74.7330   42.8520 N.am  220  GLN220     -0.1979
     16  CA        30.0680   75.1420   41.5570 C.3   220  GLN220      0.1601
     17  C         29.0000   75.8700   40.7250 C.2   220  GLN220      0.2287
     18  O         29.3000   76.8860   40.0920 O.2   220  GLN220     -0.2864
     19  CB        30.5200   73.8770   40.8090 C.3   220  GLN220      0.0394
     20  CG        31.0890   74.2500   39.4170 C.3   220  GLN220      0.0908
     21  CD        31.8950   73.0860   38.8680 C.2   220  GLN220      0.2608
     22  OE1       32.7500   72.5150   39.5640 O.2   220  GLN220     -0.2717
     23  NE2       31.5900   72.6940   37.6240 N.am  220  GLN220     -0.0878
     24  N         25.6010   77.0160   41.6840 N.3   222  ASN222     -0.1225
     25  CA        24.5500   77.8600   42.2160 C.3   222  ASN222      0.1785
     26  C         24.6120   79.2170   41.4940 C.2   222  ASN222      0.2598
     27  O         25.7030   79.7340   41.2630 O.2   222  ASN222     -0.2718
     28  CB        24.7650   78.0990   43.7200 C.3   222  ASN222      0.1169
     29  CG        23.7510   79.0850   44.2670 C.2   222  ASN222      0.2627
     30  OD1       24.0440   80.3100   44.4410 O.2   222  ASN222     -0.2716
     31  ND2       22.5270   78.5970   44.4790 N.am  222  ASN222     -0.0877
     32  N         23.4490   79.7470   41.1400 N.am  223  GLY223     -0.1942
     33  CA        23.3820   81.0590   40.4910 C.3   223  GLY223      0.2014
     34  C         23.2260   80.8620   38.9980 C.2   223  GLY223      0.2638
     35  O         22.9720   81.8360   38.2790 O.2   223  GLY223     -0.2714
     36  N         23.4290   79.6330   38.5360 N.am  224  ILE224     -0.1977
     37  CA        23.1620   79.2850   37.1350 C.3   224  ILE224      0.1596
     38  C         21.8890   78.4570   37.1280 C.2   224  ILE224      0.2287
     39  O         21.8640   77.3240   37.6390 O.2   224  ILE224     -0.2864
     40  CB        24.3500   78.5460   36.5040 C.3   224  ILE224      0.0276
     41  CG1       25.5380   79.4900   36.3910 C.3   224  ILE224      0.0022
     42  CG2       23.9540   77.9650   35.1210 C.3   224  ILE224      0.0022
     43  CD1       26.9050   78.8140   36.3280 C.3   224  ILE224      0.0001
     44  N         25.1740   74.5430   48.5300 N.3   263  LYS263     -0.1245
     45  CA        26.4060   75.2510   48.3000 C.3   263  LYS263      0.1561
     46  C         27.0450   75.6410   49.6420 C.2   263  LYS263      0.2260
     47  O         28.2420   75.4560   49.8790 O.2   263  LYS263     -0.2867
     48  CB        26.1040   76.5620   47.5110 C.3   263  LYS263      0.0271
     49  CG        27.3050   77.5250   47.5530 C.3   263  LYS263      0.0035
     50  CD        27.1520   78.6560   46.4740 C.3   263  LYS263      0.0206
     51  CE        28.4400   79.4540   46.3880 C.3   263  LYS263      0.1093
     52  NZ        28.1950   80.6490   45.4800 N.3   263  LYS263     -0.1314
     53  N         30.7900   82.1210   52.0130 N.3   288  ALA288     -0.1231
     54  CA        30.2810   82.4160   50.6980 C.3   288  ALA288      0.1694
     55  C         30.8850   81.5060   49.6420 C.2   288  ALA288      0.2593
     56  O         30.6130   81.6690   48.4560 O.2   288  ALA288     -0.2718
     57  CB        30.6090   83.8590   50.3490 C.3   288  ALA288      0.0304
     58  N         31.7140   80.5560   50.0570 N.am  289  GLY289     -0.1942
     59  CA        32.2840   79.5920   49.0880 C.3   289  GLY289      0.2014
     60  C         33.5190   80.1210   48.3340 C.2   289  GLY289      0.2638
     61  O         33.9260   79.5720   47.3130 O.2   289  GLY289     -0.2714
     62  N         34.1060   81.2040   48.8260 N.am  290  MET290     -0.1976
     63  CA        35.3380   81.7240   48.2300 C.3   290  MET290      0.1605
     64  C         36.5350   81.4180   49.1120 C.2   290  MET290      0.2287
     65  O         36.4140   81.2260   50.3200 O.2   290  MET290     -0.2864
     66  CB        35.1980   83.2320   47.9910 C.3   290  MET290      0.0413
     67  CG        34.0910   83.5400   46.9990 C.3   290  MET290      0.0598
     68  SD        33.6580   85.2850   46.8980 S.3   290  MET290     -0.1393
     69  CE        33.8180   85.7790   48.5640 C.3   290  MET290      0.0692
     70  N         39.0160   77.5000   46.2370 N.3   294  ARG294     -0.1245
     71  CA        38.4500   77.9660   44.9680 C.3   294  ARG294      0.1563
     72  C         39.6200   78.4360   44.0700 C.2   294  ARG294      0.2260
     73  O         39.6050   78.2320   42.8620 O.2   294  ARG294     -0.2867
     74  CB        37.4460   79.1090   45.2290 C.3   294  ARG294      0.0307
     75  CG        36.7380   79.5590   43.9310 C.3   294  ARG294      0.0489
     76  CD        35.6740   80.5850   44.3330 C.3   294  ARG294      0.2205
     77  NE        34.8600   80.9490   43.2050 N.pl3 294  ARG294     -0.0865
     78  CZ        35.0110   82.0850   42.5360 C.cat 294  ARG294      0.5346
     79  NH1       35.9490   82.9660   42.8880 N.pl3 294  ARG294      0.1354
     80  NH2       34.2220   82.3460   41.5250 N.pl3 294  ARG294      0.1354
     81  N         35.9940   82.7520   37.1050 N.3   333  LEU333     -0.1231
     82  CA        35.5190   81.3510   37.1670 C.3   333  LEU333      0.1693
     83  C         34.0170   81.3290   36.9880 C.2   333  LEU333      0.2592
     84  O         33.4920   80.4170   36.3200 O.2   333  LEU333     -0.2718
     85  CB        35.9370   80.7590   38.5090 C.3   333  LEU333      0.0284
     86  CG        35.6400   79.2900   38.7390 C.3   333  LEU333      0.0019
     87  CD1       36.2150   78.4150   37.6270 C.3   333  LEU333      0.0001
     88  CD2       36.2350   78.8630   40.0840 C.3   333  LEU333      0.0001
     89  N         33.3040   82.2970   37.5640 N.am  334  SER334     -0.1952
     90  CA        31.8570   82.4280   37.3030 C.3   334  SER334      0.1924
     91  C         31.4790   82.5090   35.8250 C.2   334  SER334      0.2314
     92  O         30.5560   81.7780   35.3410 O.2   334  SER334     -0.2863
     93  CB        31.2180   83.5990   38.0660 C.3   334  SER334      0.2116
     94  OG        31.4160   83.3610   39.4440 O.3   334  SER334     -0.2180
     95  N         32.0890   79.0700   34.1490 N.3   337  LEU337     -0.1231
     96  CA        31.0490   78.0730   34.4630 C.3   337  LEU337      0.1693
     97  C         29.7180   78.3910   33.7610 C.2   337  LEU337      0.2591
     98  O         29.0450   77.4590   33.2940 O.2   337  LEU337     -0.2718
     99  CB        30.8400   77.9830   35.9970 C.3   337  LEU337      0.0284
    100  CG        32.1380   77.4890   36.6610 C.3   337  LEU337      0.0019
    101  CD1       32.0500   77.7340   38.1790 C.3   337  LEU337      0.0001
    102  CD2       32.3490   75.9620   36.3970 C.3   337  LEU337      0.0001
    103  N         29.3840   79.6790   33.6250 N.am  338  LYS338     -0.1980
    104  CA        28.1940   80.0770   32.8410 C.3   338  LYS338      0.1596
    105  C         28.3800   79.6860   31.3950 C.2   338  LYS338      0.2287
    106  O         27.4230   79.2500   30.7120 O.2   338  LYS338     -0.2864
    107  CB        27.9450   81.5990   32.9180 C.3   338  LYS338      0.0298
    108  CG        27.4890   82.0410   34.2800 C.3   338  LYS338      0.0038
    109  CD        27.1910   83.5460   34.3030 C.3   338  LYS338      0.0206
    110  CE        27.3160   84.1020   35.7270 C.3   338  LYS338      0.1093
    111  NZ        27.0600   85.5800   35.7700 N.3   338  LYS338     -0.1314
@<TRIPOS>BOND
     1   106   105    2
     2   105   104    1
     3   104   107    1
     4   104   103    1
     5   107   108    1
     6    98    97    2
     7   103    97   am
     8    97    96    1
     9    95    96    1
    10   108   109    1
    11   109   110    1
    12    96    99    1
    13    42    40    1
    14    92    91    2
    15   110   111    1
    16    91    90    1
    17    99   100    1
    18    84    83    2
    19    43    41    1
    20    41    40    1
    21   102   100    1
    22    40    37    1
    23   100   101    1
    24    83    82    1
    25    83    89   am
    26    81    82    1
    27    38    37    1
    28    38    39    2
    29    37    36    1
    30    82    85    1
    31    90    89    1
    32    90    93    1
    33    23    21   am
    34    87    86    1
    35    93    94    1
    36    35    34    2
    37    85    86    1
    38    36    34   am
    39    86    88    1
    40    21    20    1
    41    21    22    2
    42    34    33    1
    43    20    19    1
    44    18    17    2
    45    33    32    1
    46    17    16    1
    47    19    16    1
    48    32    26   am
    49    27    26    2
    50    26    25    1
    51    80    78    1
    52    16    15    1
    53    24    25    1
    54    25    28    1
    55    78    79    1
    56    78    77    2
    57    15     3   am
    58    73    72    2
    59    77    76    1
    60    13    14   ar
    61    13    11   ar
    62     4     3    2
    63    28    29    1
    64     3     2    1
    65    14    12   ar
    66    75    76    1
    67    75    74    1
    68    72    71    1
    69    11     8   ar
    70    29    30    2
    71    29    31   am
    72    12    10   ar
    73    71    74    1
    74    71    70    1
    75     1     2    1
    76     8    10   ar
    77     8     6   ar
    78     2     5    1
    79    10     9   ar
    80    52    51    1
    81     6     5    1
    82     6     7   ar
    83    51    50    1
    84     9     7   ar
    85    50    49    1
    86    68    67    1
    87    68    69    1
    88    67    66    1
    89    61    60    2
    90    48    49    1
    91    48    45    1
    92    66    63    1
    93    63    62    1
    94    63    64    1
    95    45    44    1
    96    45    46    1
    97    60    62   am
    98    60    59    1
    99    56    55    2
   100    59    58    1
   101    64    65    2
   102    46    47    2
   103    55    58   am
   104    55    54    1
   105    57    54    1
   106    54    53    1
