@<TRIPOS>MOLECULE
tmp/4j0dB06.pdb
 84 82 0 0 0
SMALL
GASTEIGER

@<TRIPOS>ATOM
      1  N         46.7190   28.5020   29.7220 N.3    10  ALA10      -0.1245
      2  CA        47.1200   29.2600   28.5310 C.3    10  ALA10       0.1562
      3  C         46.8430   28.4990   27.2150 C.2    10  ALA10       0.2260
      4  O         46.8940   29.1040   26.1620 O.2    10  ALA10      -0.2867
      5  CB        48.6000   29.5860   28.6110 C.3    10  ALA10       0.0290
      6  N         54.2070   37.0760   23.2300 N.3    54  TYR54      -0.1227
      7  CA        54.4000   36.4010   24.5090 C.3    54  TYR54       0.1736
      8  C         54.0680   34.9170   24.4050 C.2    54  TYR54       0.2595
      9  O         54.3540   34.1810   25.3380 O.2    54  TYR54      -0.2718
     10  CB        53.5280   37.0360   25.5780 C.3    54  TYR54       0.0548
     11  CG        53.8410   38.5010   25.7730 C.ar   54  TYR54      -0.0200
     12  CD1       55.0480   39.0610   25.3080 C.ar   54  TYR54      -0.0009
     13  CD2       52.9190   39.3300   26.3650 C.ar   54  TYR54      -0.0009
     14  CE1       55.3420   40.4250   25.4980 C.ar   54  TYR54       0.0417
     15  CE2       53.1910   40.7210   26.5650 C.ar   54  TYR54       0.0417
     16  CZ        54.3860   41.2460   26.0930 C.ar   54  TYR54       0.1957
     17  OH        54.6870   42.5880   26.2410 O.3    54  TYR54      -0.2866
     18  N         53.5020   34.4830   23.2830 N.am   55  LEU55      -0.1980
     19  CA        53.2610   33.0290   23.0610 C.3    55  LEU55       0.1596
     20  C         54.4220   32.4220   22.2720 C.2    55  LEU55       0.2287
     21  O         54.4380   31.2090   21.9840 O.2    55  LEU55      -0.2864
     22  CB        51.9510   32.8170   22.2700 C.3    55  LEU55       0.0297
     23  CG        50.6090   32.8530   23.0080 C.3    55  LEU55       0.0022
     24  CD1       50.4440   31.6670   23.8930 C.3    55  LEU55       0.0001
     25  CD2       50.4780   34.1580   23.8130 C.3    55  LEU55       0.0001
     26  N         56.5940   37.9180   28.4350 N.3    65  ARG65      -0.1231
     27  CA        55.4490   37.2110   28.9870 C.3    65  ARG65       0.1694
     28  C         55.3450   37.3660   30.5080 C.2    65  ARG65       0.2591
     29  O         54.2560   37.4880   31.0540 O.2    65  ARG65      -0.2718
     30  CB        55.5800   35.6970   28.6430 C.3    65  ARG65       0.0321
     31  CG        54.4790   34.8490   29.2200 C.3    65  ARG65       0.0489
     32  CD        54.6590   33.3590   28.7930 C.3    65  ARG65       0.2205
     33  NE        56.0670   32.9510   28.8760 N.pl3  65  ARG65      -0.0865
     34  CZ        56.6140   32.2340   29.8620 C.cat  65  ARG65       0.5346
     35  NH1       55.8820   31.8050   30.8830 N.pl3  65  ARG65       0.1354
     36  NH2       57.9060   31.9290   29.8200 N.pl3  65  ARG65       0.1354
     37  N         56.4780   37.3260   31.2050 N.am   66  ALA66      -0.1980
     38  CA        56.4250   37.3380   32.6750 C.3    66  ALA66       0.1597
     39  C         56.4210   38.7500   33.2510 C.2    66  ALA66       0.2287
     40  O         56.1580   38.9370   34.4440 O.2    66  ALA66      -0.2864
     41  CB        57.6110   36.5900   33.2320 C.3    66  ALA66       0.0319
     42  N         48.6840   34.1100   38.6930 N.3   148  GLN148     -0.1231
     43  CA        49.9730   34.7170   38.3650 C.3   148  GLN148      0.1698
     44  C         50.8950   33.7700   37.5680 C.2   148  GLN148      0.2593
     45  O         51.3840   34.1390   36.4950 O.2   148  GLN148     -0.2718
     46  CB        50.6680   35.1920   39.6540 C.3   148  GLN148      0.0381
     47  CG        52.1240   35.6230   39.4780 C.3   148  GLN148      0.0905
     48  CD        52.3040   36.9490   38.7700 C.2   148  GLN148      0.2608
     49  OE1       51.8250   37.1590   37.6210 O.2   148  GLN148     -0.2717
     50  NE2       53.0330   37.8530   39.4330 N.am  148  GLN148     -0.0878
     51  N         51.0870   32.5540   38.0590 N.am  149  GLY149     -0.1942
     52  CA        51.9820   31.6580   37.3320 C.3   149  GLY149      0.2014
     53  C         51.4890   31.1010   35.9950 C.2   149  GLY149      0.2639
     54  O         52.2620   30.4800   35.2500 O.2   149  GLY149     -0.2714
     55  N         50.2120   31.2990   35.6920 N.am  150  ARG150     -0.1963
     56  CA        49.5690   30.6360   34.5520 C.3   150  ARG150      0.1729
     57  C         49.1320   31.6260   33.4580 C.2   150  ARG150      0.2616
     58  O         49.0590   31.2700   32.2890 O.2   150  ARG150     -0.2715
     59  CB        48.3390   29.8720   35.0220 C.3   150  ARG150      0.0348
     60  CG        48.7120   28.6710   35.9430 C.3   150  ARG150      0.0492
     61  CD        47.4780   28.0390   36.5650 C.3   150  ARG150      0.2205
     62  NE        47.8070   27.3900   37.8420 N.pl3 150  ARG150     -0.0865
     63  CZ        47.4030   27.8120   39.0440 C.cat 150  ARG150      0.5346
     64  NH1       46.5950   28.8750   39.1940 N.pl3 150  ARG150      0.1354
     65  NH2       47.7820   27.1310   40.1140 N.pl3 150  ARG150      0.1354
     66  N         48.8130   32.8570   33.8430 N.am  151  LEU151     -0.1964
     67  CA        48.3470   33.8520   32.9070 C.3   151  LEU151      0.1713
     68  C         49.5160   34.7380   32.5260 C.2   151  LEU151      0.2458
     69  O         50.2390   35.1860   33.4050 O.2   151  LEU151     -0.2730
     70  CB        47.3470   34.7420   33.6640 C.3   151  LEU151      0.0310
     71  CG        45.8690   34.8060   33.4950 C.3   151  LEU151      0.0022
     72  CD1       45.3450   35.8430   34.5010 C.3   151  LEU151      0.0001
     73  CD2       45.5750   35.2290   32.1290 C.3   151  LEU151      0.0001
     74  N         49.7450   34.9760   31.2280 N.am  152  PRO152     -0.2716
     75  CA        50.7690   35.9330   30.7910 C.3   152  PRO152      0.1536
     76  C         50.5460   37.3040   31.4540 C.2   152  PRO152      0.2599
     77  O         49.4160   37.6580   31.7700 O.2   152  PRO152     -0.2715
     78  CB        50.5270   36.0450   29.2910 C.3   152  PRO152      0.0310
     79  CG        50.0280   34.6160   28.9460 C.3   152  PRO152      0.0237
     80  CD        49.0340   34.3720   30.0810 C.3   152  PRO152      0.0939
     81  N         51.6270   38.0310   31.6460 N.am  153  GLY153     -0.1955
     82  CA        51.4960   39.3150   32.3270 C.3   153  GLY153      0.1869
     83  C         51.9170   39.1790   33.7730 C.2   153  GLY153      0.2309
     84  O         51.8090   38.1060   34.3690 O.2   153  GLY153     -0.2863
@<TRIPOS>BOND
     1    21    20    2
     2    22    23    1
     3    22    19    1
     4    20    19    1
     5    23    25    1
     6    23    24    1
     7    19    18    1
     8     6     7    1
     9    18     8   am
    10     8     7    1
    11     8     9    2
    12     7    10    1
    13    12    14   ar
    14    12    11   ar
    15    14    16   ar
    16    10    11    1
    17    11    13   ar
    18    16    17    1
    19    16    15   ar
    20     4     3    2
    21    13    15   ar
    22     3     2    1
    23    26    27    1
    24     2     5    1
    25     2     1    1
    26    30    27    1
    27    30    31    1
    28    32    33    1
    29    32    31    1
    30    33    34    2
    31    79    78    1
    32    79    80    1
    33    27    28    1
    34    78    75    1
    35    36    34    1
    36    34    35    1
    37    80    74    1
    38    28    29    2
    39    28    37   am
    40    75    74    1
    41    75    76    1
    42    37    38    1
    43    74    68   am
    44    76    81   am
    45    76    77    2
    46    81    82    1
    47    73    71    1
    48    58    57    2
    49    82    83    1
    50    68    67    1
    51    68    69    2
    52    38    41    1
    53    38    39    1
    54    67    70    1
    55    67    66    1
    56    39    40    2
    57    57    66   am
    58    57    56    1
    59    71    70    1
    60    71    72    1
    61    83    84    2
    62    56    59    1
    63    56    55    1
    64    59    60    1
    65    54    53    2
    66    55    53   am
    67    60    61    1
    68    53    52    1
    69    45    44    2
    70    61    62    1
    71    52    51    1
    72    44    51   am
    73    44    43    1
    74    49    48    2
    75    62    63    2
    76    43    42    1
    77    43    46    1
    78    48    50   am
    79    48    47    1
    80    63    64    1
    81    63    65    1
    82    47    46    1
