@<TRIPOS>MOLECULE
tmp/4j0hA03.pdb
 83 75 0 0 0
SMALL
GASTEIGER

@<TRIPOS>ATOM
      1  N         37.3030   74.2380   73.4340 N.3   277  ALA277     -0.1231
      2  CA        36.8370   73.9390   74.7760 C.3   277  ALA277      0.1694
      3  C         38.0190   74.0580   75.7230 C.2   277  ALA277      0.2592
      4  O         39.1360   74.3430   75.2890 O.2   277  ALA277     -0.2718
      5  CB        36.2580   72.5400   74.8300 C.3   277  ALA277      0.0304
      6  N         37.7730   73.8320   77.0100 N.am  278  SER278     -0.1952
      7  CA        38.8290   73.8900   78.0220 C.3   278  SER278      0.1924
      8  C         39.9530   72.8960   77.7600 C.2   278  SER278      0.2314
      9  O         41.1310   73.2390   77.8660 O.2   278  SER278     -0.2863
     10  CB        38.2540   73.6510   79.4190 C.3   278  SER278      0.2116
     11  OG        37.5210   74.7790   79.8630 O.3   278  SER278     -0.2180
     12  N         35.8830   73.4100   68.7560 N.3   283  LEU283     -0.1245
     13  CA        34.4310   73.3150   68.8140 C.3   283  LEU283      0.1561
     14  C         33.8740   73.5540   67.4190 C.2   283  LEU283      0.2260
     15  O         34.1800   74.5610   66.7950 O.2   283  LEU283     -0.2867
     16  CB        33.8620   74.3430   69.7960 C.3   283  LEU283      0.0270
     17  CG        34.1910   74.0840   71.2670 C.3   283  LEU283      0.0019
     18  CD1       33.9200   75.3250   72.1310 C.3   283  LEU283      0.0001
     19  CD2       33.4210   72.8740   71.7880 C.3   283  LEU283      0.0001
     20  N         27.7330   72.3040   73.3310 N.3   296  VAL296     -0.1245
     21  CA        28.0440   73.3260   74.3240 C.3   296  VAL296      0.1561
     22  C         26.8120   74.1570   74.6580 C.2   296  VAL296      0.2260
     23  O         26.5410   74.4460   75.8250 O.2   296  VAL296     -0.2867
     24  CB        29.1620   74.2570   73.8400 C.3   296  VAL296      0.0252
     25  CG1       29.2180   75.5120   74.7020 C.3   296  VAL296      0.0019
     26  CG2       30.4910   73.5140   73.8500 C.3   296  VAL296      0.0019
     27  N         24.9880   74.2530   78.3960 N.3   300  LEU300     -0.1245
     28  CA        24.7770   75.4950   79.1180 C.3   300  LEU300      0.1561
     29  C         23.3200   75.5980   79.5380 C.2   300  LEU300      0.2260
     30  O         23.0080   76.0930   80.6270 O.2   300  LEU300     -0.2867
     31  CB        25.2000   76.6950   78.2600 C.3   300  LEU300      0.0270
     32  CG        26.7010   76.9960   78.2780 C.3   300  LEU300      0.0019
     33  CD1       27.0770   77.8700   77.0910 C.3   300  LEU300      0.0001
     34  CD2       27.1170   77.6580   79.6030 C.3   300  LEU300      0.0001
     35  N         27.4930   83.1000   73.5560 N.3   429  ILE429     -0.1245
     36  CA        28.3850   81.9770   73.8100 C.3   429  ILE429      0.1561
     37  C         29.7080   82.0960   73.0440 C.2   429  ILE429      0.2260
     38  O         30.7780   81.7940   73.5790 O.2   429  ILE429     -0.2867
     39  CB        27.7060   80.6300   73.5030 C.3   429  ILE429      0.0252
     40  CG1       26.5970   80.3830   74.5270 C.3   429  ILE429      0.0019
     41  CG2       28.7400   79.5160   73.5540 C.3   429  ILE429      0.0019
     42  CD1       25.6140   79.2990   74.1500 C.3   429  ILE429      0.0001
     43  N         31.8360   84.6330   74.8970 N.3   432  ALA432     -0.1231
     44  CA        32.3820   84.0780   76.1380 C.3   432  ALA432      0.1694
     45  C         33.5330   83.1020   75.8700 C.2   432  ALA432      0.2591
     46  O         34.5870   83.1740   76.5050 O.2   432  ALA432     -0.2718
     47  CB        31.2880   83.4020   76.9520 C.3   432  ALA432      0.0304
     48  N         33.3320   82.1940   74.9220 N.am  433  ILE433     -0.1980
     49  CA        34.3840   81.2400   74.6010 C.3   433  ILE433      0.1595
     50  C         35.6290   81.9400   74.0600 C.2   433  ILE433      0.2287
     51  O         36.7540   81.6180   74.4450 O.2   433  ILE433     -0.2864
     52  CB        33.9010   80.1680   73.6160 C.3   433  ILE433      0.0276
     53  CG1       32.7760   79.3450   74.2530 C.3   433  ILE433      0.0022
     54  CG2       35.0660   79.2590   73.2080 C.3   433  ILE433      0.0022
     55  CD1       32.1100   78.3960   73.2820 C.3   433  ILE433      0.0001
     56  N         37.5540   83.4890   76.9480 N.3   436  GLU436     -0.1245
     57  CA        38.2980   82.4620   77.6640 C.3   436  GLU436      0.1567
     58  C         39.5030   81.9720   76.8570 C.2   436  GLU436      0.2260
     59  O         40.5820   81.7500   77.4170 O.2   436  GLU436     -0.2867
     60  CB        37.4040   81.2740   78.0180 C.3   436  GLU436      0.0388
     61  CG        38.0090   80.3650   79.0780 C.3   436  GLU436      0.1160
     62  CD        37.3770   78.9860   79.1030 C.2   436  GLU436      0.3649
     63  OE1       36.2710   78.8360   79.6670 O.co2 436  GLU436     -0.2457
     64  OE2       37.9950   78.0470   78.5530 O.co2 436  GLU436     -0.2457
     65  N         36.3850   85.2650   82.3850 N.3   442  ILE442     -0.1245
     66  CA        34.9990   85.3060   81.9370 C.3   442  ILE442      0.1561
     67  C         34.0840   84.4410   82.8050 C.2   442  ILE442      0.2260
     68  O         34.2980   83.2450   82.9660 O.2   442  ILE442     -0.2867
     69  CB        34.8630   84.9480   80.4390 C.3   442  ILE442      0.0252
     70  CG1       33.3900   84.7520   80.0440 C.3   442  ILE442      0.0019
     71  CG2       35.6920   83.7100   80.1130 C.3   442  ILE442      0.0019
     72  CD1       32.5910   86.0550   79.9450 C.3   442  ILE442      0.0001
     73  N         30.3370   83.4000   82.8010 N.3   444  PHE444     -0.1241
     74  CA        29.2110   83.3410   81.8620 C.3   444  PHE444      0.1605
     75  C         28.1170   82.3800   82.3290 C.2   444  PHE444      0.2264
     76  O         28.4130   81.3510   82.9420 O.2   444  PHE444     -0.2867
     77  CB        29.7080   82.9040   80.4810 C.3   444  PHE444      0.0534
     78  CG        28.6180   82.8080   79.4430 C.ar  444  PHE444     -0.0203
     79  CD1       28.0380   83.9530   78.9230 C.ar  444  PHE444     -0.0042
     80  CD2       28.1640   81.5770   79.0040 C.ar  444  PHE444     -0.0042
     81  CE1       27.0300   83.8790   77.9720 C.ar  444  PHE444     -0.0003
     82  CE2       27.1480   81.4930   78.0450 C.ar  444  PHE444     -0.0003
     83  CZ        26.5840   82.6520   77.5330 C.ar  444  PHE444     -0.0000
@<TRIPOS>BOND
     1    15    14    2
     2    14    13    1
     3    12    13    1
     4    13    16    1
     5    16    17    1
     6    17    19    1
     7    17    18    1
     8    37    38    2
     9    37    36    1
    10    54    52    1
    11    55    53    1
    12    20    21    1
    13     1     2    1
    14    39    41    1
    15    39    36    1
    16    39    40    1
    17    35    36    1
    18    52    53    1
    19    52    49    1
    20    24    26    1
    21    24    21    1
    22    24    25    1
    23    50    51    2
    24    50    49    1
    25    42    40    1
    26    21    22    1
    27    49    48    1
    28    22    23    2
    29     2     5    1
    30     2     3    1
    31    43    44    1
    32    48    45   am
    33     4     3    2
    34     3     6   am
    35    45    44    1
    36    45    46    2
    37    44    47    1
    38    58    59    2
    39    58    57    1
    40    56    57    1
    41     6     7    1
    42    33    32    1
    43    83    81   ar
    44    83    82   ar
    45    57    60    1
    46     8     9    2
    47     8     7    1
    48    81    79   ar
    49    60    61    1
    50     7    10    1
    51    82    80   ar
    52    31    32    1
    53    31    28    1
    54    32    34    1
    55    27    28    1
    56    64    62   ar
    57    79    78   ar
    58    80    78   ar
    59    61    62    1
    60    62    63   ar
    61    28    29    1
    62    10    11    1
    63    78    77    1
    64    29    30    2
    65    72    70    1
    66    70    69    1
    67    71    69    1
    68    69    66    1
    69    77    74    1
    70    74    75    1
    71    74    73    1
    72    66    65    1
    73    66    67    1
    74    75    76    2
    75    67    68    2
