@<TRIPOS>MOLECULE
tmp/4j0hA00.pdb
 104 99 0 0 0
SMALL
GASTEIGER

@<TRIPOS>ATOM
      1  N         19.1760  101.2190   74.6880 N.3    77  GLY77      -0.1210
      2  CA        18.3570  100.1020   74.2570 C.3    77  GLY77       0.1956
      3  C         17.9870  100.2930   72.7960 C.2    77  GLY77       0.2612
      4  O         17.7590  101.4200   72.3670 O.2    77  GLY77      -0.2717
      5  N         17.9520   99.1980   72.0350 N.am   78  GLY78      -0.1942
      6  CA        17.5840   99.2370   70.6290 C.3    78  GLY78       0.2014
      7  C         18.4870  100.1330   69.8040 C.2    78  GLY78       0.2638
      8  O         18.1070  100.5820   68.7150 O.2    78  GLY78      -0.2714
      9  N         19.6860  100.3930   70.3210 N.am   79  TYR79      -0.1973
     10  CA        20.6240  101.3170   69.6850 C.3    79  TYR79       0.1639
     11  C         20.0280  102.7200   69.5570 C.2    79  TYR79       0.2290
     12  O         20.4010  103.4970   68.6860 O.2    79  TYR79      -0.2864
     13  CB        21.1240  100.7630   68.3400 C.3    79  TYR79       0.0560
     14  CG        22.1480   99.6640   68.5390 C.ar   79  TYR79      -0.0198
     15  CD1       23.4620   99.9720   68.8790 C.ar   79  TYR79      -0.0009
     16  CD2       21.7970   98.3200   68.4100 C.ar   79  TYR79      -0.0009
     17  CE1       24.4040   98.9740   69.0780 C.ar   79  TYR79       0.0417
     18  CE2       22.7350   97.3140   68.6130 C.ar   79  TYR79       0.0417
     19  CZ        24.0330   97.6510   68.9410 C.ar   79  TYR79       0.1957
     20  OH        24.9780   96.6720   69.1370 O.3    79  TYR79      -0.2866
     21  N         21.4160   94.5690   76.6040 N.3   164  SER164     -0.1202
     22  CA        21.0520   94.4370   75.1930 C.3   164  SER164      0.2020
     23  C         21.9540   95.2640   74.2750 C.2   164  SER164      0.2618
     24  O         23.1330   94.9590   74.1150 O.2   164  SER164     -0.2717
     25  CB        19.5850   94.8070   74.9900 C.3   164  SER164      0.2103
     26  OG        19.0640   94.2160   73.8140 O.3   164  SER164     -0.2182
     27  N         21.4070   96.2990   73.6450 N.am  165  ALA165     -0.1979
     28  CA        22.2810   97.1480   72.8450 C.3   165  ALA165      0.1597
     29  C         23.2820   97.8110   73.8070 C.2   165  ALA165      0.2287
     30  O         24.4360   98.0580   73.4630 O.2   165  ALA165     -0.2864
     31  CB        21.4910   98.1940   72.0650 C.3   165  ALA165      0.0319
     32  N         23.6170   92.5900   72.3630 N.3   207  ILE207     -0.1245
     33  CA        23.1840   92.3980   70.9770 C.3   207  ILE207      0.1561
     34  C         24.3040   92.8980   70.0740 C.2   207  ILE207      0.2260
     35  O         24.3820   94.0840   69.7530 O.2   207  ILE207     -0.2867
     36  CB        21.8650   93.1380   70.6870 C.3   207  ILE207      0.0252
     37  CG1       20.7740   92.6770   71.6570 C.3   207  ILE207      0.0019
     38  CG2       21.4280   92.9280   69.2370 C.3   207  ILE207      0.0019
     39  CD1       20.3090   91.2470   71.4220 C.3   207  ILE207      0.0001
     40  N          6.5070   88.1670   68.3720 N.3   229  ARG229     -0.1245
     41  CA         7.1900   89.3320   68.9170 C.3   229  ARG229      0.1563
     42  C          6.1860   90.4210   69.2920 C.2   229  ARG229      0.2260
     43  O          5.0000   90.1450   69.4800 O.2   229  ARG229     -0.2867
     44  CB         8.2280   89.8700   67.9270 C.3   229  ARG229      0.0307
     45  CG         7.6660   90.3390   66.5930 C.3   229  ARG229      0.0489
     46  CD         8.7730   90.5690   65.5700 C.3   229  ARG229      0.2205
     47  NE         9.7640   91.5320   66.0470 N.pl3 229  ARG229     -0.0865
     48  CZ        10.9400   91.7540   65.4630 C.cat 229  ARG229      0.5346
     49  NH1       11.2870   91.0770   64.3780 N.pl3 229  ARG229      0.1354
     50  NH2       11.7770   92.6520   65.9710 N.pl3 229  ARG229      0.1354
     51  N         11.9630   86.5720   65.8900 N.3   344  LYS344     -0.1245
     52  CA        12.2090   87.3710   64.6900 C.3   344  LYS344      0.1561
     53  C         12.0670   86.5920   63.3950 C.2   344  LYS344      0.2260
     54  O         12.3140   85.3790   63.3800 O.2   344  LYS344     -0.2867
     55  CB        13.6090   87.9640   64.7720 C.3   344  LYS344      0.0271
     56  CG        13.7350   89.0310   65.8430 C.3   344  LYS344      0.0035
     57  CD        15.1380   89.5770   65.9190 C.3   344  LYS344      0.0206
     58  CE        15.2690   90.5470   67.0850 C.3   344  LYS344      0.1093
     59  NZ        16.6460   91.0400   67.2190 N.3   344  LYS344     -0.1314
     60  N         18.1170   90.2700   61.5250 N.3   349  PHE349     -0.1241
     61  CA        18.8480   91.5080   61.8120 C.3   349  PHE349      0.1605
     62  C         19.0130   92.4290   60.6040 C.2   349  PHE349      0.2264
     63  O         18.6870   93.6200   60.6690 O.2   349  PHE349     -0.2867
     64  CB        20.2070   91.1770   62.4390 C.3   349  PHE349      0.0534
     65  CG        20.0910   90.5310   63.7900 C.ar  349  PHE349     -0.0203
     66  CD1       19.8280   89.1700   63.9060 C.ar  349  PHE349     -0.0042
     67  CD2       20.1970   91.2920   64.9420 C.ar  349  PHE349     -0.0042
     68  CE1       19.6960   88.5770   65.1630 C.ar  349  PHE349     -0.0003
     69  CE2       20.0680   90.7100   66.1920 C.ar  349  PHE349     -0.0003
     70  CZ        19.8150   89.3530   66.3050 C.ar  349  PHE349     -0.0000
     71  N         16.2890   97.8860   63.5930 N.3   357  PRO357     -0.2102
     72  CA        17.1120   98.8220   64.3640 C.3   357  PRO357      0.1504
     73  C         18.5660   98.7930   63.8780 C.2   357  PRO357      0.2575
     74  O         19.2100   99.8340   63.7600 O.2   357  PRO357     -0.2718
     75  CB        17.0190   98.2770   65.7960 C.3   357  PRO357      0.0282
     76  CG        15.7730   97.4820   65.8300 C.3   357  PRO357      0.0208
     77  CD        15.6210   96.8920   64.4520 C.3   357  PRO357      0.0893
     78  N         19.0810   97.6020   63.5950 N.am  358  GLU358     -0.1980
     79  CA        20.4450   97.4870   63.0920 C.3   358  GLU358      0.1602
     80  C         20.6280   98.1800   61.7390 C.2   358  GLU358      0.2287
     81  O         21.6730   98.7760   61.4770 O.2   358  GLU358     -0.2864
     82  CB        20.8680   96.0150   63.0080 C.3   358  GLU358      0.0415
     83  CG        20.9920   95.3110   64.3710 C.3   358  GLU358      0.1163
     84  CD        19.6740   94.7790   64.9220 C.2   358  GLU358      0.3649
     85  OE1       18.6780   94.6860   64.1700 O.co2 358  GLU358     -0.2457
     86  OE2       19.6380   94.4390   66.1250 O.co2 358  GLU358     -0.2457
     87  N         15.9660   87.3280   71.5530 N.3   422  ASP422     -0.1239
     88  CA        16.2960   88.4850   70.7150 C.3   422  ASP422      0.1674
     89  C         17.4930   88.2200   69.8050 C.2   422  ASP422      0.2266
     90  O         17.6280   88.8180   68.7350 O.2   422  ASP422     -0.2867
     91  CB        16.5210   89.7250   71.5800 C.3   422  ASP422      0.1410
     92  CG        15.2240   90.4090   71.9440 C.2   422  ASP422      0.3668
     93  OD1       14.4410   89.8020   72.6990 O.co2 422  ASP422     -0.2456
     94  OD2       14.9750   91.5460   71.4700 O.co2 422  ASP422     -0.2456
     95  N         14.4100   88.7790   77.8330 N.3   452  HIS452     -0.1241
     96  CA        15.2610   89.8690   77.3690 C.3   452  HIS452      0.1621
     97  C         15.2020   90.9850   78.4060 C.2   452  HIS452      0.2264
     98  O         14.1750   91.6390   78.5450 O.2   452  HIS452     -0.2867
     99  CB        14.7600   90.3770   76.0110 C.3   452  HIS452      0.0745
    100  CG        15.7320   91.2670   75.2990 C.ar  452  HIS452      0.0817
    101  ND1       16.9940   90.8480   74.9300 N.ar  452  HIS452     -0.2268
    102  CD2       15.6270   92.5530   74.8860 C.ar  452  HIS452      0.1154
    103  CE1       17.6240   91.8370   74.3240 C.ar  452  HIS452      0.1986
    104  NE2       16.8180   92.8850   74.2860 N.ar  452  HIS452     -0.2212
@<TRIPOS>BOND
     1    62    63    2
     2    62    61    1
     3    81    80    2
     4    60    61    1
     5    80    79    1
     6    61    64    1
     7    64    65    1
     8    82    79    1
     9    82    83    1
    10    79    78    1
    11    54    53    2
    12    53    52    1
    13    71    72    1
    14    71    77    1
    15    78    73   am
    16    74    73    2
    17    65    66   ar
    18    65    67   ar
    19    73    72    1
    20    66    68   ar
    21    85    84   ar
    22    72    75    1
    23    83    84    1
    24    49    48    1
    25    77    76    1
    26    52    55    1
    27    52    51    1
    28    55    56    1
    29    84    86   ar
    30    67    69   ar
    31    68    70   ar
    32    48    50    1
    33    48    47    2
    34    46    47    1
    35    46    45    1
    36    75    76    1
    37    56    57    1
    38    57    58    1
    39    69    70   ar
    40    45    44    1
    41    58    59    1
    42    44    41    1
    43    13    14    1
    44    13    10    1
    45    40    41    1
    46    16    14   ar
    47    16    18   ar
    48    14    15   ar
    49    18    19   ar
    50    12    11    2
    51     8     7    2
    52    90    89    2
    53    15    17   ar
    54    41    42    1
    55    19    17   ar
    56    19    20    1
    57    38    36    1
    58    42    43    2
    59    11    10    1
    60    10     9    1
    61    35    34    2
    62     7     9   am
    63     7     6    1
    64    89    88    1
    65    34    33    1
    66     6     5    1
    67    36    33    1
    68    36    37    1
    69    88    87    1
    70    88    91    1
    71    33    32    1
    72    39    37    1
    73    94    92   ar
    74    91    92    1
    75    92    93   ar
    76     5     3   am
    77    31    28    1
    78     4     3    2
    79     3     2    1
    80    28    27    1
    81    28    29    1
    82    30    29    2
    83    27    23   am
    84    26    25    1
    85    24    23    2
    86     2     1    1
    87    23    22    1
    88   104   103   ar
    89   104   102   ar
    90   103   101   ar
    91   102   100   ar
    92   101   100   ar
    93    25    22    1
    94    22    21    1
    95   100    99    1
    96    99    96    1
    97    96    95    1
    98    96    97    1
    99    97    98    2
