@<TRIPOS>MOLECULE
tmp/4j0hA02.pdb
 82 78 0 0 0
SMALL
GASTEIGER

@<TRIPOS>ATOM
      1  N         20.4660   79.2090   62.3290 N.3   219  TRP219     -0.1227
      2  CA        21.0110   77.9640   62.8560 C.3   219  TRP219      0.1737
      3  C         20.1190   77.5230   64.0170 C.2   219  TRP219      0.2595
      4  O         19.7270   76.3550   64.1170 O.2   219  TRP219     -0.2718
      5  CB        22.4630   78.1330   63.3100 C.3   219  TRP219      0.0564
      6  CG        22.9860   76.9460   64.0890 C.ar  219  TRP219      0.0003
      7  CD1       23.4610   75.7680   63.5810 C.ar  219  TRP219      0.0946
      8  CD2       23.0680   76.8300   65.5160 C.ar  219  TRP219      0.0152
      9  NE1       23.8340   74.9270   64.6050 N.ar  219  TRP219     -0.2442
     10  CE2       23.6000   75.5560   65.8030 C.ar  219  TRP219      0.0810
     11  CE3       22.7340   77.6770   66.5750 C.ar  219  TRP219      0.0012
     12  CZ2       23.8210   75.1140   67.1150 C.ar  219  TRP219      0.0191
     13  CZ3       22.9510   77.2370   67.8760 C.ar  219  TRP219      0.0001
     14  CH2       23.4890   75.9660   68.1310 C.ar  219  TRP219      0.0015
     15  N         19.7520   78.4770   64.8680 N.am  220  GLN220     -0.1979
     16  CA        18.9740   78.1570   66.0630 C.3   220  GLN220      0.1601
     17  C         17.5070   77.8490   65.7570 C.2   220  GLN220      0.2287
     18  O         16.9630   76.8600   66.2510 O.2   220  GLN220     -0.2864
     19  CB        19.0730   79.2960   67.0960 C.3   220  GLN220      0.0394
     20  CG        18.2540   79.0520   68.3600 C.3   220  GLN220      0.0908
     21  CD        18.6750   79.9610   69.5040 C.2   220  GLN220      0.2608
     22  OE1       19.8680   80.1310   69.7620 O.2   220  GLN220     -0.2717
     23  NE2       17.6970   80.5670   70.1770 N.am  220  GLN220     -0.0878
     24  N         21.3060   79.1570   57.8190 N.3   263  LYS263     -0.1245
     25  CA        21.6860   78.1410   58.7860 C.3   263  LYS263      0.1561
     26  C         22.9260   77.4010   58.3070 C.2   263  LYS263      0.2260
     27  O         23.8700   77.2110   59.0700 O.2   263  LYS263     -0.2867
     28  CB        20.5580   77.1350   59.0240 C.3   263  LYS263      0.0271
     29  CG        21.0260   75.8760   59.7470 C.3   263  LYS263      0.0035
     30  CD        19.8550   75.0630   60.2770 C.3   263  LYS263      0.0206
     31  CE        20.3360   73.7990   60.9890 C.3   263  LYS263      0.1093
     32  NZ        19.1880   73.0020   61.5310 N.3   263  LYS263     -0.1314
     33  N         25.0810   69.8430   58.6530 N.3   288  ALA288     -0.1231
     34  CA        23.7060   69.9940   59.1120 C.3   288  ALA288      0.1694
     35  C         23.6060   70.7570   60.4320 C.2   288  ALA288      0.2593
     36  O         22.5300   70.8550   61.0210 O.2   288  ALA288     -0.2718
     37  CB        23.0210   68.6260   59.2150 C.3   288  ALA288      0.0304
     38  N         24.7220   71.3050   60.8970 N.am  289  GLY289     -0.1942
     39  CA        24.6740   72.1890   62.0450 C.3   289  GLY289      0.2014
     40  C         24.6750   71.4650   63.3820 C.2   289  GLY289      0.2638
     41  O         24.2720   72.0310   64.3940 O.2   289  GLY289     -0.2714
     42  N         25.1090   70.2080   63.3690 N.am  290  MET290     -0.1976
     43  CA        25.2460   69.4280   64.5940 C.3   290  MET290      0.1605
     44  C         26.7170   69.3220   64.9780 C.2   290  MET290      0.2287
     45  O         27.5970   69.5010   64.1480 O.2   290  MET290     -0.2864
     46  CB        24.6520   68.0310   64.4000 C.3   290  MET290      0.0413
     47  CG        23.1550   68.0430   64.1300 C.3   290  MET290      0.0598
     48  SD        22.4610   66.4050   63.8370 S.3   290  MET290     -0.1393
     49  CE        23.0690   66.0650   62.1980 C.3   290  MET290      0.0692
     50  N         27.2870   72.7360   69.1310 N.3   294  ARG294     -0.1245
     51  CA        25.8790   72.6090   69.4700 C.3   294  ARG294      0.1563
     52  C         25.7230   71.9870   70.8570 C.2   294  ARG294      0.2260
     53  O         24.8630   72.3980   71.6490 O.2   294  ARG294     -0.2867
     54  CB        25.1470   71.7660   68.4270 C.3   294  ARG294      0.0307
     55  CG        23.6560   71.6960   68.6580 C.3   294  ARG294      0.0489
     56  CD        22.9430   71.1660   67.4280 C.3   294  ARG294      0.2205
     57  NE        21.5030   71.1510   67.6250 N.pl3 294  ARG294     -0.0865
     58  CZ        20.8340   70.1180   68.1210 C.cat 294  ARG294      0.5346
     59  NH1       21.4790   69.0130   68.4730 N.pl3 294  ARG294      0.1354
     60  NH2       19.5180   70.1940   68.2640 N.pl3 294  ARG294      0.1354
     61  N         17.3280   69.7450   72.4590 N.3   333  LEU333     -0.1231
     62  CA        17.4670   71.1750   72.1910 C.3   333  LEU333      0.1693
     63  C         16.3820   71.6740   71.2390 C.2   333  LEU333      0.2592
     64  O         15.7780   72.7190   71.4680 O.2   333  LEU333     -0.2718
     65  CB        18.8610   71.4670   71.6320 C.3   333  LEU333      0.0284
     66  CG        19.2630   72.9260   71.4070 C.3   333  LEU333      0.0019
     67  CD1       19.0060   73.7550   72.6560 C.3   333  LEU333      0.0001
     68  CD2       20.7250   73.0160   70.9950 C.3   333  LEU333      0.0001
     69  N         16.1320   70.9210   70.1700 N.am  334  SER334     -0.1952
     70  CA        15.1130   71.3180   69.2080 C.3   334  SER334      0.1924
     71  C         13.7600   71.5260   69.8900 C.2   334  SER334      0.2314
     72  O         13.0590   72.5060   69.6150 O.2   334  SER334     -0.2863
     73  CB        15.0020   70.2920   68.0770 C.3   334  SER334      0.2116
     74  OG        16.1840   70.2850   67.2930 O.3   334  SER334     -0.2180
     75  N         13.6930   74.7180   72.0230 N.3   337  LEU337     -0.1245
     76  CA        13.5860   75.9310   71.2170 C.3   337  LEU337      0.1561
     77  C         12.1760   76.1170   70.6620 C.2   337  LEU337      0.2260
     78  O         11.7000   77.2380   70.4970 O.2   337  LEU337     -0.2867
     79  CB        14.6110   75.9010   70.0860 C.3   337  LEU337      0.0270
     80  CG        16.0670   75.9060   70.5470 C.3   337  LEU337      0.0019
     81  CD1       16.9860   75.4920   69.4070 C.3   337  LEU337      0.0001
     82  CD2       16.4560   77.2840   71.0790 C.3   337  LEU337      0.0001
@<TRIPOS>BOND
     1    24    25    1
     2    26    25    1
     3    26    27    2
     4    33    34    1
     5    25    28    1
     6    28    29    1
     7    34    37    1
     8    34    35    1
     9    29    30    1
    10    30    31    1
    11    35    38   am
    12    35    36    2
    13    38    39    1
    14    31    32    1
    15    39    40    1
    16    49    48    1
    17     1     2    1
    18     2     5    1
    19     2     3    1
    20     5     6    1
    21    42    40   am
    22    42    43    1
    23    40    41    2
    24     7     6   ar
    25     7     9   ar
    26    48    47    1
    27     3     4    2
    28     3    15   am
    29     6     8   ar
    30    47    46    1
    31    45    44    2
    32    46    43    1
    33    43    44    1
    34     9    10   ar
    35    15    16    1
    36     8    10   ar
    37     8    11   ar
    38    17    16    1
    39    17    18    2
    40    10    12   ar
    41    16    19    1
    42    11    13   ar
    43    19    20    1
    44    12    14   ar
    45    74    73    1
    46    56    57    1
    47    56    55    1
    48    57    58    2
    49    13    14   ar
    50    73    70    1
    51    58    60    1
    52    58    59    1
    53    20    21    1
    54    54    55    1
    55    54    51    1
    56    50    51    1
    57    70    71    1
    58    70    69    1
    59    81    80    1
    60    51    52    1
    61    21    22    2
    62    21    23   am
    63    72    71    2
    64    79    80    1
    65    79    76    1
    66    69    63   am
    67    78    77    2
    68    80    82    1
    69    77    76    1
    70    52    53    2
    71    68    66    1
    72    76    75    1
    73    63    64    2
    74    63    62    1
    75    66    65    1
    76    66    67    1
    77    65    62    1
    78    62    61    1
