@<TRIPOS>MOLECULE
tmp/4j0jA00.pdb
 112 107 0 0 0
SMALL
GASTEIGER

@<TRIPOS>ATOM
      1  N         18.6380  101.4810   74.5860 N.3    77  GLY77      -0.1210
      2  CA        17.8640  100.3390   74.1340 C.3    77  GLY77       0.1956
      3  C         17.5340  100.4960   72.6580 C.2    77  GLY77       0.2612
      4  O         17.1600  101.5840   72.2160 O.2    77  GLY77      -0.2717
      5  N         17.6830   99.4190   71.8910 N.am   78  GLY78      -0.1942
      6  CA        17.3980   99.4470   70.4650 C.3    78  GLY78       0.2014
      7  C         18.3100  100.3770   69.6870 C.2    78  GLY78       0.2638
      8  O         17.9580  100.8280   68.5930 O.2    78  GLY78      -0.2714
      9  N         19.4850  100.6630   70.2490 N.am   79  TYR79      -0.1973
     10  CA        20.4480  101.5730   69.6300 C.3    79  TYR79       0.1639
     11  C         19.8500  102.9730   69.4300 C.2    79  TYR79       0.2290
     12  O         20.2810  103.7440   68.5660 O.2    79  TYR79      -0.2864
     13  CB        21.0540  100.9670   68.3490 C.3    79  TYR79       0.0560
     14  CG        22.0480   99.8690   68.6720 C.ar   79  TYR79      -0.0198
     15  CD1       23.3140  100.1780   69.1610 C.ar   79  TYR79      -0.0009
     16  CD2       21.7090   98.5240   68.5370 C.ar   79  TYR79      -0.0009
     17  CE1       24.2250   99.1830   69.4830 C.ar   79  TYR79       0.0417
     18  CE2       22.6190   97.5140   68.8560 C.ar   79  TYR79       0.0417
     19  CZ        23.8750   97.8550   69.3290 C.ar   79  TYR79       0.1957
     20  OH        24.7930   96.8770   69.6480 O.3    79  TYR79      -0.2866
     21  N         20.5990   94.9330   76.7440 N.3   164  SER164     -0.1202
     22  CA        20.4310   94.7850   75.2970 C.3   164  SER164      0.2020
     23  C         21.4380   95.6190   74.5050 C.2   164  SER164      0.2618
     24  O         22.6490   95.3870   74.5960 O.2   164  SER164     -0.2717
     25  CB        18.9910   95.0850   74.8730 C.3   164  SER164      0.2103
     26  OG        18.5950   96.4530   74.8560 O.3   164  SER164     -0.2182
     27  N         20.9500   96.5800   73.7250 N.am  165  ALA165     -0.1979
     28  CA        21.8520   97.4930   73.0190 C.3   165  ALA165      0.1597
     29  C         22.7960   98.1580   74.0160 C.2   165  ALA165      0.2287
     30  O         23.9780   98.3700   73.7250 O.2   165  ALA165     -0.2864
     31  CB        21.0700   98.5320   72.2380 C.3   165  ALA165      0.0319
     32  N         23.1360   92.8600   72.9060 N.3   207  ILE207     -0.1245
     33  CA        22.8310   92.6870   71.4910 C.3   207  ILE207      0.1561
     34  C         24.0240   93.1450   70.6600 C.2   207  ILE207      0.2260
     35  O         24.0820   94.2890   70.1920 O.2   207  ILE207     -0.2867
     36  CB        21.5580   93.4550   71.0980 C.3   207  ILE207      0.0252
     37  CG1       20.4070   93.0560   72.0190 C.3   207  ILE207      0.0019
     38  CG2       21.1860   93.1630   69.6550 C.3   207  ILE207      0.0019
     39  CD1       20.0690   91.5600   71.9390 C.3   207  ILE207      0.0001
     40  N          6.1910   88.8290   67.9290 N.3   229  ARG229     -0.1245
     41  CA         6.8410   89.9680   68.5750 C.3   229  ARG229      0.1563
     42  C          5.8830   91.1470   68.7540 C.2   229  ARG229      0.2260
     43  O          4.6700   91.0140   68.5590 O.2   229  ARG229     -0.2867
     44  CB         8.0710   90.4060   67.7770 C.3   229  ARG229      0.0307
     45  CG         7.7370   91.0210   66.4300 C.3   229  ARG229      0.0489
     46  CD         8.9690   91.1470   65.5570 C.3   229  ARG229      0.2205
     47  NE        10.0450   91.8920   66.2050 N.pl3 229  ARG229     -0.0865
     48  CZ        11.1630   92.2680   65.5900 C.cat 229  ARG229      0.5346
     49  NH1       11.3470   91.9720   64.3100 N.pl3 229  ARG229      0.1354
     50  NH2       12.0950   92.9420   66.2510 N.pl3 229  ARG229      0.1354
     51  N          3.3000   98.5650   73.0300 N.3   244  PHE244     -0.1241
     52  CA         3.5790   97.4770   72.0970 C.3   244  PHE244      0.1605
     53  C          2.3660   96.6430   71.6890 C.2   244  PHE244      0.2264
     54  O          1.9160   95.7540   72.4210 O.2   244  PHE244     -0.2867
     55  CB         4.6860   96.5880   72.6640 C.3   244  PHE244      0.0534
     56  CG         6.0400   97.2410   72.6410 C.ar  244  PHE244     -0.0203
     57  CD1        6.7830   97.2720   71.4710 C.ar  244  PHE244     -0.0042
     58  CD2        6.5620   97.8460   73.7770 C.ar  244  PHE244     -0.0042
     59  CE1        8.0250   97.8820   71.4330 C.ar  244  PHE244     -0.0003
     60  CE2        7.8050   98.4590   73.7470 C.ar  244  PHE244     -0.0003
     61  CZ         8.5380   98.4770   72.5710 C.ar  244  PHE244     -0.0000
     62  N         10.9410   84.9250   67.6460 N.3   343  MET343     -0.1230
     63  CA        10.5000   86.3060   67.7570 C.3   343  MET343      0.1702
     64  C         10.6790   87.0910   66.4550 C.2   343  MET343      0.2592
     65  O          9.7470   87.7490   65.9890 O.2   343  MET343     -0.2718
     66  CB        11.2310   87.0020   68.9110 C.3   343  MET343      0.0401
     67  CG        10.9480   88.4870   69.0130 C.3   343  MET343      0.0596
     68  SD        12.1700   89.3430   70.0220 S.3   343  MET343     -0.1393
     69  CE        11.9290   91.0370   69.4630 C.3   343  MET343      0.0692
     70  N         11.8680   87.0160   65.8650 N.am  344  LYS344     -0.1980
     71  CA        12.1840   87.8250   64.6860 C.3   344  LYS344      0.1596
     72  C         12.0460   87.0590   63.3750 C.2   344  LYS344      0.2287
     73  O         12.1380   85.8320   63.3550 O.2   344  LYS344     -0.2864
     74  CB        13.6000   88.3940   64.8050 C.3   344  LYS344      0.0298
     75  CG        13.7250   89.4610   65.8800 C.3   344  LYS344      0.0038
     76  CD        15.1490   89.9720   66.0510 C.3   344  LYS344      0.0206
     77  CE        15.1590   91.0090   67.1690 C.3   344  LYS344      0.1093
     78  NZ        16.5200   91.4850   67.5220 N.3   344  LYS344     -0.1314
     79  N         16.4230   98.2050   63.4010 N.3   357  PRO357     -0.2102
     80  CA        17.1460   99.1840   64.2180 C.3   357  PRO357      0.1504
     81  C         18.6450   99.1460   63.9220 C.2   357  PRO357      0.2575
     82  O         19.2960  100.1930   63.8850 O.2   357  PRO357     -0.2718
     83  CB        16.8840   98.7030   65.6480 C.3   357  PRO357      0.0282
     84  CG        15.5810   97.9690   65.5700 C.3   357  PRO357      0.0208
     85  CD        15.5890   97.3040   64.2190 C.3   357  PRO357      0.0893
     86  N         19.1800   97.9450   63.7060 N.am  358  GLU358     -0.1980
     87  CA        20.5990   97.7890   63.3980 C.3   358  GLU358      0.1602
     88  C         20.9580   98.3290   62.0140 C.2   358  GLU358      0.2287
     89  O         22.0690   98.8210   61.8130 O.2   358  GLU358     -0.2864
     90  CB        21.0390   96.3270   63.5280 C.3   358  GLU358      0.0415
     91  CG        20.8580   95.7430   64.9190 C.3   358  GLU358      0.1163
     92  CD        19.4330   95.2850   65.1840 C.2   358  GLU358      0.3649
     93  OE1       18.5970   95.3130   64.2570 O.co2 358  GLU358     -0.2457
     94  OE2       19.1470   94.8960   66.3270 O.co2 358  GLU358     -0.2457
     95  N         15.4230   87.5850   71.6430 N.3   422  ASP422     -0.1239
     96  CA        15.8190   88.7630   70.8580 C.3   422  ASP422      0.1674
     97  C         17.1150   88.5480   70.0650 C.2   422  ASP422      0.2266
     98  O         17.3650   89.2150   69.0560 O.2   422  ASP422     -0.2867
     99  CB        15.9370   89.9950   71.7640 C.3   422  ASP422      0.1410
    100  CG        14.5960   90.6840   72.0000 C.2   422  ASP422      0.3668
    101  OD1       13.7300   90.0950   72.6830 O.co2 422  ASP422     -0.2456
    102  OD2       14.4080   91.8210   71.5050 O.co2 422  ASP422     -0.2456
    103  N         13.4240   89.3490   77.6100 N.3   452  HIS452     -0.1241
    104  CA        14.3160   90.4320   77.2160 C.3   452  HIS452      0.1621
    105  C         14.2070   91.5650   78.2460 C.2   452  HIS452      0.2264
    106  O         13.2300   92.3200   78.2550 O.2   452  HIS452     -0.2867
    107  CB        13.9410   90.9250   75.8210 C.3   452  HIS452      0.0745
    108  CG        15.0250   91.6830   75.1300 C.ar  452  HIS452      0.0817
    109  ND1       16.3130   91.1950   75.0000 N.ar  452  HIS452     -0.2268
    110  CD2       15.0210   92.8880   74.5160 C.ar  452  HIS452      0.1154
    111  CE1       17.0480   92.0720   74.3440 C.ar  452  HIS452      0.1986
    112  NE2       16.2870   93.1100   74.0360 N.ar  452  HIS452     -0.2212
@<TRIPOS>BOND
     1    89    88    2
     2    88    87    1
     3    73    72    2
     4    72    71    1
     5    87    90    1
     6    87    86    1
     7    79    80    1
     8    79    85    1
     9    90    91    1
    10    86    81   am
    11    82    81    2
    12    81    80    1
    13    80    83    1
    14    85    84    1
    15    93    92   ar
    16    49    48    1
    17    71    74    1
    18    71    70    1
    19    74    75    1
    20    91    92    1
    21    92    94   ar
    22    46    47    1
    23    46    45    1
    24    84    83    1
    25    48    47    2
    26    48    50    1
    27    70    64   am
    28    75    76    1
    29    65    64    2
    30    76    77    1
    31    45    44    1
    32    64    63    1
    33    77    78    1
    34    62    63    1
    35    63    66    1
    36    44    41    1
    37    40    41    1
    38    13    14    1
    39    13    10    1
    40    16    14   ar
    41    16    18   ar
    42    43    42    2
    43    12    11    2
    44    41    42    1
    45     8     7    2
    46    14    15   ar
    47    18    19   ar
    48    66    67    1
    49    67    68    1
    50    98    97    2
    51    15    17   ar
    52    19    17   ar
    53    19    20    1
    54    11    10    1
    55    69    68    1
    56    10     9    1
    57    38    36    1
    58     7     9   am
    59     7     6    1
    60    97    96    1
    61    35    34    2
    62     6     5    1
    63    34    33    1
    64    96    95    1
    65    96    99    1
    66    36    33    1
    67    36    37    1
    68    59    57   ar
    69    59    61   ar
    70    57    56   ar
    71    33    32    1
    72   102   100   ar
    73    53    52    1
    74    53    54    2
    75    99   100    1
    76     5     3   am
    77    39    37    1
    78   100   101   ar
    79    52    55    1
    80    52    51    1
    81     4     3    2
    82    31    28    1
    83    61    60   ar
    84    56    55    1
    85    56    58   ar
    86     3     2    1
    87    28    27    1
    88    28    29    1
    89    30    29    2
    90    27    23   am
    91    60    58   ar
    92   112   111   ar
    93   112   110   ar
    94     2     1    1
    95   111   109   ar
    96    23    24    2
    97    23    22    1
    98   110   108   ar
    99    26    25    1
   100    25    22    1
   101   109   108   ar
   102   108   107    1
   103    22    21    1
   104   107   104    1
   105   104   103    1
   106   104   105    1
   107   105   106    2
