@<TRIPOS>MOLECULE
tmp/4j0lA01.pdb
 235 230 0 0 0
SMALL
GASTEIGER

@<TRIPOS>ATOM
      1  N        -21.8590   14.6890  -11.4770 N.3    67  GLN67      -0.1245
      2  CA       -22.3390   14.0200  -12.7010 C.3    67  GLN67       0.1566
      3  C        -23.6800   14.5670  -13.1760 C.2    67  GLN67       0.2260
      4  O        -23.9880   14.5360  -14.3680 O.2    67  GLN67      -0.2867
      5  CB       -22.4970   12.5020  -12.4930 C.3    67  GLN67       0.0367
      6  CG       -21.2130   11.7160  -12.1840 C.3    67  GLN67       0.0905
      7  CD       -20.1560   11.7950  -13.2850 C.2    67  GLN67       0.2608
      8  OE1      -19.4600   12.7990  -13.4220 O.2    67  GLN67      -0.2717
      9  NE2      -20.0200   10.7240  -14.0590 N.am   67  GLN67      -0.0878
     10  N        -27.7580   12.4750  -19.7730 N.3    89  GLU89      -0.1245
     11  CA       -26.6800   13.2900  -20.3380 C.3    89  GLU89       0.1567
     12  C        -27.2470   14.3560  -21.2790 C.2    89  GLU89       0.2260
     13  O        -28.0310   14.0350  -22.1620 O.2    89  GLU89      -0.2867
     14  CB       -25.6780   12.3870  -21.0690 C.3    89  GLU89       0.0388
     15  CG       -24.4170   13.1000  -21.5500 C.3    89  GLU89       0.1160
     16  CD       -23.3740   12.1520  -22.1320 C.2    89  GLU89       0.3649
     17  OE1      -23.4270   10.9300  -21.8700 O.co2  89  GLU89      -0.2457
     18  OE2      -22.4810   12.6420  -22.8500 O.co2  89  GLU89      -0.2457
     19  N        -22.3590    5.4940  -27.8250 N.3    96  TYR96      -0.1241
     20  CA       -21.4770    4.8420  -26.8510 C.3    96  TYR96       0.1605
     21  C        -21.5920    3.3210  -26.9200 C.2    96  TYR96       0.2264
     22  O        -21.7830    2.6440  -25.9060 O.2    96  TYR96      -0.2867
     23  CB       -21.7330    5.3690  -25.4390 C.3    96  TYR96       0.0534
     24  CG       -21.4400    6.8450  -25.3050 C.ar   96  TYR96      -0.0201
     25  CD1      -22.4750    7.7800  -25.3040 C.ar   96  TYR96      -0.0009
     26  CD2      -20.1290    7.3080  -25.2060 C.ar   96  TYR96      -0.0009
     27  CE1      -22.2140    9.1430  -25.1890 C.ar   96  TYR96       0.0417
     28  CE2      -19.8520    8.6710  -25.0860 C.ar   96  TYR96       0.0417
     29  CZ       -20.9020    9.5800  -25.0800 C.ar   96  TYR96       0.1957
     30  OH       -20.6430   10.9250  -24.9620 O.3    96  TYR96      -0.2866
     31  N        -19.2570    0.4380  -27.9890 N.3    98  THR98      -0.1218
     32  CA       -17.9330   -0.0460  -28.3480 C.3    98  THR98       0.1862
     33  C        -18.0450   -1.5540  -28.5530 C.2    98  THR98       0.2287
     34  O        -18.1950   -2.2920  -27.5820 O.2    98  THR98      -0.2866
     35  CB       -16.9050    0.2780  -27.2450 C.3    98  THR98       0.1770
     36  OG1      -16.9560    1.6820  -26.9470 O.3    98  THR98      -0.2211
     37  CG2      -15.4910   -0.0900  -27.6900 C.3    98  THR98       0.0375
     38  N        -18.0570   -5.4230  -28.7370 N.3   100  SER100     -0.1217
     39  CA       -17.3610   -6.5130  -28.0510 C.3   100  SER100      0.1889
     40  C        -18.2380   -7.7590  -28.0140 C.2   100  SER100      0.2288
     41  O        -19.4690   -7.6730  -28.1050 O.2   100  SER100     -0.2866
     42  CB       -16.9220   -6.1130  -26.6290 C.3   100  SER100      0.2089
     43  OG       -17.9580   -6.2880  -25.6740 O.3   100  SER100     -0.2183
     44  N        -18.5560   -9.5880  -25.4200 N.3   102  GLN102     -0.1231
     45  CA       -19.1340   -9.6680  -24.0750 C.3   102  GLN102      0.1698
     46  C        -20.4260   -8.8670  -23.9010 C.2   102  GLN102      0.2592
     47  O        -21.3630   -9.3320  -23.2360 O.2   102  GLN102     -0.2718
     48  CB       -18.1100   -9.2580  -23.0100 C.3   102  GLN102      0.0381
     49  CG       -16.8460  -10.1200  -22.9720 C.3   102  GLN102      0.0905
     50  CD       -15.7910   -9.6820  -23.9870 C.2   102  GLN102      0.2608
     51  OE1      -15.3260  -10.4850  -24.7980 O.2   102  GLN102     -0.2717
     52  NE2      -15.4110   -8.4070  -23.9450 N.am  102  GLN102     -0.0878
     53  N        -20.4780   -7.6790  -24.5030 N.am  103  TRP103     -0.1976
     54  CA       -21.6010   -6.7630  -24.3120 C.3   103  TRP103      0.1640
     55  C        -22.2070   -6.3030  -25.6380 C.2   103  TRP103      0.2290
     56  O        -21.9260   -5.1880  -26.0970 O.2   103  TRP103     -0.2864
     57  CB       -21.1650   -5.5500  -23.4780 C.3   103  TRP103      0.0576
     58  CG       -20.2990   -5.9130  -22.2970 C.ar  103  TRP103      0.0006
     59  CD1      -18.9800   -5.6180  -22.1310 C.ar  103  TRP103      0.0946
     60  CD2      -20.6920   -6.6600  -21.1380 C.ar  103  TRP103      0.0152
     61  NE1      -18.5270   -6.1200  -20.9340 N.ar  103  TRP103     -0.2442
     62  CE2      -19.5560   -6.7640  -20.3040 C.ar  103  TRP103      0.0810
     63  CE3      -21.8930   -7.2470  -20.7210 C.ar  103  TRP103      0.0012
     64  CZ2      -19.5820   -7.4350  -19.0760 C.ar  103  TRP103      0.0191
     65  CZ3      -21.9220   -7.9160  -19.4950 C.ar  103  TRP103      0.0001
     66  CH2      -20.7710   -8.0020  -18.6890 C.ar  103  TRP103      0.0015
     67  N        -24.8450    8.8280  -20.8220 N.3   113  GLY113     -0.1225
     68  CA       -24.9700    8.9610  -19.3650 C.3   113  GLY113      0.1811
     69  C        -26.3940    8.9640  -18.8310 C.2   113  GLY113      0.2280
     70  O        -27.2370    9.7500  -19.2740 O.2   113  GLY113     -0.2866
     71  N        -24.5920    8.2840  -11.4470 N.3   117  ILE117     -0.1231
     72  CA       -23.1920    8.1560  -11.8730 C.3   117  ILE117      0.1692
     73  C        -23.0090    8.5100  -13.3570 C.2   117  ILE117      0.2592
     74  O        -21.8760    8.5290  -13.8580 O.2   117  ILE117     -0.2718
     75  CB       -22.5780    6.7420  -11.5310 C.3   117  ILE117      0.0266
     76  CG1      -21.0540    6.8070  -11.4170 C.3   117  ILE117      0.0019
     77  CG2      -22.9760    5.6840  -12.5610 C.3   117  ILE117      0.0020
     78  CD1      -20.5460    7.5650  -10.2110 C.3   117  ILE117      0.0001
     79  N        -24.1200    8.8140  -14.0370 N.am  118  GLN118     -0.1966
     80  CA       -24.1280    9.0310  -15.4830 C.3   118  GLN118      0.1733
     81  C        -23.4310    7.8520  -16.1630 C.2   118  GLN118      0.2616
     82  O        -22.4700    8.0130  -16.9340 O.2   118  GLN118     -0.2715
     83  CB       -23.5060   10.3910  -15.8440 C.3   118  GLN118      0.0408
     84  CG       -24.4170   11.5550  -15.4690 C.3   118  GLN118      0.0908
     85  CD       -25.5840   11.6920  -16.4230 C.2   118  GLN118      0.2608
     86  OE1      -25.4110   12.1390  -17.5550 O.2   118  GLN118     -0.2717
     87  NE2      -26.7820   11.2930  -15.9760 N.am  118  GLN118     -0.0878
     88  N        -23.9210    6.6620  -15.8180 N.am  119  LEU119     -0.1963
     89  CA       -23.4380    5.4020  -16.3650 C.3   119  LEU119      0.1728
     90  C        -23.4700    5.4770  -17.8840 C.2   119  LEU119      0.2617
     91  O        -24.5030    5.8310  -18.4680 O.2   119  LEU119     -0.2715
     92  CB       -24.3340    4.2570  -15.8890 C.3   119  LEU119      0.0311
     93  CG       -23.8490    2.8220  -16.1340 C.3   119  LEU119      0.0022
     94  CD1      -22.8720    2.3880  -15.0470 C.3   119  LEU119      0.0001
     95  CD2      -25.0350    1.8850  -16.1850 C.3   119  LEU119      0.0001
     96  N        -22.3380    5.1480  -18.5070 N.am  120  SER120     -0.1936
     97  CA       -22.1840    5.2240  -19.9580 C.3   120  SER120      0.2055
     98  C        -21.5130    3.9800  -20.5250 C.2   120  SER120      0.2643
     99  O        -20.8200    3.2590  -19.8050 O.2   120  SER120     -0.2714
    100  CB       -21.3590    6.4550  -20.3420 C.3   120  SER120      0.2130
    101  OG       -21.9610    7.6420  -19.8670 O.3   120  SER120     -0.2179
    102  N        -21.7220    3.7530  -21.8230 N.am  121  HIS121     -0.1973
    103  CA       -21.0900    2.6530  -22.5930 C.3   121  HIS121      0.1656
    104  C        -21.7830    1.3100  -22.3970 C.2   121  HIS121      0.2291
    105  O        -22.1870    0.9650  -21.2830 O.2   121  HIS121     -0.2864
    106  CB       -19.5690    2.5150  -22.3500 C.3   121  HIS121      0.0771
    107  CG       -18.7980    3.7810  -22.5590 C.ar  121  HIS121      0.0820
    108  ND1      -18.3030    4.1610  -23.7900 N.ar  121  HIS121     -0.2267
    109  CD2      -18.4170    4.7450  -21.6890 C.ar  121  HIS121      0.1154
    110  CE1      -17.6680    5.3130  -23.6710 C.ar  121  HIS121      0.1986
    111  NE2      -17.7270    5.6920  -22.4070 N.ar  121  HIS121     -0.2212
    112  N        -20.3910   -1.4340  -22.2630 N.3   123  TYR123     -0.1227
    113  CA       -19.5490   -2.1970  -21.3370 C.3   123  TYR123      0.1736
    114  C        -19.7630   -1.8750  -19.8520 C.2   123  TYR123      0.2595
    115  O        -19.2080   -2.5520  -18.9900 O.2   123  TYR123     -0.2718
    116  CB       -18.0580   -2.1290  -21.7140 C.3   123  TYR123      0.0548
    117  CG       -17.4170   -0.7510  -21.7280 C.ar  123  TYR123     -0.0200
    118  CD1      -17.2400   -0.0160  -20.5510 C.ar  123  TYR123     -0.0009
    119  CD2      -16.9510   -0.2030  -22.9200 C.ar  123  TYR123     -0.0009
    120  CE1      -16.6450    1.2440  -20.5720 C.ar  123  TYR123      0.0417
    121  CE2      -16.3450    1.0390  -22.9510 C.ar  123  TYR123      0.0417
    122  CZ       -16.1930    1.7570  -21.7790 C.ar  123  TYR123      0.1957
    123  OH       -15.5890    2.9940  -21.8220 O.3   123  TYR123     -0.2866
    124  N        -20.5500   -0.8420  -19.5620 N.am  124  ASN124     -0.1974
    125  CA       -21.0180   -0.6040  -18.2000 C.3   124  ASN124      0.1688
    126  C        -22.4720   -0.9910  -17.9970 C.2   124  ASN124      0.2292
    127  O        -22.8090   -1.5660  -16.9700 O.2   124  ASN124     -0.2864
    128  CB       -20.7890    0.8420  -17.7530 C.3   124  ASN124      0.1181
    129  CG       -19.3530    1.1100  -17.3620 C.2   124  ASN124      0.2629
    130  OD1      -18.7060    0.2720  -16.7420 O.2   124  ASN124     -0.2716
    131  ND2      -18.8480    2.2890  -17.7170 N.am  124  ASN124     -0.0877
    132  N        -21.4800    0.8690   -9.9640 N.3   157  PHE157     -0.1241
    133  CA       -20.2270    1.4260  -10.4640 C.3   157  PHE157      0.1605
    134  C        -19.2640    1.7420   -9.3280 C.2   157  PHE157      0.2264
    135  O        -18.0670    1.4540   -9.4230 O.2   157  PHE157     -0.2867
    136  CB       -20.4470    2.6790  -11.3120 C.3   157  PHE157      0.0534
    137  CG       -19.2150    3.1140  -12.0490 C.ar  157  PHE157     -0.0203
    138  CD1      -18.3160    3.9980  -11.4630 C.ar  157  PHE157     -0.0042
    139  CD2      -18.9430    2.6240  -13.3240 C.ar  157  PHE157     -0.0042
    140  CE1      -17.1560    4.4050  -12.1340 C.ar  157  PHE157     -0.0003
    141  CE2      -17.7870    3.0250  -14.0090 C.ar  157  PHE157     -0.0003
    142  CZ       -16.8900    3.9170  -13.3990 C.ar  157  PHE157     -0.0000
    143  N        -12.8250   -2.6150  -11.8360 N.3   162  GLN162     -0.1231
    144  CA       -12.6870   -2.9710  -13.2450 C.3   162  GLN162      0.1698
    145  C        -11.2070   -2.8960  -13.5980 C.2   162  GLN162      0.2592
    146  O        -10.6990   -1.8330  -13.9570 O.2   162  GLN162     -0.2718
    147  CB       -13.5240   -2.0480  -14.1500 C.3   162  GLN162      0.0381
    148  CG       -15.0320   -2.0260  -13.8440 C.3   162  GLN162      0.0905
    149  CD       -15.8680   -1.4980  -15.0140 C.2   162  GLN162      0.2608
    150  OE1      -15.5590   -1.7560  -16.1750 O.2   162  GLN162     -0.2717
    151  NE2      -16.9240   -0.7640  -14.7050 N.am  162  GLN162     -0.0878
    152  N        -10.5100   -4.0260  -13.4720 N.am  163  ALA163     -0.1966
    153  CA        -9.0490   -4.0500  -13.6220 C.3   163  ALA163      0.1713
    154  C         -8.5970   -3.2490  -14.8480 C.2   163  ALA163      0.2458
    155  O         -9.1710   -3.4060  -15.9320 O.2   163  ALA163     -0.2730
    156  CB        -8.5330   -5.4970  -13.6800 C.3   163  ALA163      0.0333
    157  N         -7.5790   -2.3810  -14.6900 N.am  164  PRO164     -0.2716
    158  CA        -6.7200   -2.1340  -13.5220 C.3   164  PRO164      0.1536
    159  C         -7.2230   -1.1090  -12.4880 C.2   164  PRO164      0.2598
    160  O         -6.4600   -0.7170  -11.5910 O.2   164  PRO164     -0.2715
    161  CB        -5.4350   -1.6170  -14.1630 C.3   164  PRO164      0.0310
    162  CG        -5.9100   -0.8750  -15.3580 C.3   164  PRO164      0.0237
    163  CD        -7.1070   -1.6310  -15.8700 C.3   164  PRO164      0.0939
    164  N         -8.4710   -0.6650  -12.6160 N.am  165  LYS165     -0.1978
    165  CA        -9.0570    0.2500  -11.6340 C.3   165  LYS165      0.1596
    166  C         -9.5810   -0.5360  -10.4320 C.2   165  LYS165      0.2287
    167  O        -10.2320   -1.5660  -10.6060 O.2   165  LYS165     -0.2864
    168  CB       -10.2290    1.0400  -12.2360 C.3   165  LYS165      0.0298
    169  CG        -9.9170    1.8490  -13.4830 C.3   165  LYS165      0.0038
    170  CD       -11.1980    2.4880  -14.0060 C.3   165  LYS165      0.0206
    171  CE       -10.9390    3.4140  -15.1800 C.3   165  LYS165      0.1093
    172  NZ       -12.2130    4.0850  -15.6230 N.3   165  LYS165     -0.1314
    173  N        -10.7250   10.0900  -11.2910 N.3   196  ASN196     -0.1240
    174  CA        -9.9910    9.3990  -12.3470 C.3   196  ASN196      0.1653
    175  C        -10.6780    8.0900  -12.7770 C.2   196  ASN196      0.2266
    176  O        -10.8040    7.8030  -13.9710 O.2   196  ASN196     -0.2867
    177  CB        -8.5510    9.1480  -11.8720 C.3   196  ASN196      0.1155
    178  CG        -7.5620    9.0270  -13.0150 C.2   196  ASN196      0.2627
    179  OD1       -7.9390    8.7930  -14.1560 O.2   196  ASN196     -0.2716
    180  ND2       -6.2770    9.1830  -12.7030 N.am  196  ASN196     -0.0877
    181  N        -13.8940    7.3800  -12.4760 N.3   198  ILE198     -0.1231
    182  CA       -15.1810    7.7260  -13.0920 C.3   198  ILE198      0.1692
    183  C        -15.0430    8.3200  -14.5020 C.2   198  ILE198      0.2592
    184  O        -15.7370    7.8960  -15.4390 O.2   198  ILE198     -0.2718
    185  CB       -15.9900    8.6780  -12.1560 C.3   198  ILE198      0.0266
    186  CG1      -16.3160    7.9510  -10.8370 C.3   198  ILE198      0.0019
    187  CG2      -17.2640    9.1710  -12.8380 C.3   198  ILE198      0.0020
    188  CD1      -16.7110    8.8770   -9.6750 C.3   198  ILE198      0.0001
    189  N        -14.1550    9.2980  -14.6590 N.am  199  ASN199     -0.1960
    190  CA       -14.0460   10.0110  -15.9320 C.3   199  ASN199      0.1819
    191  C        -12.6490   10.5720  -16.2180 C.2   199  ASN199      0.2622
    192  O        -12.5150   11.6360  -16.8250 O.2   199  ASN199     -0.2715
    193  CB       -15.0990   11.1300  -16.0020 C.3   199  ASN199      0.1195
    194  CG       -15.4050   11.5520  -17.4220 C.2   199  ASN199      0.2630
    195  OD1      -15.2530   10.7690  -18.3530 O.2   199  ASN199     -0.2716
    196  ND2      -15.8340   12.7970  -17.5960 N.am  199  ASN199     -0.0877
    197  N        -11.6180    9.8440  -15.7950 N.am  200  GLY200     -0.1940
    198  CA       -10.2330   10.3170  -15.8770 C.3   200  GLY200      0.2014
    199  C         -9.6980   10.6430  -17.2610 C.2   200  GLY200      0.2639
    200  O         -8.8520   11.5300  -17.4080 O.2   200  GLY200     -0.2714
    201  N        -10.1800    9.9250  -18.2700 N.am  201  GLY201     -0.1939
    202  CA        -9.7860   10.1760  -19.6600 C.3   201  GLY201      0.2014
    203  C        -10.0340   11.6190  -20.0680 C.2   201  GLY201      0.2638
    204  O         -9.2000   12.2380  -20.7220 O.2   201  GLY201     -0.2714
    205  N        -11.1680   12.1680  -19.6470 N.am  202  LEU202     -0.1977
    206  CA       -11.5510   13.5110  -20.0670 C.3   202  LEU202      0.1596
    207  C        -11.1360   14.6000  -19.0780 C.2   202  LEU202      0.2287
    208  O        -10.9940   15.7620  -19.4620 O.2   202  LEU202     -0.2864
    209  CB       -13.0610   13.5900  -20.3580 C.3   202  LEU202      0.0297
    210  CG       -13.8010   12.5030  -21.1640 C.3   202  LEU202      0.0022
    211  CD1      -14.9760   13.1130  -21.8920 C.3   202  LEU202      0.0001
    212  CD2      -12.9380   11.7310  -22.1600 C.3   202  LEU202      0.0001
    213  N         -4.4140    9.3040  -16.4530 N.3   241  PRO241     -0.2102
    214  CA        -5.6050    8.4520  -16.4870 C.3   241  PRO241      0.1504
    215  C         -5.2150    6.9710  -16.4790 C.2   241  PRO241      0.2576
    216  O         -4.0730    6.6330  -16.8200 O.2   241  PRO241     -0.2718
    217  CB        -6.2750    8.8270  -17.8100 C.3   241  PRO241      0.0282
    218  CG        -5.7880   10.2150  -18.1060 C.3   241  PRO241      0.0208
    219  CD        -4.3810   10.2620  -17.5750 C.3   241  PRO241      0.0893
    220  N         -6.1460    6.1040  -16.0810 N.am  242  PHE242     -0.1963
    221  CA        -5.8920    4.6600  -16.0360 C.3   242  PHE242      0.1771
    222  C         -5.6030    4.0540  -17.4090 C.2   242  PHE242      0.2619
    223  O         -4.8820    3.0550  -17.5090 O.2   242  PHE242     -0.2715
    224  CB        -7.0470    3.9150  -15.3570 C.3   242  PHE242      0.0574
    225  CG        -7.0660    4.0630  -13.8680 C.ar  242  PHE242     -0.0200
    226  CD1       -6.4180    3.1330  -13.0540 C.ar  242  PHE242     -0.0042
    227  CD2       -7.7370    5.1290  -13.2730 C.ar  242  PHE242     -0.0042
    228  CE1       -6.4340    3.2650  -11.6680 C.ar  242  PHE242     -0.0003
    229  CE2       -7.7640    5.2710  -11.8890 C.ar  242  PHE242     -0.0003
    230  CZ        -7.1140    4.3360  -11.0810 C.ar  242  PHE242     -0.0000
    231  N         -6.1740    4.6530  -18.4520 N.am  243  ALA243     -0.1977
    232  CA        -5.8600    4.2850  -19.8350 C.3   243  ALA243      0.1597
    233  C         -6.0530    5.4630  -20.7910 C.2   243  ALA243      0.2287
    234  O         -6.5210    6.5320  -20.3850 O.2   243  ALA243     -0.2864
    235  CB        -6.6920    3.0960  -20.2790 C.3   243  ALA243      0.0319
@<TRIPOS>BOND
     1    38    39    1
     2    33    32    1
     3    33    34    2
     4    32    31    1
     5    32    35    1
     6    41    40    2
     7    39    40    1
     8    39    42    1
     9    19    20    1
    10    37    35    1
    11    35    36    1
    12    21    20    1
    13    21    22    2
    14    20    23    1
    15    42    43    1
    16    56    55    2
    17    55    54    1
    18    23    24    1
    19    44    45    1
    20    24    25   ar
    21    24    26   ar
    22    25    27   ar
    23    26    28   ar
    24    27    29   ar
    25    28    29   ar
    26    29    30    1
    27    51    50    2
    28    53    54    1
    29    53    46   am
    30    54    57    1
    31    45    46    1
    32    45    48    1
    33    50    52   am
    34    50    49    1
    35    46    47    2
    36   108   110   ar
    37   108   107   ar
    38   110   111   ar
    39    57    58    1
    40    48    49    1
    41   121   119   ar
    42   121   122   ar
    43   119   117   ar
    44    18    16   ar
    45   103   104    1
    46   103   106    1
    47   103   102    1
    48   107   106    1
    49   107   109   ar
    50   111   109   ar
    51   104   105    2
    52    58    59   ar
    53    58    60   ar
    54   112   113    1
    55    13    12    2
    56   212   210    1
    57    16    17   ar
    58    16    15    1
    59    59    61   ar
    60   211   210    1
    61   102    98   am
    62   123   122    1
    63   122   120   ar
    64   117   116    1
    65   117   118   ar
    66   116   113    1
    67    15    14    1
    68   113   114    1
    69    12    11    1
    70   210   209    1
    71    60    63   ar
    72    60    62   ar
    73    14    11    1
    74    61    62   ar
    75    67    68    1
    76   233   234    2
    77   233   232    1
    78   204   203    2
    79    63    65   ar
    80   120   118   ar
    81    98    97    1
    82    98    99    2
    83   209   206    1
    84   100    97    1
    85   100   101    1
    86    11    10    1
    87    62    64   ar
    88   235   232    1
    89   203   202    1
    90   203   205   am
    91   206   205    1
    92   206   207    1
    93    97    96    1
    94   114   124   am
    95   114   115    2
    96   232   231    1
    97   202   201    1
    98   124   125    1
    99    65    66   ar
   100   208   207    2
   101    68    69    1
   102    70    69    2
   103    64    66   ar
   104    96    90   am
   105    91    90    2
   106   231   222   am
   107   195   194    2
   108   201   199   am
   109   125   126    1
   110   125   128    1
   111   218   217    1
   112   218   219    1
   113   126   127    2
   114    90    89    1
   115   217   214    1
   116   128   129    1
   117   131   129   am
   118   196   194   am
   119   219   213    1
   120    86    85    2
   121   223   222    2
   122   194   193    1
   123   222   221    1
   124   200   199    2
   125   129   130    2
   126   199   198    1
   127    82    81    2
   128   192   191    2
   129   216   215    2
   130   214   215    1
   131   214   213    1
   132   215   220   am
   133    85    87   am
   134    85    84    1
   135    89    92    1
   136    89    88    1
   137   191   190    1
   138   191   197   am
   139    95    93    1
   140   150   149    2
   141    81    88   am
   142    81    80    1
   143    93    92    1
   144    93    94    1
   145   220   221    1
   146   221   224    1
   147   193   190    1
   148   190   189    1
   149   155   154    2
   150   198   197    1
   151   163   162    1
   152   163   157    1
   153    83    80    1
   154    83    84    1
   155   172   171    1
   156    80    79    1
   157   184   183    2
   158   162   161    1
   159   224   225    1
   160   171   170    1
   161   149   151   am
   162   149   148    1
   163   154   157   am
   164   154   153    1
   165   157   158    1
   166   189   183   am
   167   183   182    1
   168     4     3    2
   169   161   158    1
   170   179   178    2
   171   147   148    1
   172   147   144    1
   173     9     7   am
   174    79    73   am
   175   141   142   ar
   176   141   139   ar
   177   170   169    1
   178   176   175    2
   179   146   145    2
   180   225   227   ar
   181   225   226   ar
   182    74    73    2
   183   156   153    1
   184   153   152    1
   185   145   152   am
   186   145   144    1
   187   158   159    1
   188   169   168    1
   189     8     7    2
   190   142   140   ar
   191    73    72    1
   192   139   137   ar
   193     7     6    1
   194   227   229   ar
   195   144   143    1
   196     3     2    1
   197   182   181    1
   198   182   185    1
   199   226   228   ar
   200   178   180   am
   201   178   177    1
   202   187   185    1
   203   175   174    1
   204     2     5    1
   205     2     1    1
   206   164   159   am
   207   164   165    1
   208    77    75    1
   209     5     6    1
   210   159   160    2
   211   174   177    1
   212   174   173    1
   213   168   165    1
   214   185   186    1
   215   140   138   ar
   216   137   138   ar
   217   137   136    1
   218   229   230   ar
   219    72    75    1
   220    72    71    1
   221   228   230   ar
   222   165   166    1
   223    75    76    1
   224    76    78    1
   225   136   133    1
   226   186   188    1
   227   167   166    2
   228   133   132    1
   229   133   134    1
   230   135   134    2
