@<TRIPOS>MOLECULE
tmp/4j0lA00.pdb
 195 186 0 0 0
SMALL
GASTEIGER

@<TRIPOS>ATOM
      1  N        -35.9430   24.4660  -12.2420 N.3    22  ALA22      -0.1245
      2  CA       -34.8150   24.5230  -13.1650 C.3    22  ALA22       0.1562
      3  C        -34.1890   23.1500  -13.4260 C.2    22  ALA22       0.2260
      4  O        -33.3070   23.0270  -14.2780 O.2    22  ALA22      -0.2867
      5  CB       -33.7550   25.5040  -12.6560 C.3    22  ALA22       0.0290
      6  N        -21.8770   15.9620   -8.8920 N.3    66  HIS66      -0.1226
      7  CA       -21.2550   16.5850  -10.0640 C.3    66  HIS66       0.1752
      8  C        -21.7850   16.0210  -11.3790 C.2    66  HIS66       0.2596
      9  O        -22.0750   16.7880  -12.3080 O.2    66  HIS66      -0.2718
     10  CB       -19.7310   16.4820  -10.1190 C.3    66  HIS66       0.0759
     11  CG       -19.1990   16.8990  -11.4580 C.ar   66  HIS66       0.0818
     12  ND1      -19.1860   18.2170  -11.8610 N.ar   66  HIS66      -0.2268
     13  CD2      -18.8030   16.1740  -12.5310 C.ar   66  HIS66       0.1154
     14  CE1      -18.7370   18.2920  -13.1010 C.ar   66  HIS66       0.1986
     15  NE2      -18.5090   17.0650  -13.5360 N.ar   66  HIS66      -0.2212
     16  N        -21.8590   14.6890  -11.4770 N.am   67  GLN67      -0.1965
     17  CA       -22.3390   14.0200  -12.7010 C.3    67  GLN67       0.1733
     18  C        -23.6800   14.5670  -13.1760 C.2    67  GLN67       0.2617
     19  O        -23.9880   14.5360  -14.3680 O.2    67  GLN67      -0.2715
     20  CB       -22.4970   12.5020  -12.4930 C.3    67  GLN67       0.0408
     21  CG       -21.2130   11.7160  -12.1840 C.3    67  GLN67       0.0908
     22  CD       -20.1560   11.7950  -13.2850 C.2    67  GLN67       0.2608
     23  OE1      -19.4600   12.7990  -13.4220 O.2    67  GLN67      -0.2717
     24  NE2      -20.0200   10.7240  -14.0590 N.am   67  GLN67      -0.0878
     25  N        -24.4720   15.0560  -12.2290 N.am   68  THR68      -0.1937
     26  CA       -25.8530   15.4520  -12.4870 C.3    68  THR68       0.2028
     27  C        -26.1090   16.9200  -12.1200 C.2    68  THR68       0.2643
     28  O        -27.2580   17.3390  -11.9870 O.2    68  THR68      -0.2714
     29  CB       -26.8220   14.5590  -11.6880 C.3    68  THR68       0.1808
     30  OG1      -26.4750   14.6040  -10.2970 O.3    68  THR68      -0.2208
     31  CG2      -26.7530   13.1040  -12.1600 C.3    68  THR68       0.0379
     32  N        -25.0440   17.7020  -11.9560 N.am   69  THR69      -0.1936
     33  CA       -25.1940   19.0590  -11.4080 C.3    69  THR69       0.2028
     34  C        -25.9180   20.0430  -12.3250 C.2    69  THR69       0.2643
     35  O        -25.7880   19.9830  -13.5490 O.2    69  THR69      -0.2714
     36  CB       -23.8430   19.6730  -10.9540 C.3    69  THR69       0.1808
     37  OG1      -24.0950   20.8760  -10.2260 O.3    69  THR69      -0.2208
     38  CG2      -22.9300   19.9830  -12.1480 C.3    69  THR69       0.0379
     39  N        -26.6970   20.9280  -11.7090 N.am   70  GLY70      -0.1939
     40  CA       -27.2480   22.1050  -12.3910 C.3    70  GLY70       0.2014
     41  C        -26.6720   23.3820  -11.8000 C.2    70  GLY70       0.2639
     42  O        -27.1890   24.4830  -12.0310 O.2    70  GLY70      -0.2714
     43  N        -25.5850   23.2340  -11.0460 N.am   71  GLY71      -0.1939
     44  CA       -25.0220   24.3420  -10.2860 C.3    71  GLY71       0.2014
     45  C        -24.2750   25.3890  -11.0900 C.2    71  GLY71       0.2638
     46  O        -23.8600   25.1430  -12.2220 O.2    71  GLY71      -0.2714
     47  N        -24.1220   26.5590  -10.4770 N.am   72  ALA72      -0.1977
     48  CA       -23.2780   27.6420  -10.9640 C.3    72  ALA72       0.1597
     49  C        -22.7200   28.3360   -9.7280 C.2    72  ALA72       0.2287
     50  O        -23.3220   28.2640   -8.6520 O.2    72  ALA72      -0.2864
     51  CB       -24.0900   28.6210  -11.7990 C.3    72  ALA72       0.0319
     52  N        -22.6750   31.3190   -8.6970 N.3    74  THR74      -0.1203
     53  CA       -23.5700   32.2970   -8.0890 C.3    74  THR74       0.1994
     54  C        -25.0100   31.7920   -7.9650 C.2    74  THR74       0.2617
     55  O        -25.9360   32.5800   -7.7630 O.2    74  THR74      -0.2717
     56  CB       -23.5300   33.6530   -8.8490 C.3    74  THR74       0.1784
     57  OG1      -23.8370   33.4370  -10.2290 O.3    74  THR74      -0.2211
     58  CG2      -22.1420   34.2930   -8.7440 C.3    74  THR74       0.0376
     59  N        -25.1930   30.4740   -8.0460 N.am   75  ALA75      -0.1979
     60  CA       -26.5060   29.8610   -7.8470 C.3    75  ALA75       0.1597
     61  C        -26.9530   29.9890   -6.3920 C.2    75  ALA75       0.2287
     62  O        -26.1080   30.0850   -5.4890 O.2    75  ALA75      -0.2864
     63  CB       -26.4810   28.3940   -8.2720 C.3    75  ALA75       0.0319
     64  N        -26.5740   22.0810   -5.8190 N.3    82  TRP82      -0.1241
     65  CA       -27.3460   21.8100   -7.0350 C.3    82  TRP82       0.1605
     66  C        -27.0640   20.4540   -7.6960 C.2    82  TRP82       0.2264
     67  O        -27.2430   20.2960   -8.9060 O.2    82  TRP82      -0.2867
     68  CB       -27.1600   22.9580   -8.0310 C.3    82  TRP82       0.0550
     69  CG       -27.9330   24.1740   -7.6170 C.ar   82  TRP82       0.0003
     70  CD1      -27.5450   25.1340   -6.7250 C.ar   82  TRP82       0.0946
     71  CD2      -29.2460   24.5340   -8.0560 C.ar   82  TRP82       0.0152
     72  NE1      -28.5390   26.0810   -6.5890 N.ar   82  TRP82      -0.2442
     73  CE2      -29.5970   25.7300   -7.3880 C.ar   82  TRP82       0.0810
     74  CE3      -30.1670   23.9540   -8.9410 C.ar   82  TRP82       0.0012
     75  CZ2      -30.8290   26.3670   -7.5880 C.ar   82  TRP82       0.0191
     76  CZ3      -31.3930   24.5890   -9.1410 C.ar   82  TRP82       0.0001
     77  CH2      -31.7110   25.7830   -8.4660 C.ar   82  TRP82       0.0015
     78  N        -29.6660   17.3020  -10.3840 N.3    85  CYS85      -0.1221
     79  CA       -30.5580   18.1780  -11.1300 C.3    85  CYS85       0.1808
     80  C        -30.9830   17.4860  -12.4260 C.2    85  CYS85       0.2601
     81  O        -32.1130   17.6650  -12.8970 O.2    85  CYS85      -0.2717
     82  CB       -29.8320   19.5030  -11.4140 C.3    85  CYS85       0.0970
     83  SG       -30.8570   20.8900  -12.0260 S.3    85  CYS85      -0.0800
     84  N        -30.0800   16.6770  -12.9830 N.am   86  PHE86      -0.1976
     85  CA       -30.3350   15.9370  -14.2270 C.3    86  PHE86       0.1639
     86  C        -30.3280   14.4230  -13.9950 C.2    86  PHE86       0.2290
     87  O        -29.7820   13.9390  -12.9990 O.2    86  PHE86      -0.2864
     88  CB       -29.2700   16.2820  -15.2820 C.3    86  PHE86       0.0560
     89  CG       -29.2860   17.7180  -15.7180 C.ar   86  PHE86      -0.0200
     90  CD1      -30.1350   18.1340  -16.7420 C.ar   86  PHE86      -0.0042
     91  CD2      -28.4550   18.6570  -15.1100 C.ar   86  PHE86      -0.0042
     92  CE1      -30.1640   19.4730  -17.1470 C.ar   86  PHE86      -0.0003
     93  CE2      -28.4690   19.9970  -15.5100 C.ar   86  PHE86      -0.0003
     94  CZ       -29.3220   20.4060  -16.5300 C.ar   86  PHE86      -0.0000
     95  N        -30.2850   12.4480  -17.2830 N.3    88  GLN88      -0.1231
     96  CA       -29.8260   12.0160  -18.6050 C.3    88  GLN88       0.1698
     97  C        -28.8020   13.0000  -19.1360 C.2    88  GLN88       0.2592
     98  O        -28.9760   14.2070  -18.9950 O.2    88  GLN88      -0.2718
     99  CB       -30.9890   11.9960  -19.5940 C.3    88  GLN88       0.0381
    100  CG       -31.8660   10.7820  -19.5570 C.3    88  GLN88       0.0905
    101  CD       -33.0390   10.9510  -20.4980 C.2    88  GLN88       0.2608
    102  OE1      -34.0410   11.5500  -20.1400 O.2    88  GLN88      -0.2717
    103  NE2      -32.9040   10.4480  -21.7180 N.am   88  GLN88      -0.0878
    104  N        -27.7580   12.4750  -19.7730 N.am   89  GLU89      -0.1966
    105  CA       -26.6800   13.2900  -20.3380 C.3    89  GLU89       0.1733
    106  C        -27.2470   14.3560  -21.2790 C.2    89  GLU89       0.2616
    107  O        -28.0310   14.0350  -22.1620 O.2    89  GLU89      -0.2715
    108  CB       -25.6780   12.3870  -21.0690 C.3    89  GLU89       0.0429
    109  CG       -24.4170   13.1000  -21.5500 C.3    89  GLU89       0.1163
    110  CD       -23.3740   12.1520  -22.1320 C.2    89  GLU89       0.3649
    111  OE1      -23.4270   10.9300  -21.8700 O.co2  89  GLU89      -0.2457
    112  OE2      -22.4810   12.6420  -22.8500 O.co2  89  GLU89      -0.2457
    113  N        -26.8770   15.6200  -21.0650 N.am   90  ARG90      -0.1977
    114  CA       -27.3950   16.7250  -21.8830 C.3    90  ARG90       0.1597
    115  C        -26.7620   16.6900  -23.2590 C.2    90  ARG90       0.2287
    116  O        -25.5460   16.5540  -23.3700 O.2    90  ARG90      -0.2864
    117  CB       -27.0790   18.0850  -21.2520 C.3    90  ARG90       0.0334
    118  CG       -27.7370   18.3580  -19.9340 C.3    90  ARG90       0.0492
    119  CD       -27.7510   19.8590  -19.6870 C.3    90  ARG90       0.2205
    120  NE       -28.9090   20.4810  -20.3280 N.pl3  90  ARG90      -0.0865
    121  CZ       -29.3270   21.7240  -20.1000 C.cat  90  ARG90       0.5346
    122  NH1      -28.6760   22.5100  -19.2480 N.pl3  90  ARG90       0.1354
    123  NH2      -30.3990   22.1810  -20.7350 N.pl3  90  ARG90       0.1354
    124  N        -24.8450    8.8280  -20.8220 N.3   113  GLY113     -0.1225
    125  CA       -24.9700    8.9610  -19.3650 C.3   113  GLY113      0.1811
    126  C        -26.3940    8.9640  -18.8310 C.2   113  GLY113      0.2280
    127  O        -27.2370    9.7500  -19.2740 O.2   113  GLY113     -0.2866
    128  N        -24.1200    8.8140  -14.0370 N.3   118  GLN118     -0.1245
    129  CA       -24.1280    9.0310  -15.4830 C.3   118  GLN118      0.1566
    130  C        -23.4310    7.8520  -16.1630 C.2   118  GLN118      0.2260
    131  O        -22.4700    8.0130  -16.9340 O.2   118  GLN118     -0.2867
    132  CB       -23.5060   10.3910  -15.8440 C.3   118  GLN118      0.0367
    133  CG       -24.4170   11.5550  -15.4690 C.3   118  GLN118      0.0905
    134  CD       -25.5840   11.6920  -16.4230 C.2   118  GLN118      0.2608
    135  OE1      -25.4110   12.1390  -17.5550 O.2   118  GLN118     -0.2717
    136  NE2      -26.7820   11.2930  -15.9760 N.am  118  GLN118     -0.0878
    137  N        -22.3380    5.1480  -18.5070 N.3   120  SER120     -0.1217
    138  CA       -22.1840    5.2240  -19.9580 C.3   120  SER120      0.1889
    139  C        -21.5130    3.9800  -20.5250 C.2   120  SER120      0.2288
    140  O        -20.8200    3.2590  -19.8050 O.2   120  SER120     -0.2866
    141  CB       -21.3590    6.4550  -20.3420 C.3   120  SER120      0.2089
    142  OG       -21.9610    7.6420  -19.8670 O.3   120  SER120     -0.2183
    143  N        -14.1550    9.2980  -14.6590 N.3   199  ASN199     -0.1240
    144  CA       -14.0460   10.0110  -15.9320 C.3   199  ASN199      0.1653
    145  C        -12.6490   10.5720  -16.2180 C.2   199  ASN199      0.2266
    146  O        -12.5150   11.6360  -16.8250 O.2   199  ASN199     -0.2867
    147  CB       -15.0990   11.1300  -16.0020 C.3   199  ASN199      0.1155
    148  CG       -15.4050   11.5520  -17.4220 C.2   199  ASN199      0.2627
    149  OD1      -15.2530   10.7690  -18.3530 O.2   199  ASN199     -0.2716
    150  ND2      -15.8340   12.7970  -17.5960 N.am  199  ASN199     -0.0877
    151  N        -10.9190   14.2300  -17.8180 N.3   203  GLU203     -0.1245
    152  CA       -10.7440   15.2330  -16.7530 C.3   203  GLU203      0.1567
    153  C         -9.3790   15.2970  -16.0620 C.2   203  GLU203      0.2260
    154  O         -9.0240   16.3340  -15.4890 O.2   203  GLU203     -0.2867
    155  CB       -11.8320   15.0620  -15.6860 C.3   203  GLU203      0.0388
    156  CG       -13.2370   15.2470  -16.2220 C.3   203  GLU203      0.1160
    157  CD       -14.2950   15.1630  -15.1480 C.2   203  GLU203      0.3649
    158  OE1      -13.9750   15.4060  -13.9620 O.co2 203  GLU203     -0.2457
    159  OE2      -15.4530   14.8630  -15.5060 O.co2 203  GLU203     -0.2457
    160  N        -12.3220   22.4720  -14.1980 N.3   210  SER210     -0.1202
    161  CA       -13.4770   22.9340  -13.4200 C.3   210  SER210      0.2020
    162  C        -14.4310   21.8070  -13.0230 C.2   210  SER210      0.2618
    163  O        -15.1350   21.9240  -12.0210 O.2   210  SER210     -0.2717
    164  CB       -14.2450   24.0310  -14.1670 C.3   210  SER210      0.2103
    165  OG       -14.8010   23.5170  -15.3600 O.3   210  SER210     -0.2182
    166  N        -14.4610   20.7320  -13.8110 N.am  211  ARG211     -0.1979
    167  CA       -15.2630   19.5480  -13.4680 C.3   211  ARG211      0.1597
    168  C        -14.6810   18.8300  -12.2500 C.2   211  ARG211      0.2287
    169  O        -15.4060   18.4740  -11.3260 O.2   211  ARG211     -0.2864
    170  CB       -15.3790   18.6060  -14.6710 C.3   211  ARG211      0.0334
    171  CG       -16.1690   19.2240  -15.8330 C.3   211  ARG211      0.0492
    172  CD       -15.8340   18.5960  -17.1770 C.3   211  ARG211      0.2205
    173  NE       -14.4380   18.8100  -17.5740 N.pl3 211  ARG211     -0.0865
    174  CZ       -13.9420   18.4760  -18.7630 C.cat 211  ARG211      0.5346
    175  NH1      -12.6640   18.6950  -19.0370 N.pl3 211  ARG211      0.1354
    176  NH2      -14.7250   17.9250  -19.6860 N.pl3 211  ARG211      0.1354
    177  N        -15.3670   21.0280   -9.2790 N.3   214  ASP214     -0.1225
    178  CA       -16.7810   20.9180   -8.8920 C.3   214  ASP214      0.1805
    179  C        -17.0140   19.6950   -8.0010 C.2   214  ASP214      0.2597
    180  O        -17.7030   19.7820   -6.9740 O.2   214  ASP214     -0.2718
    181  CB       -17.6690   20.8390  -10.1430 C.3   214  ASP214      0.1424
    182  CG       -19.1560   21.0110   -9.8310 C.2   214  ASP214      0.3668
    183  OD1      -19.5420   22.0410   -9.2290 O.co2 214  ASP214     -0.2456
    184  OD2      -19.9460   20.1170  -10.2120 O.co2 214  ASP214     -0.2456
    185  N        -16.4400   18.5600   -8.3930 N.am  215  ARG215     -0.1979
    186  CA       -16.5550   17.3290   -7.6080 C.3   215  ARG215      0.1597
    187  C        -16.0220   17.5480   -6.1920 C.2   215  ARG215      0.2287
    188  O        -16.6350   17.1070   -5.2270 O.2   215  ARG215     -0.2864
    189  CB       -15.7880   16.1750   -8.2670 C.3   215  ARG215      0.0334
    190  CG       -16.2230   15.8520   -9.6980 C.3   215  ARG215      0.0492
    191  CD       -15.2410   14.9010  -10.3690 C.3   215  ARG215      0.2205
    192  NE       -15.5570   14.6360  -11.7790 N.pl3 215  ARG215     -0.0865
    193  CZ       -16.5280   13.8250  -12.1980 C.cat 215  ARG215      0.5346
    194  NH1      -17.3140   13.2020  -11.3230 N.pl3 215  ARG215      0.1354
    195  NH2      -16.7270   13.6520  -13.4990 N.pl3 215  ARG215      0.1354
@<TRIPOS>BOND
     1   116   115    2
     2   115   114    1
     3   112   110   ar
     4   107   106    2
     5   110   111   ar
     6   110   109    1
     7   114   117    1
     8   114   113    1
     9   103   101   am
    10   109   108    1
    11   106   113   am
    12   106   105    1
    13   117   118    1
    14   108   105    1
    15   124   125    1
    16   123   121    1
    17   139   138    1
    18   139   140    2
    19   101   102    2
    20   101   100    1
    21   141   138    1
    22   141   142    1
    23   105   104    1
    24   120   121    2
    25   120   119    1
    26   121   122    1
    27   138   137    1
    28   118   119    1
    29   104    97   am
    30   176   174    1
    31    99   100    1
    32    99    96    1
    33   125   126    1
    34   127   126    2
    35    97    98    2
    36    97    96    1
    37   175   174    1
    38   174   173    2
    39    96    95    1
    40   149   148    2
    41   151   152    1
    42   150   148   am
    43   173   172    1
    44   135   134    2
    45   148   147    1
    46   172   171    1
    47    92    90   ar
    48    92    94   ar
    49   131   130    2
    50   146   145    2
    51   152   153    1
    52   152   155    1
    53    90    89   ar
    54    94    93   ar
    55   134   136   am
    56   134   133    1
    57   156   155    1
    58   156   157    1
    59   145   144    1
    60   130   129    1
    61   153   154    2
    62   147   144    1
    63   144   143    1
    64   132   129    1
    65   132   133    1
    66   171   170    1
    67    89    88    1
    68    89    91   ar
    69    93    91   ar
    70   159   157   ar
    71   129   128    1
    72   165   164    1
    73    88    85    1
    74   157   158   ar
    75   170   167    1
    76    19    18    2
    77     4     3    2
    78    85    86    1
    79    85    84    1
    80   160   161    1
    81   164   161    1
    82    24    22   am
    83    86    87    2
    84   166   167    1
    85   166   162   am
    86    35    34    2
    87    15    14   ar
    88    15    13   ar
    89   195   193    1
    90   167   168    1
    91     3     2    1
    92    23    22    2
    93   161   162    1
    94    22    21    1
    95    18    17    1
    96    18    25   am
    97     2     5    1
    98     2     1    1
    99    14    12   ar
   100   162   163    2
   101    84    80   am
   102    81    80    2
   103    17    20    1
   104    17    16    1
   105    13    11   ar
   106    20    21    1
   107    26    25    1
   108    26    27    1
   109    26    29    1
   110    80    79    1
   111    40    41    1
   112    40    39    1
   113    34    39   am
   114    34    33    1
   115     9     8    2
   116   168   169    2
   117    46    45    2
   118   193   192    2
   119   193   194    1
   120    31    29    1
   121    38    36    1
   122    27    28    2
   123    27    32   am
   124    42    41    2
   125    83    82    1
   126    32    33    1
   127    12    11   ar
   128    41    43   am
   129    51    48    1
   130   192   191    1
   131    29    30    1
   132    16     8   am
   133    11    10    1
   134    82    79    1
   135    33    36    1
   136     8     7    1
   137    79    78    1
   138    45    47   am
   139    45    44    1
   140    43    44    1
   141    48    47    1
   142    48    49    1
   143    36    37    1
   144   191   190    1
   145    57    56    1
   146   184   182   ar
   147   181   182    1
   148   181   178    1
   149    10     7    1
   150     7     6    1
   151   182   183   ar
   152    49    50    2
   153   190   189    1
   154   177   178    1
   155    76    74   ar
   156    76    77   ar
   157    74    71   ar
   158    67    66    2
   159   178   179    1
   160    56    58    1
   161    56    53    1
   162    52    53    1
   163    77    75   ar
   164   185   179   am
   165   185   186    1
   166    63    60    1
   167   189   186    1
   168    53    54    1
   169    71    69   ar
   170    71    73   ar
   171    59    54   am
   172    59    60    1
   173    68    69    1
   174    68    65    1
   175   179   180    2
   176    54    55    2
   177    60    61    1
   178    66    65    1
   179    69    70   ar
   180   186   187    1
   181    75    73   ar
   182    73    72   ar
   183    65    64    1
   184    70    72   ar
   185    61    62    2
   186   187   188    2
