@<TRIPOS>MOLECULE
tmp/4j0mA01.pdb
 92 88 0 0 0
SMALL
GASTEIGER

@<TRIPOS>ATOM
      1  N          7.7280   10.1470  -88.3010 N.3   451  ASN451     -0.1225
      2  CA         8.8860    9.9740  -87.4260 C.3   451  ASN451      0.1785
      3  C          8.4890    9.8030  -85.9690 C.2   451  ASN451      0.2597
      4  O          9.0340   10.4600  -85.0940 O.2   451  ASN451     -0.2718
      5  CB         9.8840   11.1350  -87.5540 C.3   451  ASN451      0.1169
      6  CG        10.4910   11.2460  -88.9420 C.2   451  ASN451      0.2627
      7  OD1        9.9290   11.8930  -89.8220 O.2   451  ASN451     -0.2716
      8  ND2       11.6560   10.6380  -89.1340 N.am  451  ASN451     -0.0877
      9  N          7.5260    8.9220  -85.7320 N.am  452  ASN452     -0.1960
     10  CA         7.1940    8.4330  -84.4080 C.3   452  ASN452      0.1819
     11  C          7.2480    6.8930  -84.4260 C.2   452  ASN452      0.2621
     12  O          7.7720    6.2870  -85.3540 O.2   452  ASN452     -0.2715
     13  CB         5.7980    8.8860  -83.9760 C.3   452  ASN452      0.1195
     14  CG         5.7510   10.3500  -83.5190 C.2   452  ASN452      0.2630
     15  OD1        6.2710   10.7070  -82.4540 O.2   452  ASN452     -0.2716
     16  ND2        5.0940   11.1920  -84.3080 N.am  452  ASN452     -0.0877
     17  N          6.7840    6.2890  -83.3410 N.am  453  LEU453     -0.1977
     18  CA         6.6680    4.8450  -83.1660 C.3   453  LEU453      0.1596
     19  C          5.2640    4.2500  -83.3200 C.2   453  LEU453      0.2287
     20  O          4.9790    3.2090  -82.7500 O.2   453  LEU453     -0.2864
     21  CB         7.3680    4.3780  -81.8860 C.3   453  LEU453      0.0297
     22  CG         8.8470    4.8010  -81.8310 C.3   453  LEU453      0.0022
     23  CD1        9.5260    4.3450  -80.5350 C.3   453  LEU453      0.0001
     24  CD2        9.6340    4.3200  -83.0520 C.3   453  LEU453      0.0001
     25  N          7.7340    6.9950  -91.6270 N.3   475  SER475     -0.1202
     26  CA         8.6940    6.6170  -90.6060 C.3   475  SER475      0.2020
     27  C          8.0430    6.3340  -89.2580 C.2   475  SER475      0.2619
     28  O          8.4150    6.8930  -88.2370 O.2   475  SER475     -0.2717
     29  CB         9.7930    7.6670  -90.4890 C.3   475  SER475      0.2103
     30  OG        10.7730    7.4400  -91.4790 O.3   475  SER475     -0.2182
     31  N          7.0620    5.4480  -89.2820 N.am  476  ASN476     -0.1960
     32  CA         6.4640    4.9000  -88.0780 C.3   476  ASN476      0.1819
     33  C          6.5950    3.4060  -88.2120 C.2   476  ASN476      0.2621
     34  O          7.4350    2.9240  -88.9690 O.2   476  ASN476     -0.2715
     35  CB         5.0000    5.3100  -87.9020 C.3   476  ASN476      0.1195
     36  CG         4.8510    6.6790  -87.2500 C.2   476  ASN476      0.2630
     37  OD1        4.8660    6.7890  -86.0350 O.2   476  ASN476     -0.2716
     38  ND2        4.7000    7.7160  -88.0540 N.am  476  ASN476     -0.0877
     39  N          5.8800    2.6960  -87.3560 N.am  477  ARG477     -0.1977
     40  CA         5.7140    1.2490  -87.4250 C.3   477  ARG477      0.1597
     41  C          4.3970    0.7070  -88.0450 C.2   477  ARG477      0.2287
     42  O          3.9960   -0.4200  -87.7520 O.2   477  ARG477     -0.2864
     43  CB         6.0580    0.6010  -86.0860 C.3   477  ARG477      0.0334
     44  CG         7.5650    0.4060  -85.8880 C.3   477  ARG477      0.0492
     45  CD         8.3570    1.6870  -86.1420 C.3   477  ARG477      0.2205
     46  NE         9.7090    1.6700  -85.5660 N.pl3 477  ARG477     -0.0865
     47  CZ        10.0870    0.9410  -84.5120 C.cat 477  ARG477      0.5346
     48  NH1        9.2180    0.1490  -83.8840 N.pl3 477  ARG477      0.1354
     49  NH2       11.3430    1.0060  -84.0780 N.pl3 477  ARG477      0.1354
     50  N          8.4190    4.6340  -95.4340 N.3   499  ASN499     -0.1240
     51  CA         9.1900    4.0120  -94.3730 C.3   499  ASN499      0.1653
     52  C          8.3200    3.4630  -93.2560 C.2   499  ASN499      0.2266
     53  O          8.4910    3.7980  -92.0940 O.2   499  ASN499     -0.2867
     54  CB        10.2360    4.9610  -93.7950 C.3   499  ASN499      0.1155
     55  CG        11.2120    4.2510  -92.8580 C.2   499  ASN499      0.2627
     56  OD1       11.3940    3.0290  -92.9480 O.2   499  ASN499     -0.2716
     57  ND2       11.8470    5.0180  -91.9570 N.am  499  ASN499     -0.0877
     58  N         17.5210    7.5860  -99.2300 N.3   563  ARG563     -0.1231
     59  CA        16.0720    7.5330  -99.3870 C.3   563  ARG563      0.1694
     60  C         15.4640    7.5380  -97.9820 C.2   563  ARG563      0.2593
     61  O         16.0580    7.0130  -97.0230 O.2   563  ARG563     -0.2718
     62  CB        15.6230    6.3020 -100.1870 C.3   563  ARG563      0.0321
     63  CG        15.6580    5.0020  -99.3980 C.3   563  ARG563      0.0489
     64  CD        15.0880    3.8280 -100.1800 C.3   563  ARG563      0.2205
     65  NE        15.0420    2.6280  -99.3560 N.pl3 563  ARG563     -0.0865
     66  CZ        16.1260    1.9680  -98.9490 C.cat 563  ARG563      0.5346
     67  NH1       17.3340    2.4040  -99.2840 N.pl3 563  ARG563      0.1354
     68  NH2       16.0080    0.8790  -98.2050 N.pl3 563  ARG563      0.1354
     69  N         14.3080    8.1740  -97.8410 N.am  564  GLY564     -0.1942
     70  CA        13.6740    8.2640  -96.5400 C.3   564  GLY564      0.2014
     71  C         14.2780    9.3500  -95.6630 C.2   564  GLY564      0.2638
     72  O         13.6360    9.7970  -94.7100 O.2   564  GLY564     -0.2714
     73  N         15.4980    9.7860  -95.9870 N.am  565  ALA565     -0.1977
     74  CA        16.1560   10.8700  -95.2540 C.3   565  ALA565      0.1597
     75  C         15.8140   12.2240  -95.8790 C.2   565  ALA565      0.2287
     76  O         15.7570   12.3620  -97.1040 O.2   565  ALA565     -0.2864
     77  CB        17.6580   10.6670  -95.2140 C.3   565  ALA565      0.0319
     78  N         16.8400   11.5490  -88.6200 N.3   583  PRO583     -0.2102
     79  CA        17.5140   10.2670  -88.8650 C.3   583  PRO583      0.1504
     80  C         18.3540   10.2780  -90.1490 C.2   583  PRO583      0.2575
     81  O         17.9650   10.9090  -91.1370 O.2   583  PRO583     -0.2718
     82  CB        16.3460    9.2820  -89.0320 C.3   583  PRO583      0.0282
     83  CG        15.1570    9.9570  -88.4210 C.3   583  PRO583      0.0208
     84  CD        15.3720   11.4230  -88.6550 C.3   583  PRO583      0.0893
     85  N         19.4720    9.5560  -90.1290 N.am  584  MET584     -0.1980
     86  CA        20.3570    9.3810  -91.2880 C.3   584  MET584      0.1605
     87  C         21.0970   10.6280  -91.7380 C.2   584  MET584      0.2287
     88  O         21.5350   10.7040  -92.8830 O.2   584  MET584     -0.2864
     89  CB        19.5630    8.8420  -92.4820 C.3   584  MET584      0.0413
     90  CG        19.0000    7.4450  -92.2840 C.3   584  MET584      0.0598
     91  SD        20.2890    6.1890  -92.1540 S.3   584  MET584     -0.1393
     92  CE        21.1170    6.3810  -93.7390 C.3   584  MET584      0.0692
@<TRIPOS>BOND
     1    62    63    1
     2    62    59    1
     3    64    63    1
     4    64    65    1
     5    59    58    1
     6    59    60    1
     7    65    66    2
     8    67    66    1
     9    66    68    1
    10    60    69   am
    11    60    61    2
    12    69    70    1
    13    76    75    2
    14    70    71    1
    15    73    71   am
    16    73    74    1
    17    75    74    1
    18    71    72    2
    19    50    51    1
    20    74    77    1
    21    51    54    1
    22    51    52    1
    23    54    55    1
    24    92    91    1
    25    52    53    2
    26    56    55    2
    27    88    87    2
    28    55    57   am
    29    89    90    1
    30    89    86    1
    31    90    91    1
    32    87    86    1
    33    25    26    1
    34    30    29    1
    35    86    85    1
    36    81    80    2
    37    26    29    1
    38    26    27    1
    39    80    85   am
    40    80    79    1
    41     7     6    2
    42    31    27   am
    43    31    32    1
    44    27    28    2
    45     8     6   am
    46    82    79    1
    47    82    83    1
    48    34    33    2
    49     6     5    1
    50    79    78    1
    51    84    78    1
    52    84    83    1
    53     1     2    1
    54    33    32    1
    55    33    39   am
    56    32    35    1
    57    38    36   am
    58    41    42    2
    59    41    40    1
    60    35    36    1
    61     5     2    1
    62     2     3    1
    63    40    39    1
    64    40    43    1
    65    36    37    2
    66    45    44    1
    67    45    46    1
    68    43    44    1
    69     3     9   am
    70     3     4    2
    71     9    10    1
    72    46    47    2
    73    12    11    2
    74    47    49    1
    75    47    48    1
    76    11    10    1
    77    11    17   am
    78    10    13    1
    79    16    14   am
    80    13    14    1
    81    14    15    2
    82    17    18    1
    83    19    18    1
    84    19    20    2
    85    18    21    1
    86    24    22    1
    87    21    22    1
    88    22    23    1
