@<TRIPOS>MOLECULE
tmp/4j0mA04.pdb
 90 83 0 0 0
SMALL
GASTEIGER

@<TRIPOS>ATOM
      1  N        -12.6400   56.1870 -106.1800 N.3    77  GLN77      -0.1245
      2  CA       -11.8390   55.0390 -105.7550 C.3    77  GLN77       0.1566
      3  C        -12.3150   53.7330 -106.3570 C.2    77  GLN77       0.2260
      4  O        -13.4940   53.5670 -106.6550 O.2    77  GLN77      -0.2867
      5  CB       -11.8010   54.8970 -104.2280 C.3    77  GLN77       0.0367
      6  CG       -13.0930   54.4050 -103.6020 C.3    77  GLN77       0.0905
      7  CD       -14.0100   55.5520 -103.2290 C.2    77  GLN77       0.2608
      8  OE1      -13.9190   56.6410 -103.8070 O.2    77  GLN77      -0.2717
      9  NE2      -14.8920   55.3280 -102.2540 N.am   77  GLN77      -0.0878
     10  N        -11.4830   60.9670 -102.2470 N.3    98  ASP98      -0.1239
     11  CA       -11.0220   59.5690 -102.2470 C.3    98  ASP98       0.1674
     12  C        -10.6380   59.1070 -103.6480 C.2    98  ASP98       0.2266
     13  O        -11.4990   58.9330 -104.5210 O.2    98  ASP98      -0.2867
     14  CB       -12.1090   58.6410 -101.6910 C.3    98  ASP98       0.1410
     15  CG       -11.5710   57.2520 -101.3210 C.2    98  ASP98       0.3668
     16  OD1      -10.4700   56.8760 -101.8000 O.co2  98  ASP98      -0.2456
     17  OD2      -12.2570   56.5310 -100.5600 O.co2  98  ASP98      -0.2456
     18  N         -8.3110   56.4490 -103.8890 N.3   100  SER100     -0.1202
     19  CA        -7.6010   55.1930 -103.6350 C.3   100  SER100      0.2020
     20  C         -7.9480   54.0850 -104.6110 C.2   100  SER100      0.2619
     21  O         -8.9680   54.1300 -105.2920 O.2   100  SER100     -0.2717
     22  CB        -7.8030   54.6970 -102.1890 C.3   100  SER100      0.2103
     23  OG        -9.1730   54.5150 -101.8830 O.3   100  SER100     -0.2182
     24  N         -7.0690   53.0960 -104.6830 N.am  101  SER101     -0.1951
     25  CA        -7.3370   51.9230 -105.4850 C.3   101  SER101      0.1924
     26  C         -7.5560   52.3110 -106.9370 C.2   101  SER101      0.2314
     27  O         -8.5840   52.0060 -107.5430 O.2   101  SER101     -0.2863
     28  CB        -8.5300   51.1480 -104.9280 C.3   101  SER101      0.2116
     29  OG        -8.1700   50.4890 -103.7250 O.3   101  SER101     -0.2180
     30  N         -7.7000   60.3940  -99.2500 N.3   124  ASN124     -0.1240
     31  CA        -7.2090   59.0530  -99.4100 C.3   124  ASN124      0.1653
     32  C         -6.6880   58.8440 -100.8390 C.2   124  ASN124      0.2266
     33  O         -7.4780   58.8030 -101.7790 O.2   124  ASN124     -0.2867
     34  CB        -8.3490   58.1000  -99.1110 C.3   124  ASN124      0.1155
     35  CG        -7.8780   56.7170  -98.8300 C.2   124  ASN124      0.2627
     36  OD1       -6.7590   56.3380  -99.1740 O.2   124  ASN124     -0.2716
     37  ND2       -8.7380   55.9360  -98.1990 N.am  124  ASN124     -0.0877
     38  N         -4.3440   56.2540 -101.2410 N.3   126  SER126     -0.1202
     39  CA        -3.6910   54.9640 -101.0330 C.3   126  SER126      0.2020
     40  C         -3.9250   53.9420 -102.1510 C.2   126  SER126      0.2618
     41  O         -4.8620   54.0570 -102.9320 O.2   126  SER126     -0.2717
     42  CB        -4.1780   54.3460  -99.7310 C.3   126  SER126      0.2103
     43  OG        -5.4450   53.7470  -99.9110 O.3   126  SER126     -0.2182
     44  N         -3.0580   52.9400 -102.2090 N.am  127  ASN127     -0.1974
     45  CA        -3.1920   51.8660 -103.1810 C.3   127  ASN127      0.1688
     46  C         -3.1930   52.3810 -104.6030 C.2   127  ASN127      0.2292
     47  O         -4.1030   52.0990 -105.3810 O.2   127  ASN127     -0.2864
     48  CB        -4.4400   51.0500 -102.9020 C.3   127  ASN127      0.1181
     49  CG        -4.3330   50.2840 -101.6180 C.2   127  ASN127      0.2629
     50  OD1       -4.8430   50.7010 -100.5780 O.2   127  ASN127     -0.2716
     51  ND2       -3.6340   49.1710 -101.6700 N.am  127  ASN127     -0.0877
     52  N         -7.0960   63.8690  -91.9640 N.3   146  THR146     -0.1218
     53  CA        -6.7950   62.5200  -92.4290 C.3   146  THR146      0.1862
     54  C         -6.0890   62.4760  -93.7880 C.2   146  THR146      0.2287
     55  O         -6.5950   63.0190  -94.7800 O.2   146  THR146     -0.2866
     56  CB        -8.1050   61.7360  -92.5520 C.3   146  THR146      0.1770
     57  OG1       -8.8770   61.9580  -91.3730 O.3   146  THR146     -0.2211
     58  CG2       -7.8590   60.2570  -92.6990 C.3   146  THR146      0.0375
     59  N         -4.0720   59.5330  -96.1740 N.3   148  ASP148     -0.1239
     60  CA        -3.6350   58.1570  -96.3910 C.3   148  ASP148      0.1674
     61  C         -2.9160   58.0900  -97.7470 C.2   148  ASP148      0.2266
     62  O         -3.5270   58.1970  -98.8090 O.2   148  ASP148     -0.2867
     63  CB        -4.8510   57.2220  -96.3400 C.3   148  ASP148      0.1410
     64  CG        -4.4660   55.7470  -96.2500 C.2   148  ASP148      0.3668
     65  OD1       -3.2770   55.4180  -96.4500 O.co2 148  ASP148     -0.2456
     66  OD2       -5.3640   54.9140  -95.9880 O.co2 148  ASP148     -0.2456
     67  N          0.5880   52.3170  -99.4690 N.3   151  TYR151     -0.1241
     68  CA         0.5630   51.4240 -100.6260 C.3   151  TYR151      0.1605
     69  C          0.7650   52.1950 -101.9160 C.2   151  TYR151      0.2264
     70  O         -0.0620   52.1690 -102.8320 O.2   151  TYR151     -0.2867
     71  CB        -0.6820   50.5190 -100.6390 C.3   151  TYR151      0.0534
     72  CG        -0.6110   49.5090  -99.5220 C.ar  151  TYR151     -0.0201
     73  CD1       -0.0820   48.2360  -99.7310 C.ar  151  TYR151     -0.0009
     74  CD2       -1.0330   49.8390  -98.2350 C.ar  151  TYR151     -0.0009
     75  CE1        0.0110   47.3120  -98.6800 C.ar  151  TYR151      0.0417
     76  CE2       -0.9490   48.9320  -97.1920 C.ar  151  TYR151      0.0417
     77  CZ        -0.4250   47.6740  -97.4160 C.ar  151  TYR151      0.1957
     78  OH        -0.3460   46.7820  -96.3670 O.3   151  TYR151     -0.2866
     79  N         -4.6390   61.6970  -88.3800 N.3   172  TYR172     -0.1241
     80  CA        -4.3140   60.4110  -88.9740 C.3   172  TYR172      0.1605
     81  C         -3.3560   60.5630  -90.1570 C.2   172  TYR172      0.2264
     82  O         -3.7010   61.1720  -91.1710 O.2   172  TYR172     -0.2867
     83  CB        -5.6330   59.7860  -89.4540 C.3   172  TYR172      0.0534
     84  CG        -5.5540   58.3780  -89.9750 C.ar  172  TYR172     -0.0201
     85  CD1       -6.0480   57.3120  -89.2250 C.ar  172  TYR172     -0.0009
     86  CD2       -5.0140   58.1050  -91.2320 C.ar  172  TYR172     -0.0009
     87  CE1       -5.9960   56.0020  -89.7080 C.ar  172  TYR172      0.0417
     88  CE2       -4.9560   56.7980  -91.7210 C.ar  172  TYR172      0.0417
     89  CZ        -5.4560   55.7580  -90.9570 C.ar  172  TYR172      0.1957
     90  OH        -5.3930   54.4680  -91.4310 O.3   172  TYR172     -0.2866
@<TRIPOS>BOND
     1    27    26    2
     2    26    25    1
     3     4     3    2
     4     3     2    1
     5     1     2    1
     6     2     5    1
     7    25    28    1
     8    25    24    1
     9    47    46    2
    10    21    20    2
    11    28    29    1
    12    24    20   am
    13    20    19    1
    14    46    45    1
    15    13    12    2
    16     5     6    1
    17    18    19    1
    18     8     7    2
    19    12    11    1
    20    19    22    1
    21     6     7    1
    22     7     9   am
    23    45    48    1
    24    45    44    1
    25    41    40    2
    26    48    49    1
    27    70    69    2
    28    10    11    1
    29    11    14    1
    30    44    40   am
    31    22    23    1
    32    40    39    1
    33    69    68    1
    34    16    15   ar
    35    33    32    2
    36    14    15    1
    37    51    49   am
    38    49    50    2
    39    15    17   ar
    40    38    39    1
    41    39    42    1
    42    32    31    1
    43    71    68    1
    44    71    72    1
    45    68    67    1
    46    43    42    1
    47    73    72   ar
    48    73    75   ar
    49    72    74   ar
    50    31    30    1
    51    31    34    1
    52    36    35    2
    53    34    35    1
    54    35    37   am
    55    62    61    2
    56    75    77   ar
    57    74    76   ar
    58    61    60    1
    59    77    76   ar
    60    77    78    1
    61    65    64   ar
    62    60    63    1
    63    60    59    1
    64    63    64    1
    65    64    66   ar
    66    55    54    2
    67    54    53    1
    68    58    56    1
    69    56    53    1
    70    56    57    1
    71    53    52    1
    72    88    86   ar
    73    88    89   ar
    74    90    89    1
    75    86    84   ar
    76    82    81    2
    77    89    87   ar
    78    81    80    1
    79    84    83    1
    80    84    85   ar
    81    87    85   ar
    82    83    80    1
    83    80    79    1
