@<TRIPOS>MOLECULE
tmp/4j0mA02.pdb
 196 190 0 0 0
SMALL
GASTEIGER

@<TRIPOS>ATOM
      1  N         -1.5060   16.0930 -100.0740 N.3   494  ILE494     -0.1245
      2  CA        -0.2600   15.4000  -99.8020 C.3   494  ILE494      0.1561
      3  C         -0.4990   14.1660  -98.9430 C.2   494  ILE494      0.2260
      4  O         -1.0950   14.2630  -97.8750 O.2   494  ILE494     -0.2867
      5  CB         0.6970   16.3340  -99.0560 C.3   494  ILE494      0.0252
      6  CG1        0.9620   17.5900  -99.9030 C.3   494  ILE494      0.0019
      7  CG2        1.9790   15.6120  -98.6790 C.3   494  ILE494      0.0019
      8  CD1        1.6720   18.6770  -99.1580 C.3   494  ILE494      0.0001
      9  N         -1.6390   15.8350 -105.1630 N.3   517  ILE517     -0.1231
     10  CA        -0.4520   16.1730 -105.9450 C.3   517  ILE517      0.1692
     11  C          0.8500   15.4930 -105.4960 C.2   517  ILE517      0.2592
     12  O          1.8630   15.5300 -106.2010 O.2   517  ILE517     -0.2718
     13  CB        -0.2700   17.7050 -105.9730 C.3   517  ILE517      0.0266
     14  CG1        0.0520   18.2340 -104.5710 C.3   517  ILE517      0.0019
     15  CG2       -1.5510   18.3600 -106.4780 C.3   517  ILE517      0.0020
     16  CD1        0.3260   19.7190 -104.5280 C.3   517  ILE517      0.0001
     17  N          0.8230   14.8850 -104.3160 N.am  518  TRP518     -0.1976
     18  CA         2.0450   14.3510 -103.7180 C.3   518  TRP518      0.1640
     19  C          1.7670   13.0130 -103.0410 C.2   518  TRP518      0.2290
     20  O          1.0440   12.9650 -102.0400 O.2   518  TRP518     -0.2864
     21  CB         2.5880   15.3410 -102.6880 C.3   518  TRP518      0.0576
     22  CG         3.9440   15.0320 -102.1480 C.ar  518  TRP518      0.0006
     23  CD1        4.2910   13.9850 -101.3200 C.ar  518  TRP518      0.0946
     24  CD2        5.1480   15.7840 -102.3660 C.ar  518  TRP518      0.0152
     25  NE1        5.6360   14.0480 -101.0200 N.ar  518  TRP518     -0.2442
     26  CE2        6.1850   15.1330 -101.6550 C.ar  518  TRP518      0.0810
     27  CE3        5.4520   16.9460 -103.0920 C.ar  518  TRP518      0.0012
     28  CZ2        7.4960   15.6050 -101.6540 C.ar  518  TRP518      0.0191
     29  CZ3        6.7530   17.4100 -103.0900 C.ar  518  TRP518      0.0001
     30  CH2        7.7580   16.7420 -102.3770 C.ar  518  TRP518      0.0015
     31  N         -3.8510   23.2620  -99.5250 N.3   546  VAL546     -0.1245
     32  CA        -2.5370   22.9960  -98.9310 C.3   546  VAL546      0.1561
     33  C         -1.5220   24.1350  -99.1390 C.2   546  VAL546      0.2260
     34  O         -0.4710   24.1600  -98.4890 O.2   546  VAL546     -0.2867
     35  CB        -1.9260   21.6520  -99.3900 C.3   546  VAL546      0.0252
     36  CG1       -1.0620   21.8270 -100.6430 C.3   546  VAL546      0.0019
     37  CG2       -1.1080   21.0650  -98.2630 C.3   546  VAL546      0.0019
     38  N          6.6980   24.7750  -95.0580 N.3   551  PHE551     -0.1241
     39  CA         7.3150   23.4680  -95.2880 C.3   551  PHE551      0.1605
     40  C          8.8250   23.6250  -95.3530 C.2   551  PHE551      0.2264
     41  O          9.3450   24.7420  -95.4520 O.2   551  PHE551     -0.2867
     42  CB         6.8750   22.8820  -96.6200 C.3   551  PHE551      0.0534
     43  CG         7.6110   23.4720  -97.7890 C.ar  551  PHE551     -0.0203
     44  CD1        8.6610   22.7930  -98.3750 C.ar  551  PHE551     -0.0042
     45  CD2        7.2820   24.7470  -98.2630 C.ar  551  PHE551     -0.0042
     46  CE1        9.3610   23.3460  -99.4470 C.ar  551  PHE551     -0.0003
     47  CE2        7.9790   25.3230  -99.3320 C.ar  551  PHE551     -0.0003
     48  CZ         9.0170   24.6190  -99.9300 C.ar  551  PHE551     -0.0000
     49  N         12.0650   21.2620  -97.4030 N.3   553  PHE553     -0.1241
     50  CA        12.4420   20.0690  -98.1510 C.3   553  PHE553      0.1605
     51  C         13.9490   19.8740  -98.0540 C.2   553  PHE553      0.2264
     52  O         14.7140   20.7160  -98.5100 O.2   553  PHE553     -0.2867
     53  CB        12.0180   20.1820  -99.6130 C.3   553  PHE553      0.0534
     54  CG        12.2210   18.9140 -100.4050 C.ar  553  PHE553     -0.0203
     55  CD1       13.3660   18.7280 -101.1670 C.ar  553  PHE553     -0.0042
     56  CD2       11.2630   17.9090 -100.3940 C.ar  553  PHE553     -0.0042
     57  CE1       13.5490   17.5480 -101.9080 C.ar  553  PHE553     -0.0003
     58  CE2       11.4420   16.7370 -101.1220 C.ar  553  PHE553     -0.0003
     59  CZ        12.5830   16.5600 -101.8850 C.ar  553  PHE553     -0.0000
     60  N         17.2690   18.2580  -99.1680 N.3   555  ARG555     -0.1245
     61  CA        17.8900   17.6160 -100.3070 C.3   555  ARG555      0.1563
     62  C         19.2580   17.0630  -99.9210 C.2   555  ARG555      0.2260
     63  O         20.0520   17.7370  -99.2630 O.2   555  ARG555     -0.2867
     64  CB        18.0460   18.6280 -101.4370 C.3   555  ARG555      0.0307
     65  CG        18.5080   18.0360 -102.7600 C.3   555  ARG555      0.0489
     66  CD        18.6200   19.1480 -103.7850 C.3   555  ARG555      0.2205
     67  NE        19.0340   18.6860 -105.1040 N.pl3 555  ARG555     -0.0865
     68  CZ        18.7140   19.3100 -106.2320 C.cat 555  ARG555      0.5346
     69  NH1       17.9640   20.4030 -106.1880 N.pl3 555  ARG555      0.1354
     70  NH2       19.1280   18.8370 -107.4010 N.pl3 555  ARG555      0.1354
     71  N         10.3440   16.0840  -97.6290 N.3   568  LEU568     -0.1245
     72  CA         9.3890   17.1300  -97.3170 C.3   568  LEU568      0.1561
     73  C          8.7790   17.0190  -95.9140 C.2   568  LEU568      0.2260
     74  O          8.2170   15.9850  -95.5350 O.2   568  LEU568     -0.2867
     75  CB         8.2940   17.1500  -98.3960 C.3   568  LEU568      0.0270
     76  CG         7.0750   18.0280  -98.1560 C.3   568  LEU568      0.0019
     77  CD1        7.4440   19.4600  -98.4110 C.3   568  LEU568      0.0001
     78  CD2        5.9430   17.5890  -99.0620 C.3   568  LEU568      0.0001
     79  N         15.4560   23.6620  -98.8680 N.3   594  TYR594     -0.1241
     80  CA        14.4740   24.6480  -99.3050 C.3   594  TYR594      0.1605
     81  C         13.4440   24.8830  -98.2020 C.2   594  TYR594      0.2264
     82  O         13.1340   23.9760  -97.4340 O.2   594  TYR594     -0.2867
     83  CB        13.7610   24.1820 -100.5650 C.3   594  TYR594      0.0534
     84  CG        14.6640   23.7000 -101.6770 C.ar  594  TYR594     -0.0201
     85  CD1       15.2860   22.4630 -101.5980 C.ar  594  TYR594     -0.0009
     86  CD2       14.8630   24.4640 -102.8220 C.ar  594  TYR594     -0.0009
     87  CE1       16.0970   22.0010 -102.6220 C.ar  594  TYR594      0.0417
     88  CE2       15.6750   24.0110 -103.8600 C.ar  594  TYR594      0.0417
     89  CZ        16.2870   22.7770 -103.7530 C.ar  594  TYR594      0.1957
     90  OH        17.1000   22.3120 -104.7590 O.3   594  TYR594     -0.2866
     91  N          6.6830   29.1130  -97.9090 N.3   597  MET597     -0.1230
     92  CA         5.2580   28.8620  -98.0080 C.3   597  MET597      0.1702
     93  C          5.0370   27.9250  -99.1880 C.2   597  MET597      0.2593
     94  O          5.6940   28.0720 -100.2180 O.2   597  MET597     -0.2718
     95  CB         4.5380   30.1840  -98.2790 C.3   597  MET597      0.0401
     96  CG         3.5690   30.5990  -97.2090 C.3   597  MET597      0.0596
     97  SD         4.3300   30.4450  -95.5960 S.3   597  MET597     -0.1393
     98  CE         2.8920   30.0340  -94.6010 C.3   597  MET597      0.0692
     99  N          4.1240   26.9660  -99.0450 N.am  598  THR598     -0.1939
    100  CA         3.8310   26.0470 -100.1370 C.3   598  THR598      0.2028
    101  C          3.0500   26.7790 -101.2190 C.2   598  THR598      0.2642
    102  O          2.0760   27.4780 -100.9310 O.2   598  THR598     -0.2714
    103  CB         3.0290   24.8010  -99.6770 C.3   598  THR598      0.1808
    104  OG1        1.8470   25.2150  -98.9840 O.3   598  THR598     -0.2208
    105  CG2        3.8580   23.9130  -98.7460 C.3   598  THR598      0.0379
    106  N          3.4930   26.6290 -102.4640 N.am  599  MET599     -0.1962
    107  CA         2.7460   27.1470 -103.5980 C.3   599  MET599      0.1736
    108  C          2.6910   26.1370 -104.7500 C.2   599  MET599      0.2616
    109  O          3.6830   25.4790 -105.0820 O.2   599  MET599     -0.2715
    110  CB         3.2920   28.5070 -104.0580 C.3   599  MET599      0.0427
    111  CG         4.2440   28.4510 -105.2300 C.3   599  MET599      0.0599
    112  SD         4.7430   30.0980 -105.7980 S.3   599  MET599     -0.1393
    113  CE         6.0820   29.6840 -106.9150 C.3   599  MET599      0.0692
    114  N          1.5110   26.0230 -105.3470 N.am  600  TYR600     -0.1960
    115  CA         1.2900   25.1030 -106.4430 C.3   600  TYR600      0.1771
    116  C          2.0930   25.5230 -107.6750 C.2   600  TYR600      0.2620
    117  O          2.5310   26.6600 -107.7770 O.2   600  TYR600     -0.2715
    118  CB        -0.1980   25.0310 -106.7580 C.3   600  TYR600      0.0574
    119  CG        -0.9680   24.1620 -105.8030 C.ar  600  TYR600     -0.0198
    120  CD1       -1.5370   22.9780 -106.2360 C.ar  600  TYR600     -0.0009
    121  CD2       -1.1230   24.5170 -104.4650 C.ar  600  TYR600     -0.0009
    122  CE1       -2.2420   22.1600 -105.3690 C.ar  600  TYR600      0.0417
    123  CE2       -1.8330   23.7120 -103.5900 C.ar  600  TYR600      0.0417
    124  CZ        -2.3870   22.5250 -104.0550 C.ar  600  TYR600      0.1957
    125  OH        -3.0930   21.6940 -103.2180 O.3   600  TYR600     -0.2866
    126  N          2.3240   24.5830 -108.5800 N.am  601  THR601     -0.1951
    127  CA         3.0600   24.8620 -109.8070 C.3   601  THR601      0.1897
    128  C          2.1350   25.0910 -111.0100 C.2   601  THR601      0.2313
    129  O          2.6040   25.2570 -112.1360 O.2   601  THR601     -0.2863
    130  CB         4.0820   23.7570 -110.1130 C.3   601  THR601      0.1794
    131  OG1        3.3920   22.5230 -110.2960 O.3   601  THR601     -0.2208
    132  CG2        5.0550   23.6050 -108.9530 C.3   601  THR601      0.0378
    133  N          2.4290   16.2840 -108.7650 N.3   609  ILE609     -0.1231
    134  CA         3.8150   16.7710 -108.8080 C.3   609  ILE609      0.1692
    135  C          4.8530   15.6760 -108.4830 C.2   609  ILE609      0.2592
    136  O          5.9280   15.6080 -109.0770 O.2   609  ILE609     -0.2718
    137  CB         4.0610   17.9680 -107.8340 C.3   609  ILE609      0.0266
    138  CG1        2.9720   19.0450 -107.9430 C.3   609  ILE609      0.0019
    139  CG2        5.4480   18.5680 -108.0510 C.3   609  ILE609      0.0020
    140  CD1        2.3000   19.1070 -109.2760 C.3   609  ILE609      0.0001
    141  N          4.5300   14.8540 -107.4880 N.am  610  TYR610     -0.1976
    142  CA         5.5050   13.9650 -106.8840 C.3   610  TYR610      0.1639
    143  C          4.9070   12.5800 -106.6260 C.2   610  TYR610      0.2290
    144  O          3.8780   12.4480 -105.9660 O.2   610  TYR610     -0.2864
    145  CB         6.0100   14.6000 -105.5830 C.3   610  TYR610      0.0560
    146  CG         7.1820   13.9140 -104.9030 C.ar  610  TYR610     -0.0198
    147  CD1        6.9910   12.7900 -104.1100 C.ar  610  TYR610     -0.0009
    148  CD2        8.4630   14.4290 -105.0010 C.ar  610  TYR610     -0.0009
    149  CE1        8.0410   12.1810 -103.4630 C.ar  610  TYR610      0.0417
    150  CE2        9.5290   13.8310 -104.3450 C.ar  610  TYR610      0.0417
    151  CZ         9.3070   12.7020 -103.5790 C.ar  610  TYR610      0.1957
    152  OH        10.3550   12.0920 -102.9290 O.3   610  TYR610     -0.2866
    153  N          6.9770   16.2030 -111.4800 N.3   633  GLN633     -0.1231
    154  CA         8.4220   16.4020 -111.4530 C.3   633  GLN633      0.1698
    155  C          9.2380   15.2440 -110.9000 C.2   633  GLN633      0.2592
    156  O         10.4540   15.1890 -111.0960 O.2   633  GLN633     -0.2718
    157  CB         8.7520   17.6520 -110.6660 C.3   633  GLN633      0.0381
    158  CG         8.0400   18.8630 -111.1700 C.3   633  GLN633      0.0905
    159  CD         8.4850   20.0750 -110.4250 C.2   633  GLN633      0.2608
    160  OE1        9.6850   20.3510 -110.3300 O.2   633  GLN633     -0.2717
    161  NE2        7.5250   20.7990 -109.8530 N.am  633  GLN633     -0.0878
    162  N          8.5720   14.3250 -110.2070 N.am  634  VAL634     -0.1980
    163  CA         9.2680   13.1680 -109.6750 C.3   634  VAL634      0.1595
    164  C          8.4330   11.9170 -109.8750 C.2   634  VAL634      0.2287
    165  O          7.2780   11.8340 -109.4450 O.2   634  VAL634     -0.2864
    166  CB         9.6530   13.3190 -108.1870 C.3   634  VAL634      0.0276
    167  CG1       10.2290   11.9900 -107.6590 C.3   634  VAL634      0.0022
    168  CG2       10.6550   14.4380 -108.0090 C.3   634  VAL634      0.0022
    169  N         11.7470   16.1400 -113.8080 N.3   657  GLY657     -0.1210
    170  CA        13.1600   16.2550 -113.5000 C.3   657  GLY657      0.1956
    171  C         13.8220   14.9530 -113.0610 C.2   657  GLY657      0.2611
    172  O         14.9830   14.7010 -113.3810 O.2   657  GLY657     -0.2717
    173  N         13.0710   14.1020 -112.3670 N.am  658  VAL658     -0.1979
    174  CA        13.6200   12.8740 -111.8040 C.3   658  VAL658      0.1595
    175  C         12.8040   11.6570 -112.2240 C.2   658  VAL658      0.2287
    176  O         11.6140   11.5550 -111.9130 O.2   658  VAL658     -0.2864
    177  CB        13.7200   12.9330 -110.2600 C.3   658  VAL658      0.0276
    178  CG1       13.9870   11.5430 -109.6910 C.3   658  VAL658      0.0022
    179  CG2       14.8150   13.8620 -109.8550 C.3   658  VAL658      0.0022
    180  N         13.6070   19.0020 -119.1690 N.3   679  PHE679     -0.1241
    181  CA        14.0350   19.2290 -117.7890 C.3   679  PHE679      0.1605
    182  C         14.6260   18.0060 -117.1090 C.2   679  PHE679      0.2264
    183  O         14.9760   18.0660 -115.9350 O.2   679  PHE679     -0.2867
    184  CB        12.8860   19.7840 -116.9410 C.3   679  PHE679      0.0534
    185  CG        12.2770   21.0330 -117.5070 C.ar  679  PHE679     -0.0203
    186  CD1       12.9250   22.2470 -117.3910 C.ar  679  PHE679     -0.0042
    187  CD2       11.0630   20.9900 -118.1770 C.ar  679  PHE679     -0.0042
    188  CE1       12.3630   23.4050 -117.9180 C.ar  679  PHE679     -0.0003
    189  CE2       10.4930   22.1440 -118.7070 C.ar  679  PHE679     -0.0003
    190  CZ        11.1460   23.3520 -118.5730 C.ar  679  PHE679     -0.0000
    191  N         16.6930   15.9050 -115.3490 N.3   681  SER681     -0.1217
    192  CA        18.0360   16.0960 -114.8110 C.3   681  SER681      0.1889
    193  C         18.5970   14.8930 -114.0920 C.2   681  SER681      0.2288
    194  O         19.7970   14.8320 -113.8160 O.2   681  SER681     -0.2866
    195  CB        18.0380   17.2810 -113.8570 C.3   681  SER681      0.2089
    196  OG        17.2690   16.9610 -112.7110 O.3   681  SER681     -0.2183
@<TRIPOS>BOND
     1   180   181    1
     2   189   190   ar
     3   189   187   ar
     4   190   188   ar
     5   187   185   ar
     6   188   186   ar
     7   181   182    1
     8   181   184    1
     9   185   186   ar
    10   185   184    1
    11   182   183    2
    12   191   192    1
    13   192   193    1
    14   192   195    1
    15   193   194    2
    16   195   196    1
    17   169   170    1
    18   170   171    1
    19   172   171    2
    20   171   173   am
    21   173   174    1
    22   175   176    2
    23   175   174    1
    24   129   128    2
    25   174   177    1
    26   153   154    1
    27   154   155    1
    28   154   157    1
    29   158   157    1
    30   158   159    1
    31   156   155    2
    32   128   127    1
    33   155   162   am
    34   159   160    2
    35   159   161   am
    36   131   130    1
    37   177   179    1
    38   177   178    1
    39   162   163    1
    40   130   127    1
    41   130   132    1
    42   164   163    1
    43   164   165    2
    44   127   126    1
    45   163   166    1
    46   140   138    1
    47   136   135    2
    48   134   133    1
    49   134   135    1
    50   134   137    1
    51   126   116   am
    52   135   141   am
    53   166   168    1
    54   166   167    1
    55   139   137    1
    56   138   137    1
    57   117   116    2
    58   116   115    1
    59   141   142    1
    60    70    68    1
    61   113   112    1
    62   142   143    1
    63   142   145    1
    64   118   115    1
    65   118   119    1
    66   143   144    2
    67    15    13    1
    68   115   114    1
    69   120   119   ar
    70   120   122   ar
    71    68    69    1
    72    68    67    2
    73    12    11    2
    74    13    10    1
    75    13    14    1
    76    10    11    1
    77    10     9    1
    78   119   121   ar
    79   112   111    1
    80   145   146    1
    81    11    17   am
    82   122   124   ar
    83   114   108   am
    84   111   110    1
    85    67    66    1
    86   109   108    2
    87   148   146   ar
    88   148   150   ar
    89   146   147   ar
    90    90    89    1
    91   108   107    1
    92    14    16    1
    93   121   123   ar
    94   150   151   ar
    95    17    18    1
    96   147   149   ar
    97   110   107    1
    98   124   123   ar
    99   124   125    1
   100    88    89   ar
   101    88    86   ar
   102    66    65    1
   103    89    87   ar
   104    18    19    1
   105    18    21    1
   106   107   106    1
   107   151   149   ar
   108   151   152    1
   109    27    29   ar
   110    27    24   ar
   111    29    30   ar
   112    19    20    2
   113    86    84   ar
   114    65    64    1
   115    21    22    1
   116    87    85   ar
   117   106   101   am
   118    30    28   ar
   119    24    22   ar
   120    24    26   ar
   121    22    23   ar
   122    57    59   ar
   123    57    55   ar
   124    59    58   ar
   125    84    85   ar
   126    84    83    1
   127    26    28   ar
   128    26    25   ar
   129    64    61    1
   130    23    25   ar
   131   101   102    2
   132   101   100    1
   133    55    54   ar
   134    58    56   ar
   135    36    35    1
   136    83    80    1
   137    54    56   ar
   138    54    53    1
   139    61    62    1
   140    61    60    1
   141    94    93    2
   142   100   103    1
   143   100    99    1
   144     1     2    1
   145    48    46   ar
   146    48    47   ar
   147    62    63    2
   148     6     8    1
   149     6     5    1
   150     2     5    1
   151     2     3    1
   152   103   104    1
   153   103   105    1
   154    53    50    1
   155    31    32    1
   156    46    44   ar
   157    35    32    1
   158    35    37    1
   159    47    45   ar
   160    80    79    1
   161    80    81    1
   162    93    99   am
   163    93    92    1
   164    33    32    1
   165    33    34    2
   166    78    76    1
   167     5     7    1
   168     3     4    2
   169    52    51    2
   170    77    76    1
   171    75    76    1
   172    75    72    1
   173    44    43   ar
   174    95    92    1
   175    95    96    1
   176    45    43   ar
   177    81    82    2
   178    50    51    1
   179    50    49    1
   180    92    91    1
   181    43    42    1
   182    71    72    1
   183    72    73    1
   184    96    97    1
   185    42    39    1
   186    73    74    2
   187    97    98    1
   188    41    40    2
   189    40    39    1
   190    39    38    1
