@<TRIPOS>MOLECULE
tmp/4j0mA03.pdb
 195 184 0 0 0
SMALL
GASTEIGER

@<TRIPOS>ATOM
      1  N          0.5880   52.3170  -99.4690 N.3   151  TYR151     -0.1241
      2  CA         0.5630   51.4240 -100.6260 C.3   151  TYR151      0.1605
      3  C          0.7650   52.1950 -101.9160 C.2   151  TYR151      0.2264
      4  O         -0.0620   52.1690 -102.8320 O.2   151  TYR151     -0.2867
      5  CB        -0.6820   50.5190 -100.6390 C.3   151  TYR151      0.0534
      6  CG        -0.6110   49.5090  -99.5220 C.ar  151  TYR151     -0.0201
      7  CD1       -0.0820   48.2360  -99.7310 C.ar  151  TYR151     -0.0009
      8  CD2       -1.0330   49.8390  -98.2350 C.ar  151  TYR151     -0.0009
      9  CE1        0.0110   47.3120  -98.6800 C.ar  151  TYR151      0.0417
     10  CE2       -0.9490   48.9320  -97.1920 C.ar  151  TYR151      0.0417
     11  CZ        -0.4250   47.6740  -97.4160 C.ar  151  TYR151      0.1957
     12  OH        -0.3460   46.7820  -96.3670 O.3   151  TYR151     -0.2866
     13  N          2.3810   53.7910  -94.6980 N.3   176  THR176     -0.1218
     14  CA         2.6510   52.3530  -94.8030 C.3   176  THR176      0.1862
     15  C          2.8920   51.8650  -96.2400 C.2   176  THR176      0.2287
     16  O          2.1940   52.2540  -97.1660 O.2   176  THR176     -0.2866
     17  CB         1.4540   51.5340  -94.2240 C.3   176  THR176      0.1770
     18  OG1        1.2770   51.8380  -92.8420 O.3   176  THR176     -0.2211
     19  CG2        1.6810   50.0750  -94.3440 C.3   176  THR176      0.0375
     20  N         -2.9590   58.6880  -84.9500 N.3   197  PHE197     -0.1241
     21  CA        -2.5210   57.5450  -85.7420 C.3   197  PHE197      0.1605
     22  C         -1.2950   57.8930  -86.5760 C.2   197  PHE197      0.2264
     23  O         -1.3320   58.8140  -87.3670 O.2   197  PHE197     -0.2867
     24  CB        -3.6390   57.0380  -86.6610 C.3   197  PHE197      0.0534
     25  CG        -3.2820   55.7660  -87.4100 C.ar  197  PHE197     -0.0203
     26  CD1       -2.5290   55.8150  -88.5720 C.ar  197  PHE197     -0.0042
     27  CD2       -3.6960   54.5240  -86.9430 C.ar  197  PHE197     -0.0042
     28  CE1       -2.1980   54.6390  -89.2590 C.ar  197  PHE197     -0.0003
     29  CE2       -3.3770   53.3520  -87.6180 C.ar  197  PHE197     -0.0003
     30  CZ        -2.6350   53.4060  -88.7800 C.ar  197  PHE197     -0.0000
     31  N          1.7170   55.8740  -88.9110 N.3   199  SER199     -0.1217
     32  CA         2.3520   54.6490  -89.3480 C.3   199  SER199      0.1889
     33  C          3.3410   54.8390  -90.4790 C.2   199  SER199      0.2288
     34  O          2.9970   55.3500  -91.5420 O.2   199  SER199     -0.2866
     35  CB         1.3150   53.6190  -89.7420 C.3   199  SER199      0.2089
     36  OG         1.9770   52.4160  -90.0730 O.3   199  SER199     -0.2183
     37  N          5.0810   51.9450  -91.2180 N.3   201  SER201     -0.1202
     38  CA         5.4440   50.5250  -91.3780 C.3   201  SER201      0.2020
     39  C          5.6860   50.1000  -92.8250 C.2   201  SER201      0.2618
     40  O          5.1280   50.6920  -93.7640 O.2   201  SER201     -0.2717
     41  CB         4.4390   49.5780  -90.7070 C.3   201  SER201      0.2103
     42  OG         3.3060   49.4010  -91.5250 O.3   201  SER201     -0.2182
     43  N          6.5310   49.0780  -92.9810 N.am  202  GLN202     -0.1979
     44  CA         6.9700   48.5950  -94.2910 C.3   202  GLN202      0.1601
     45  C          7.5960   49.6840  -95.1590 C.2   202  GLN202      0.2287
     46  O          7.0990   49.9940  -96.2370 O.2   202  GLN202     -0.2864
     47  CB         5.8160   47.9340  -95.0500 C.3   202  GLN202      0.0394
     48  CG         5.3000   46.6590  -94.4140 C.3   202  GLN202      0.0908
     49  CD         4.1000   46.1100  -95.1420 C.2   202  GLN202      0.2608
     50  OE1        2.9600   46.3430  -94.7540 O.2   202  GLN202     -0.2717
     51  NE2        4.3490   45.3910  -96.2100 N.am  202  GLN202     -0.0878
     52  N         -1.8580   54.9210  -81.8370 N.3   222  THR222     -0.1203
     53  CA        -1.1400   53.8430  -82.4890 C.3   222  THR222      0.1994
     54  C          0.0940   54.3930  -83.1780 C.2   222  THR222      0.2618
     55  O          0.0480   55.3890  -83.8900 O.2   222  THR222     -0.2717
     56  CB        -2.0390   53.0040  -83.4400 C.3   222  THR222      0.1784
     57  OG1       -1.3590   52.7730  -84.6890 O.3   222  THR222     -0.2211
     58  CG2       -3.3860   53.6750  -83.6550 C.3   222  THR222      0.0376
     59  N          1.2130   53.7630  -82.8820 N.am  223  LEU223     -0.1965
     60  CA         2.4930   54.1650  -83.4060 C.3   223  LEU223      0.1728
     61  C          3.0590   52.8970  -83.9830 C.2   223  LEU223      0.2616
     62  O          3.3570   51.9600  -83.2430 O.2   223  LEU223     -0.2715
     63  CB         3.3870   54.6620  -82.2690 C.3   223  LEU223      0.0311
     64  CG         4.8820   54.8330  -82.5370 C.3   223  LEU223      0.0022
     65  CD1        5.1100   55.8220  -83.6550 C.3   223  LEU223      0.0001
     66  CD2        5.6020   55.2790  -81.2700 C.3   223  LEU223      0.0001
     67  N          3.1970   52.8650  -85.3020 N.am  224  ASN224     -0.1972
     68  CA         3.6180   51.6700  -85.9910 C.3   224  ASN224      0.1688
     69  C          4.8080   51.9870  -86.8750 C.2   224  ASN224      0.2292
     70  O          4.6670   52.6460  -87.9000 O.2   224  ASN224     -0.2864
     71  CB         2.4480   51.1860  -86.8620 C.3   224  ASN224      0.1181
     72  CG         2.5530   49.7200  -87.2320 C.2   224  ASN224      0.2629
     73  OD1        3.6460   49.2010  -87.4620 O.2   224  ASN224     -0.2716
     74  ND2        1.4050   49.0460  -87.2870 N.am  224  ASN224     -0.0877
     75  N          6.8980   49.2330  -87.6760 N.3   226  SER226     -0.1202
     76  CA         7.3170   47.8760  -87.9900 C.3   226  SER226      0.2020
     77  C          7.7960   47.6850  -89.4320 C.2   226  SER226      0.2618
     78  O          7.4430   48.4410  -90.3450 O.2   226  SER226     -0.2717
     79  CB         6.1840   46.9060  -87.7010 C.3   226  SER226      0.2103
     80  OG         5.1730   47.0480  -88.6720 O.3   226  SER226     -0.2182
     81  N          8.6190   46.6540  -89.6090 N.am  227  ARG227     -0.1979
     82  CA         9.1790   46.2930  -90.9020 C.3   227  ARG227      0.1597
     83  C          9.9120   47.4700  -91.5510 C.2   227  ARG227      0.2287
     84  O          9.5410   47.9580  -92.6160 O.2   227  ARG227     -0.2864
     85  CB         8.1010   45.6770  -91.8000 C.3   227  ARG227      0.0334
     86  CG         7.4780   44.4340  -91.1710 C.3   227  ARG227      0.0492
     87  CD         6.9000   43.4950  -92.2010 C.3   227  ARG227      0.2205
     88  NE         6.0570   42.4460  -91.6180 N.pl3 227  ARG227     -0.0865
     89  CZ         6.4850   41.2170  -91.3340 C.cat 227  ARG227      0.5346
     90  NH1        5.6470   40.3220  -90.8160 N.pl3 227  ARG227      0.1354
     91  NH2        7.7520   40.8820  -91.5660 N.pl3 227  ARG227      0.1354
     92  N         -1.8630   50.8950  -79.4010 N.3   248  GLN248     -0.1231
     93  CA        -1.0830   49.9870  -80.2490 C.3   248  GLN248      0.1698
     94  C          0.3360   50.4920  -80.5110 C.2   248  GLN248      0.2592
     95  O          0.5380   51.5230  -81.1720 O.2   248  GLN248     -0.2718
     96  CB        -1.7670   49.7590  -81.6010 C.3   248  GLN248      0.0381
     97  CG        -3.1320   49.0730  -81.5560 C.3   248  GLN248      0.0905
     98  CD        -4.2290   49.9710  -81.0150 C.2   248  GLN248      0.2608
     99  OE1       -4.0050   51.1520  -80.7360 O.2   248  GLN248     -0.2717
    100  NE2       -5.4260   49.4200  -80.8710 N.am  248  GLN248     -0.0878
    101  N          1.3170   49.7520  -80.0120 N.am  249  LEU249     -0.1966
    102  CA         2.7010   50.0120  -80.3530 C.3   249  LEU249      0.1728
    103  C          3.3000   48.8310  -81.1250 C.2   249  LEU249      0.2616
    104  O          3.1890   47.6810  -80.6980 O.2   249  LEU249     -0.2715
    105  CB         3.5120   50.2610  -79.0900 C.3   249  LEU249      0.0311
    106  CG         5.0140   50.3740  -79.3550 C.3   249  LEU249      0.0022
    107  CD1        5.2960   51.5160  -80.3240 C.3   249  LEU249      0.0001
    108  CD2        5.7840   50.5500  -78.0530 C.3   249  LEU249      0.0001
    109  N          3.9310   49.1150  -82.2580 N.am  250  SER250     -0.1950
    110  CA         4.6790   48.0930  -82.9790 C.3   250  SER250      0.1924
    111  C          6.0450   48.6100  -83.3970 C.2   250  SER250      0.2314
    112  O          6.1350   49.5640  -84.1610 O.2   250  SER250     -0.2863
    113  CB         3.9080   47.5970  -84.2050 C.3   250  SER250      0.2116
    114  OG         4.6460   46.6070  -84.8970 O.3   250  SER250     -0.2180
    115  N          8.1020   46.0550  -84.3770 N.3   252  ALA252     -0.1231
    116  CA         8.4420   44.7470  -84.9430 C.3   252  ALA252      0.1694
    117  C          9.2480   44.7510  -86.2470 C.2   252  ALA252      0.2592
    118  O          9.1720   45.6790  -87.0340 O.2   252  ALA252     -0.2718
    119  CB         7.1870   43.9180  -85.1230 C.3   252  ALA252      0.0304
    120  N         10.0460   43.6990  -86.4330 N.am  253  HIS253     -0.1976
    121  CA        10.7940   43.4740  -87.6680 C.3   253  HIS253      0.1656
    122  C         11.6740   44.6450  -88.0700 C.2   253  HIS253      0.2291
    123  O         11.4850   45.2640  -89.1030 O.2   253  HIS253     -0.2864
    124  CB         9.8750   43.0010  -88.8040 C.3   253  HIS253      0.0771
    125  CG         9.2630   41.6680  -88.5310 C.ar  253  HIS253      0.0820
    126  ND1        9.9500   40.4860  -88.7050 N.ar  253  HIS253     -0.2267
    127  CD2        8.0520   41.3280  -88.0280 C.ar  253  HIS253      0.1154
    128  CE1        9.1800   39.4740  -88.3450 C.ar  253  HIS253      0.1986
    129  NE2        8.0210   39.9580  -87.9310 N.ar  253  HIS253     -0.2212
    130  N         -1.9330   46.5260  -77.2570 N.3   273  ILE273     -0.1231
    131  CA        -1.2320   45.6970  -78.2350 C.3   273  ILE273      0.1692
    132  C          0.2360   46.0800  -78.3750 C.2   273  ILE273      0.2592
    133  O          0.5510   47.2070  -78.7490 O.2   273  ILE273     -0.2718
    134  CB        -1.9040   45.7360  -79.6260 C.3   273  ILE273      0.0266
    135  CG1       -3.3620   45.2890  -79.5290 C.3   273  ILE273      0.0019
    136  CG2       -1.1300   44.8520  -80.6230 C.3   273  ILE273      0.0020
    137  CD1       -4.0520   45.2550  -80.8640 C.3   273  ILE273      0.0001
    138  N          1.1230   45.1290  -78.0970 N.am  274  LEU274     -0.1966
    139  CA         2.5620   45.3740  -78.1440 C.3   274  LEU274      0.1728
    140  C          3.2250   44.3360  -79.0300 C.2   274  LEU274      0.2616
    141  O          3.0550   43.1590  -78.7990 O.2   274  LEU274     -0.2715
    142  CB         3.1590   45.3040  -76.7450 C.3   274  LEU274      0.0311
    143  CG         4.6510   45.6050  -76.6680 C.3   274  LEU274      0.0022
    144  CD1        4.9330   47.0440  -77.1450 C.3   274  LEU274      0.0001
    145  CD2        5.1820   45.3840  -75.2410 C.3   274  LEU274      0.0001
    146  N          3.9450   44.7750  -80.0600 N.am  275  ASP275     -0.1971
    147  CA         4.6540   43.8760  -80.9430 C.3   275  ASP275      0.1709
    148  C          6.0850   44.3610  -80.9990 C.2   275  ASP275      0.2293
    149  O          6.3860   45.4180  -81.5600 O.2   275  ASP275     -0.2864
    150  CB         4.0380   43.9110  -82.3470 C.3   275  ASP275      0.1436
    151  CG         4.5860   42.8050  -83.2800 C.2   275  ASP275      0.3671
    152  OD1        5.5620   42.1080  -82.9290 O.co2 275  ASP275     -0.2456
    153  OD2        4.0310   42.6220  -84.3860 O.co2 275  ASP275     -0.2456
    154  N          8.3070   41.8810  -81.9400 N.3   277  SER277     -0.1217
    155  CA         8.7710   40.7390  -82.7360 C.3   277  SER277      0.1889
    156  C          9.8940   41.0700  -83.6870 C.2   277  SER277      0.2288
    157  O         10.0000   42.1990  -84.1650 O.2   277  SER277     -0.2866
    158  CB         7.6220   40.2250  -83.6150 C.3   277  SER277      0.2089
    159  OG         6.8440   39.3120  -82.8840 O.3   277  SER277     -0.2183
    160  N         -2.7400   41.6090  -76.5910 N.3   297  ASN297     -0.1240
    161  CA        -1.9640   40.9420  -77.6180 C.3   297  ASN297      0.1653
    162  C         -0.4880   41.3140  -77.4800 C.2   297  ASN297      0.2266
    163  O         -0.1140   42.4660  -77.6890 O.2   297  ASN297     -0.2867
    164  CB        -2.5050   41.3510  -78.9890 C.3   297  ASN297      0.1155
    165  CG        -1.9180   40.5280  -80.1270 C.2   297  ASN297      0.2627
    166  OD1       -0.7260   40.2620  -80.1430 O.2   297  ASN297     -0.2716
    167  ND2       -2.7580   40.1210  -81.0820 N.am  297  ASN297     -0.0877
    168  N          3.3810   40.3080  -78.6550 N.3   299  ASN299     -0.1240
    169  CA         4.2500   39.5600  -79.5570 C.3   299  ASN299      0.1653
    170  C          5.7120   39.8690  -79.2840 C.2   299  ASN299      0.2266
    171  O          6.1710   40.9630  -79.5790 O.2   299  ASN299     -0.2867
    172  CB         3.9100   39.9170  -81.0030 C.3   299  ASN299      0.1155
    173  CG         4.2510   38.8050  -81.9730 C.2   299  ASN299      0.2627
    174  OD1        5.3270   38.2180  -81.9050 O.2   299  ASN299     -0.2716
    175  ND2        3.3290   38.5050  -82.8750 N.am  299  ASN299     -0.0877
    176  N         10.6570   35.8170  -82.1460 N.3   302  ASN302     -0.1240
    177  CA        11.8760   36.1120  -82.8920 C.3   302  ASN302      0.1653
    178  C         12.7800   37.1770  -82.2850 C.2   302  ASN302      0.2266
    179  O         13.0600   38.2130  -82.9020 O.2   302  ASN302     -0.2867
    180  CB        11.5480   36.4770  -84.3330 C.3   302  ASN302      0.1155
    181  CG        11.3680   35.2650  -85.1900 C.2   302  ASN302      0.2627
    182  OD1       12.3410   34.5730  -85.5000 O.2   302  ASN302     -0.2716
    183  ND2       10.1220   34.9640  -85.5500 N.am  302  ASN302     -0.0877
    184  N          2.6380   35.5280  -78.1010 N.3   324  TYR324     -0.1241
    185  CA         3.5810   34.9690  -79.0660 C.3   324  TYR324      0.1605
    186  C          5.0280   35.1270  -78.6380 C.2   324  TYR324      0.2264
    187  O          5.5950   36.2060  -78.7360 O.2   324  TYR324     -0.2867
    188  CB         3.4070   35.6830  -80.4010 C.3   324  TYR324      0.0534
    189  CG         2.0120   35.5900  -80.9670 C.ar  324  TYR324     -0.0201
    190  CD1        1.5930   34.4540  -81.6710 C.ar  324  TYR324     -0.0009
    191  CD2        1.1130   36.6460  -80.8260 C.ar  324  TYR324     -0.0009
    192  CE1        0.3080   34.3750  -82.2210 C.ar  324  TYR324      0.0417
    193  CE2       -0.1800   36.5720  -81.3650 C.ar  324  TYR324      0.0417
    194  CZ        -0.5690   35.4370  -82.0610 C.ar  324  TYR324      0.1957
    195  OH        -1.8440   35.3730  -82.5720 O.3   324  TYR324     -0.2866
@<TRIPOS>BOND
     1     4     3    2
     2     3     2    1
     3     5     2    1
     4     5     6    1
     5     2     1    1
     6     7     6   ar
     7     7     9   ar
     8     6     8   ar
     9     9    11   ar
    10     8    10   ar
    11    11    10   ar
    12    11    12    1
    13    16    15    2
    14    15    14    1
    15    46    45    2
    16    51    49   am
    17    45    44    1
    18    49    50    2
    19    49    48    1
    20    47    48    1
    21    47    44    1
    22    14    13    1
    23    14    17    1
    24    19    17    1
    25    44    43    1
    26    17    18    1
    27    40    39    2
    28    43    39   am
    29    39    38    1
    30    84    83    2
    31    87    88    1
    32    87    86    1
    33    85    86    1
    34    85    82    1
    35    88    89    2
    36    91    89    1
    37    83    82    1
    38    34    33    2
    39    42    41    1
    40    38    37    1
    41    38    41    1
    42    89    90    1
    43    82    81    1
    44    33    32    1
    45    78    77    2
    46    36    35    1
    47    35    32    1
    48    81    77   am
    49    77    76    1
    50    32    31    1
    51    28    30   ar
    52    28    26   ar
    53   123   122    2
    54   124   125    1
    55   124   121    1
    56    30    29   ar
    57   126   125   ar
    58   126   128   ar
    59    80    79    1
    60    26    25   ar
    61   125   127   ar
    62   128   129   ar
    63   122   121    1
    64   127   129   ar
    65    76    79    1
    66    76    75    1
    67    70    69    2
    68   121   120    1
    69    29    27   ar
    70    73    72    2
    71    25    27   ar
    72    25    24    1
    73    23    22    2
    74    74    72   am
    75    72    71    1
    76   118   117    2
    77    69    68    1
    78    71    68    1
    79    24    21    1
    80    22    21    1
    81   120   117   am
    82   117   116    1
    83    68    67    1
    84    21    20    1
    85   183   181   am
    86   182   181    2
    87    67    61   am
    88   181   180    1
    89   119   116    1
    90   116   115    1
    91   114   113    1
    92    57    56    1
    93   153   151   ar
    94   180   177    1
    95   113   110    1
    96   157   156    2
    97   112   111    2
    98    61    60    1
    99    61    62    2
   100    55    54    2
   101   156   155    1
   102    65    64    1
   103    58    56    1
   104   158   159    1
   105   158   155    1
   106    56    53    1
   107    60    59    1
   108    60    63    1
   109   111   110    1
   110   151   152   ar
   111   151   150    1
   112    54    59   am
   113    54    53    1
   114   110   109    1
   115   179   178    2
   116   177   178    1
   117   177   176    1
   118   175   173   am
   119   155   154    1
   120   195   194    1
   121    64    63    1
   122    64    66    1
   123    53    52    1
   124   150   147    1
   125   109   103   am
   126   192   194   ar
   127   192   190   ar
   128   194   193   ar
   129   173   174    2
   130   173   172    1
   131   190   189   ar
   132    96    97    1
   133    96    93    1
   134   149   148    2
   135    97    98    1
   136   193   191   ar
   137    95    94    2
   138   103   104    2
   139   103   102    1
   140   167   165   am
   141    98   100   am
   142    98    99    2
   143   172   169    1
   144   148   147    1
   145   189   191   ar
   146   189   188    1
   147   147   146    1
   148   137   135    1
   149   136   134    1
   150    94    93    1
   151    94   101   am
   152   188   185    1
   153   102   101    1
   154   102   105    1
   155   107   106    1
   156    93    92    1
   157   166   165    2
   158   165   164    1
   159   146   140   am
   160   134   135    1
   161   134   131    1
   162   171   170    2
   163   169   170    1
   164   169   168    1
   165   106   105    1
   166   106   108    1
   167   185   186    1
   168   185   184    1
   169   140   141    2
   170   140   139    1
   171   164   161    1
   172   133   132    2
   173   187   186    2
   174   132   131    1
   175   132   138   am
   176   131   130    1
   177   139   138    1
   178   139   142    1
   179   163   162    2
   180   161   162    1
   181   161   160    1
   182   144   143    1
   183   142   143    1
   184   143   145    1
