@<TRIPOS>MOLECULE
tmp/4j0qE02.pdb
 85 82 0 0 0
SMALL
GASTEIGER

@<TRIPOS>ATOM
      1  N        139.2670  -60.3340   -0.9520 N.3   192  GLU192     -0.1231
      2  CA       139.1990  -61.6040   -1.6680 C.3   192  GLU192      0.1699
      3  C        139.5440  -62.7690   -0.7380 C.2   192  GLU192      0.2592
      4  O        138.6610  -63.5120   -0.3180 O.2   192  GLU192     -0.2718
      5  CB       140.1390  -61.5880   -2.8730 C.3   192  GLU192      0.0402
      6  CG       139.7850  -60.5390   -3.9090 C.3   192  GLU192      0.1161
      7  CD       140.7800  -60.4860   -5.0770 C.2   192  GLU192      0.3649
      8  OE1      141.3240  -61.5480   -5.4620 O.co2 192  GLU192     -0.2457
      9  OE2      141.0200  -59.3770   -5.6040 O.co2 192  GLU192     -0.2457
     10  N        140.8240  -62.9170   -0.4110 N.am  193  ASP193     -0.1974
     11  CA       141.2800  -63.9850    0.4780 C.3   193  ASP193      0.1709
     12  C        141.5610  -63.4720    1.8770 C.2   193  ASP193      0.2293
     13  O        141.7700  -62.2750    2.0830 O.2   193  ASP193     -0.2864
     14  CB       142.5330  -64.6620   -0.0760 C.3   193  ASP193      0.1436
     15  CG       142.2210  -65.6620   -1.1800 C.2   193  ASP193      0.3671
     16  OD1      141.1800  -66.3530   -1.0870 O.co2 193  ASP193     -0.2456
     17  OD2      143.0180  -65.7590   -2.1410 O.co2 193  ASP193     -0.2456
     18  N        143.7770  -64.7680    5.4490 N.3   195  PHE195     -0.1241
     19  CA       144.7360  -65.7130    6.0260 C.3   195  PHE195      0.1605
     20  C        145.0580  -65.3100    7.4640 C.2   195  PHE195      0.2264
     21  O        145.4110  -64.1610    7.7140 O.2   195  PHE195     -0.2867
     22  CB       146.0430  -65.7240    5.2180 C.3   195  PHE195      0.0534
     23  CG       145.8930  -66.1950    3.7900 C.ar  195  PHE195     -0.0203
     24  CD1      145.9770  -65.2920    2.7380 C.ar  195  PHE195     -0.0042
     25  CD2      145.7010  -67.5490    3.5000 C.ar  195  PHE195     -0.0042
     26  CE1      145.8630  -65.7160    1.4160 C.ar  195  PHE195     -0.0003
     27  CE2      145.5690  -67.9860    2.1860 C.ar  195  PHE195     -0.0003
     28  CZ       145.6470  -67.0710    1.1360 C.ar  195  PHE195     -0.0000
     29  N        143.4520  -59.8940    1.5380 N.3   205  THR205     -0.1203
     30  CA       144.0690  -59.5520    0.2670 C.3   205  THR205      0.1994
     31  C        143.0760  -58.9610   -0.7260 C.2   205  THR205      0.2618
     32  O        141.8790  -59.2160   -0.6390 O.2   205  THR205     -0.2717
     33  CB       144.6940  -60.7890   -0.4090 C.3   205  THR205      0.1784
     34  OG1      143.6540  -61.6840   -0.8080 O.3   205  THR205     -0.2211
     35  CG2      145.6830  -61.5140    0.5190 C.3   205  THR205      0.0376
     36  N        143.5810  -58.1850   -1.6860 N.am  206  GLY206     -0.1956
     37  CA       142.7440  -57.6560   -2.7480 C.3   206  GLY206      0.1869
     38  C        143.4640  -56.5590   -3.4900 C.2   206  GLY206      0.2309
     39  O        144.6340  -56.2760   -3.2230 O.2   206  GLY206     -0.2863
     40  N        151.3660  -55.8380    2.8390 N.3   236  GLU236     -0.1231
     41  CA       152.1450  -56.7840    2.0690 C.3   236  GLU236      0.1699
     42  C        151.9000  -56.5490    0.5880 C.2   236  GLU236      0.2592
     43  O        150.7540  -56.4880    0.1510 O.2   236  GLU236     -0.2718
     44  CB       151.7180  -58.2020    2.4260 C.3   236  GLU236      0.0402
     45  CG       152.4180  -59.2850    1.6240 C.3   236  GLU236      0.1161
     46  CD       151.7680  -60.6630    1.8200 C.2   236  GLU236      0.3649
     47  OE1      152.1900  -61.6200    1.1430 O.co2 236  GLU236     -0.2457
     48  OE2      150.8320  -60.7820    2.6480 O.co2 236  GLU236     -0.2457
     49  N        152.9770  -56.3900   -0.1710 N.am  237  MET237     -0.1965
     50  CA       152.8870  -56.3630   -1.6300 C.3   237  MET237      0.1736
     51  C        153.8540  -57.3640   -2.2680 C.2   237  MET237      0.2616
     52  O        154.6200  -58.0130   -1.5660 O.2   237  MET237     -0.2715
     53  CB       153.1750  -54.9580   -2.1370 C.3   237  MET237      0.0427
     54  CG       152.0580  -54.0170   -1.7670 C.3   237  MET237      0.0599
     55  SD       152.2620  -52.4080   -2.4620 S.3   237  MET237     -0.1393
     56  CE       152.3050  -52.8020   -4.2150 C.3   237  MET237      0.0692
     57  N        153.8120  -57.4900   -3.5930 N.am  238  PHE238     -0.1974
     58  CA       154.7340  -58.3870   -4.2860 C.3   238  PHE238      0.1639
     59  C        156.1510  -58.0550   -3.8010 C.2   238  PHE238      0.2290
     60  O        156.6180  -56.9200   -3.9150 O.2   238  PHE238     -0.2864
     61  CB       154.5710  -58.2460   -5.8110 C.3   238  PHE238      0.0560
     62  CG       155.4690  -59.1700   -6.6410 C.ar  238  PHE238     -0.0200
     63  CD1      156.3560  -58.6340   -7.5730 C.ar  238  PHE238     -0.0042
     64  CD2      155.3940  -60.5560   -6.5250 C.ar  238  PHE238     -0.0042
     65  CE1      157.1940  -59.4730   -8.3740 C.ar  238  PHE238     -0.0003
     66  CE2      156.2170  -61.4070   -7.3110 C.ar  238  PHE238     -0.0003
     67  CZ       157.1170  -60.8580   -8.2420 C.ar  238  PHE238     -0.0000
     68  N        147.8620  -54.3340   -5.7170 N.3   250  ASN250     -0.1225
     69  CA       147.4500  -55.6170   -5.1270 C.3   250  ASN250      0.1785
     70  C        148.1850  -55.8870   -3.8130 C.2   250  ASN250      0.2597
     71  O        149.4040  -55.7590   -3.7450 O.2   250  ASN250     -0.2718
     72  CB       147.7060  -56.7600   -6.1090 C.3   250  ASN250      0.1169
     73  CG       146.7680  -56.7160   -7.2890 C.2   250  ASN250      0.2627
     74  OD1      147.1120  -56.1910   -8.3560 O.2   250  ASN250     -0.2716
     75  ND2      145.5540  -57.2250   -7.0970 N.am  250  ASN250     -0.0877
     76  N        147.4710  -56.2610   -2.7530 N.am  251  CYS251     -0.1956
     77  CA       148.1800  -56.4030   -1.4850 C.3   251  CYS251      0.1843
     78  C        147.5270  -57.2770   -0.4440 C.2   251  CYS251      0.2626
     79  O        146.4160  -57.7820   -0.6160 O.2   251  CYS251     -0.2714
     80  CB       148.4060  -55.0230   -0.8810 C.3   251  CYS251      0.0997
     81  SG       146.8680  -54.1840   -0.5790 S.3   251  CYS251     -0.0797
     82  N        148.2620  -57.4590    0.6420 N.am  252  GLY252     -0.1954
     83  CA       147.7250  -58.0650    1.8410 C.3   252  GLY252      0.1869
     84  C        147.7860  -57.0250    2.9380 C.2   252  GLY252      0.2309
     85  O        148.8730  -56.5160    3.2610 O.2   252  GLY252     -0.2863
@<TRIPOS>BOND
     1    65    67   ar
     2    65    63   ar
     3    74    73    2
     4    67    66   ar
     5    63    62   ar
     6    66    64   ar
     7    73    75   am
     8    73    72    1
     9    62    64   ar
    10    62    61    1
    11    72    69    1
    12    61    58    1
    13    68    69    1
    14     9     7   ar
    15     8     7   ar
    16    69    70    1
    17     7     6    1
    18    58    59    1
    19    58    57    1
    20    56    55    1
    21    60    59    2
    22     6     5    1
    23    70    71    2
    24    70    76   am
    25    57    51   am
    26    38    39    2
    27    38    37    1
    28     5     2    1
    29    76    77    1
    30    37    36    1
    31    55    54    1
    32    51    50    1
    33    51    52    2
    34    17    15   ar
    35    53    54    1
    36    53    50    1
    37    36    31   am
    38     2     1    1
    39     2     3    1
    40    50    49    1
    41    77    80    1
    42    77    78    1
    43    15    16   ar
    44    15    14    1
    45    80    81    1
    46    34    33    1
    47     3    10   am
    48     3     4    2
    49    31    32    2
    50    31    30    1
    51    79    78    2
    52    78    82   am
    53    10    11    1
    54    33    30    1
    55    33    35    1
    56    49    42   am
    57    14    11    1
    58    43    42    2
    59    30    29    1
    60    11    12    1
    61    42    41    1
    62    82    83    1
    63    28    26   ar
    64    28    27   ar
    65    47    46   ar
    66    26    24   ar
    67    45    46    1
    68    45    44    1
    69    46    48   ar
    70    83    84    1
    71    12    13    2
    72    41    44    1
    73    41    40    1
    74    27    25   ar
    75    24    23   ar
    76    84    85    2
    77    25    23   ar
    78    23    22    1
    79    22    19    1
    80    18    19    1
    81    19    20    1
    82    20    21    2
