@<TRIPOS>MOLECULE
tmp/4j0sA00.pdb
 126 122 0 0 0
SMALL
GASTEIGER

@<TRIPOS>ATOM
      1  N         22.6800   21.7280    2.1510 N.3    40  TRP40      -0.1228
      2  CA        22.5350   20.3670    2.6870 C.3    40  TRP40       0.1722
      3  C         23.8190   19.5410    2.8190 C.2    40  TRP40       0.2437
      4  O         23.9620   18.8070    3.8050 O.2    40  TRP40      -0.2733
      5  CB        21.3820   19.6000    1.9770 C.3    40  TRP40       0.0563
      6  CG        21.6740   19.1810    0.5730 C.ar   40  TRP40       0.0003
      7  CD1       21.3410   19.8430   -0.6180 C.ar   40  TRP40       0.0946
      8  CD2       22.3580   17.9600    0.1640 C.ar   40  TRP40       0.0152
      9  NE1       21.8240   19.1470   -1.6980 N.ar   40  TRP40      -0.2442
     10  CE2       22.4560   18.0100   -1.2920 C.ar   40  TRP40       0.0810
     11  CE3       22.9350   16.8990    0.8450 C.ar   40  TRP40       0.0012
     12  CZ2       23.0450   16.9900   -2.0240 C.ar   40  TRP40       0.0191
     13  CZ3       23.5730   15.8990    0.1120 C.ar   40  TRP40       0.0001
     14  CH2       23.6220   15.9340   -1.3040 C.ar   40  TRP40       0.0015
     15  N         24.7520   19.5820    1.8250 N.am   41  PRO41      -0.2718
     16  CA        25.9650   18.7580    2.0240 C.3    41  PRO41       0.1535
     17  C         26.8340   19.1950    3.1660 C.2    41  PRO41       0.2598
     18  O         27.6810   18.3830    3.5990 O.2    41  PRO41      -0.2715
     19  CB        26.7440   18.9300    0.6980 C.3    41  PRO41       0.0310
     20  CG        25.6840   19.3350   -0.2770 C.3    41  PRO41       0.0237
     21  CD        24.8620   20.3010    0.5470 C.3    41  PRO41       0.0939
     22  N         26.6210   20.4220    3.6580 N.am   42  PHE42      -0.1974
     23  CA        27.4590   21.0230    4.7010 C.3    42  PHE42       0.1639
     24  C         26.7810   20.9920    6.0660 C.2    42  PHE42       0.2290
     25  O         27.3540   21.4660    7.0420 O.2    42  PHE42      -0.2864
     26  CB        27.8200   22.4620    4.3230 C.3    42  PHE42       0.0560
     27  CG        28.4370   22.5760    2.9740 C.ar   42  PHE42      -0.0200
     28  CD1       29.8150   22.4330    2.8270 C.ar   42  PHE42      -0.0042
     29  CD2       27.6570   22.7100    1.8390 C.ar   42  PHE42      -0.0042
     30  CE1       30.3770   22.4630    1.5480 C.ar   42  PHE42      -0.0003
     31  CE2       28.2390   22.7810    0.5950 C.ar   42  PHE42      -0.0003
     32  CZ        29.5780   22.6300    0.4550 C.ar   42  PHE42      -0.0000
     33  N         26.0640   18.4740    8.0060 N.3    44  GLN44      -0.1245
     34  CA        26.5090   17.3960    8.9210 C.3    44  GLN44       0.1566
     35  C         27.8960   16.9520    8.4830 C.2    44  GLN44       0.2260
     36  O         28.3290   17.2810    7.3490 O.2    44  GLN44      -0.2867
     37  CB        25.5190   16.2350    8.9130 C.3    44  GLN44       0.0367
     38  CG        25.3140   15.5920    7.5520 C.3    44  GLN44       0.0905
     39  CD        24.5410   16.4450    6.5780 C.2    44  GLN44       0.2608
     40  OE1       23.3780   16.8380    6.8520 O.2    44  GLN44      -0.2717
     41  NE2       25.1430   16.7010    5.3980 N.am   44  GLN44      -0.0878
     42  N         31.0130   14.8960    6.9970 N.3    46  VAL46      -0.1245
     43  CA        31.1530   13.9800    5.8620 C.3    46  VAL46       0.1561
     44  C         31.1080   12.5340    6.3760 C.2    46  VAL46       0.2260
     45  O         31.8780   12.1440    7.2550 O.2    46  VAL46      -0.2867
     46  CB        32.3710   14.3040    4.9690 C.3    46  VAL46       0.0252
     47  CG1       32.5380   13.1990    3.8980 C.3    46  VAL46       0.0019
     48  CG2       32.1770   15.7210    4.3540 C.3    46  VAL46       0.0019
     49  N         29.1870    7.7940    1.6110 N.3    51  LEU51      -0.1245
     50  CA        29.5900    8.4000    0.3220 C.3    51  LEU51       0.1561
     51  C         30.6000    7.5660   -0.4900 C.2    51  LEU51       0.2260
     52  O         30.9430    7.9010   -1.6370 O.2    51  LEU51      -0.2867
     53  CB        30.0800    9.8370    0.5440 C.3    51  LEU51       0.0270
     54  CG        29.0110   10.8180    1.0000 C.3    51  LEU51       0.0019
     55  CD1       29.6240   12.1870    1.3660 C.3    51  LEU51       0.0001
     56  CD2       27.9060   10.9660   -0.0600 C.3    51  LEU51       0.0001
     57  N         33.9240    7.0320    0.1330 N.3    53  LEU53      -0.1245
     58  CA        35.1310    7.8160   -0.0830 C.3    53  LEU53       0.1561
     59  C         36.1960    7.3660    0.8920 C.2    53  LEU53       0.2260
     60  O         36.3720    7.9940    1.9500 O.2    53  LEU53      -0.2867
     61  CB        34.8700    9.3040    0.0950 C.3    53  LEU53       0.0270
     62  CG        33.7580    9.9270   -0.7310 C.3    53  LEU53       0.0019
     63  CD1       33.4350   11.3270   -0.1560 C.3    53  LEU53       0.0001
     64  CD2       34.0960   10.0250   -2.2090 C.3    53  LEU53       0.0001
     65  N         38.8620    9.9720    2.3220 N.3    56  TYR56      -0.1241
     66  CA        38.4660   11.3260    2.7240 C.3    56  TYR56       0.1605
     67  C         39.2230   11.7940    3.9570 C.2    56  TYR56       0.2264
     68  O         39.8090   12.9090    3.9940 O.2    56  TYR56      -0.2867
     69  CB        36.9350   11.4570    2.9290 C.3    56  TYR56       0.0534
     70  CG        36.5600   12.9000    3.2960 C.ar   56  TYR56      -0.0201
     71  CD1       36.4160   13.2970    4.6200 C.ar   56  TYR56      -0.0009
     72  CD2       36.4030   13.8690    2.3150 C.ar   56  TYR56      -0.0009
     73  CE1       36.1330   14.6250    4.9730 C.ar   56  TYR56       0.0417
     74  CE2       36.1320   15.2020    2.6430 C.ar   56  TYR56       0.0417
     75  CZ        35.9680   15.5770    3.9670 C.ar   56  TYR56       0.1957
     76  OH        35.6770   16.8770    4.2910 O.3    56  TYR56      -0.2866
     77  N         36.6760   21.5340    1.6320 N.3    95  CYS95      -0.1235
     78  CA        35.9280   21.2430    0.4120 C.3    95  CYS95       0.1677
     79  C         36.7970   21.5320   -0.8190 C.2    95  CYS95       0.2270
     80  O         36.8770   20.7270   -1.7410 O.2    95  CYS95      -0.2867
     81  CB        34.6560   22.1070    0.3440 C.3    95  CYS95       0.0956
     82  SG        33.5560   21.6550   -1.0200 S.3    95  CYS95      -0.0801
     83  N         39.7690   18.9060   -1.0600 N.3    98  TYR98      -0.1227
     84  CA        39.3700   17.5430   -1.3880 C.3    98  TYR98       0.1736
     85  C         38.8340   17.4220   -2.7960 C.2    98  TYR98       0.2595
     86  O         39.1950   16.4560   -3.4860 O.2    98  TYR98      -0.2718
     87  CB        38.3860   16.9410   -0.3840 C.3    98  TYR98       0.0548
     88  CG        38.1020   15.5150   -0.6840 C.ar   98  TYR98      -0.0200
     89  CD1       39.0170   14.5440   -0.3720 C.ar   98  TYR98      -0.0009
     90  CD2       36.9150   15.1350   -1.3260 C.ar   98  TYR98      -0.0009
     91  CE1       38.8060   13.2030   -0.6770 C.ar   98  TYR98       0.0417
     92  CE2       36.6870   13.7930   -1.6530 C.ar   98  TYR98       0.0417
     93  CZ        37.6280   12.8390   -1.3340 C.ar   98  TYR98       0.1957
     94  OH        37.3800   11.5180   -1.6800 O.3    98  TYR98      -0.2866
     95  N         38.0870   18.4380   -3.2660 N.am   99  ASN99      -0.1974
     96  CA        37.4660   18.3730   -4.5630 C.3    99  ASN99       0.1688
     97  C         38.1880   19.1590   -5.6540 C.2    99  ASN99       0.2292
     98  O         39.2540   19.6470   -5.4370 O.2    99  ASN99      -0.2864
     99  CB        35.9860   18.7640   -4.4270 C.3    99  ASN99       0.1181
    100  CG        35.2710   17.9150   -3.3820 C.2    99  ASN99       0.2629
    101  OD1       34.9360   16.7570   -3.6610 O.2    99  ASN99      -0.2716
    102  ND2       35.1010   18.4460   -2.1630 N.am   99  ASN99      -0.0877
    103  N         30.5820   20.4840   -8.8780 N.3   104  ASP104     -0.1225
    104  CA        29.3650   20.9900   -8.2800 C.3   104  ASP104      0.1805
    105  C         29.5220   21.2830   -6.7550 C.2   104  ASP104      0.2597
    106  O         29.0860   22.3530   -6.3060 O.2   104  ASP104     -0.2718
    107  CB        28.1630   20.0460   -8.4350 C.3   104  ASP104      0.1424
    108  CG        27.6220   19.9680   -9.8490 C.2   104  ASP104      0.3668
    109  OD1       27.9710   20.7500  -10.7420 O.co2 104  ASP104     -0.2456
    110  OD2       26.8380   19.0310  -10.0650 O.co2 104  ASP104     -0.2456
    111  N         30.1470   20.3680   -5.9870 N.am  105  ILE105     -0.1980
    112  CA        30.2890   20.6130   -4.5390 C.3   105  ILE105      0.1595
    113  C         31.1160   21.8920   -4.2480 C.2   105  ILE105      0.2287
    114  O         30.8340   22.6200   -3.2840 O.2   105  ILE105     -0.2864
    115  CB        30.8230   19.3750   -3.7920 C.3   105  ILE105      0.0276
    116  CG1       30.6290   19.5170   -2.2670 C.3   105  ILE105      0.0022
    117  CG2       32.2510   18.9810   -4.2090 C.3   105  ILE105      0.0022
    118  CD1       29.1890   19.5260   -1.8260 C.3   105  ILE105      0.0001
    119  N         28.9360   24.9440   -4.9580 N.3   108  MET108     -0.1245
    120  CA        28.0600   25.0390   -3.8220 C.3   108  MET108      0.1570
    121  C         28.7450   25.6830   -2.5930 C.2   108  MET108      0.2261
    122  O         28.1940   26.6470   -2.0100 O.2   108  MET108     -0.2867
    123  CB        27.4590   23.6640   -3.4820 C.3   108  MET108      0.0387
    124  CG        26.5440   23.1060   -4.5530 C.3   108  MET108      0.0595
    125  SD        26.0920   21.4040   -4.2570 S.3   108  MET108     -0.1393
    126  CE        24.7160   21.6290   -3.1420 C.3   108  MET108      0.0692
@<TRIPOS>BOND
     1   109   108   ar
     2   110   108   ar
     3   108   107    1
     4   103   104    1
     5   107   104    1
     6   104   105    1
     7   105   106    2
     8   105   111   am
     9   111   112    1
    10    97    98    2
    11    97    96    1
    12   119   120    1
    13    96    99    1
    14    96    95    1
    15   124   125    1
    16   124   123    1
    17   112   113    1
    18   112   115    1
    19    99   100    1
    20   125   126    1
    21   113   114    2
    22   117   115    1
    23   120   123    1
    24   120   121    1
    25   115   116    1
    26   101   100    2
    27    86    85    2
    28   100   102   am
    29    95    85   am
    30    85    84    1
    31   121   122    2
    32   116   118    1
    33    64    62    1
    34    12    14   ar
    35    12    10   ar
    36    80    79    2
    37     9    10   ar
    38     9     7   ar
    39    94    93    1
    40    92    93   ar
    41    92    90   ar
    42    52    51    2
    43    84    83    1
    44    84    87    1
    45    93    91   ar
    46    90    88   ar
    47    14    13   ar
    48    10     8   ar
    49    82    81    1
    50    79    78    1
    51    62    63    1
    52    62    61    1
    53    88    87    1
    54    88    89   ar
    55    91    89   ar
    56     7     6   ar
    57    51    50    1
    58    20    21    1
    59    20    19    1
    60    58    61    1
    61    58    57    1
    62    58    59    1
    63    56    54    1
    64    13    11   ar
    65     8     6   ar
    66     8    11   ar
    67    50    53    1
    68    50    49    1
    69    81    78    1
    70    78    77    1
    71    32    31   ar
    72    32    30   ar
    73    53    54    1
    74    21    15    1
    75     6     5    1
    76    31    29   ar
    77    19    16    1
    78    59    60    2
    79    54    55    1
    80    30    28   ar
    81    15    16    1
    82    15     3   am
    83    29    27   ar
    84     5     2    1
    85    16    17    1
    86     1     2    1
    87    72    74   ar
    88    72    70   ar
    89    65    66    1
    90    74    75   ar
    91     2     3    1
    92    66    69    1
    93    66    67    1
    94     3     4    2
    95    28    27   ar
    96    69    70    1
    97    27    26    1
    98    17    18    2
    99    17    22   am
   100    70    71   ar
   101    22    23    1
   102    47    46    1
   103    67    68    2
   104    75    76    1
   105    75    73   ar
   106    26    23    1
   107    48    46    1
   108    71    73   ar
   109    23    24    1
   110    46    43    1
   111    41    39   am
   112    43    44    1
   113    43    42    1
   114    24    25    2
   115    44    45    2
   116    39    40    2
   117    39    38    1
   118    36    35    2
   119    38    37    1
   120    33    34    1
   121    35    34    1
   122    37    34    1
