@<TRIPOS>MOLECULE
tmp/4j0tA00.pdb
 207 196 0 0 0
SMALL
GASTEIGER

@<TRIPOS>ATOM
      1  N        -28.0180  -44.4930    3.2390 N.3    15  SER15      -0.1202
      2  CA       -27.2150  -45.6610    2.8130 C.3    15  SER15       0.2020
      3  C        -27.1440  -45.7530    1.3280 C.2    15  SER15       0.2619
      4  O        -28.1770  -45.6530    0.6080 O.2    15  SER15      -0.2717
      5  CB       -27.7640  -47.0130    3.3290 C.3    15  SER15       0.2103
      6  OG       -27.8250  -46.9780    4.7340 O.3    15  SER15      -0.2182
      7  N        -25.9020  -45.9290    0.9090 N.am   16  GLY16      -0.1942
      8  CA       -25.5020  -46.0230   -0.4630 C.3    16  GLY16       0.2014
      9  C        -25.5820  -44.7800   -1.3160 C.2    16  GLY16       0.2639
     10  O        -25.4340  -44.9150   -2.5340 O.2    16  GLY16      -0.2714
     11  N        -25.9290  -43.6030   -0.7630 N.am   17  GLN17      -0.1963
     12  CA       -26.0530  -42.4240   -1.6520 C.3    17  GLN17       0.1733
     13  C        -24.9940  -41.3760   -1.3140 C.2    17  GLN17       0.2617
     14  O        -24.9580  -40.3300   -1.9180 O.2    17  GLN17      -0.2715
     15  CB       -27.4010  -41.8090   -1.4670 C.3    17  GLN17       0.0408
     16  CG       -28.5240  -42.7280   -1.9430 C.3    17  GLN17       0.0908
     17  CD       -29.8750  -42.0180   -1.9380 C.2    17  GLN17       0.2608
     18  OE1      -30.0850  -41.0090   -1.2500 O.2    17  GLN17      -0.2717
     19  NE2      -30.7700  -42.5100   -2.7200 N.am   17  GLN17      -0.0878
     20  N        -24.1360  -41.6450   -0.3410 N.am   18  GLY18      -0.1940
     21  CA       -22.9740  -40.7330   -0.0750 C.3    18  GLY18       0.2014
     22  C        -23.2330  -39.7420    1.0350 C.2    18  GLY18       0.2638
     23  O        -24.3670  -39.6540    1.6060 O.2    18  GLY18      -0.2714
     24  N        -22.2070  -39.0050    1.4030 N.am   19  TYR19      -0.1973
     25  CA       -22.2940  -38.1130    2.5470 C.3    19  TYR19       0.1639
     26  C        -22.2270  -36.7310    2.0020 C.2    19  TYR19       0.2290
     27  O        -21.3500  -36.4100    1.1760 O.2    19  TYR19      -0.2864
     28  CB       -21.0700  -38.3670    3.4590 C.3    19  TYR19       0.0560
     29  CG       -21.1380  -39.6810    4.1610 C.ar   19  TYR19      -0.0198
     30  CD1      -20.7320  -40.8370    3.5270 C.ar   19  TYR19      -0.0009
     31  CD2      -21.6120  -39.7630    5.4890 C.ar   19  TYR19      -0.0009
     32  CE1      -20.7950  -42.0490    4.1690 C.ar   19  TYR19       0.0417
     33  CE2      -21.6640  -40.9910    6.1410 C.ar   19  TYR19       0.0417
     34  CZ       -21.2730  -42.1280    5.4410 C.ar   19  TYR19       0.1957
     35  OH       -21.3060  -43.4000    6.0180 O.3    19  TYR19      -0.2866
     36  N        -22.3260  -33.2680   -1.9910 N.3    35  LEU35      -0.1245
     37  CA       -21.6190  -34.5430   -1.7400 C.3    35  LEU35       0.1561
     38  C        -20.1350  -34.2740   -1.4180 C.2    35  LEU35       0.2260
     39  O        -19.4520  -33.5300   -2.1620 O.2    35  LEU35      -0.2867
     40  CB       -21.7040  -35.4130   -2.9880 C.3    35  LEU35       0.0270
     41  CG       -20.9630  -36.7580   -2.8470 C.3    35  LEU35       0.0019
     42  CD1      -21.8640  -37.7400   -2.0450 C.3    35  LEU35       0.0001
     43  CD2      -20.7060  -37.3650   -4.2380 C.3    35  LEU35       0.0001
     44  N        -16.3940  -35.2260   -1.5820 N.3    37  ASP37      -0.1239
     45  CA       -15.6760  -36.2040   -2.4770 C.3    37  ASP37       0.1674
     46  C        -14.1790  -35.9950   -2.4660 C.2    37  ASP37       0.2266
     47  O        -13.6490  -35.0850   -3.1320 O.2    37  ASP37      -0.2867
     48  CB       -16.2210  -36.0820   -3.9110 C.3    37  ASP37       0.1410
     49  CG       -15.6310  -37.1480   -4.8520 C.2    37  ASP37       0.3668
     50  OD1      -15.0720  -38.1580   -4.3580 O.co2  37  ASP37      -0.2456
     51  OD2      -15.7570  -36.9700   -6.0590 O.co2  37  ASP37      -0.2456
     52  N        -12.1360  -37.9270   -3.8150 N.3    39  GLY39      -0.1210
     53  CA       -11.5710  -38.4980   -5.0400 C.3    39  GLY39       0.1956
     54  C        -11.7570  -37.5830   -6.2970 C.2    39  GLY39       0.2612
     55  O        -11.5200  -38.0250   -7.4010 O.2    39  GLY39      -0.2717
     56  N        -12.0930  -36.3010   -6.1430 N.am   40  SER40      -0.1952
     57  CA       -12.0990  -35.3520   -7.2890 C.3    40  SER40       0.1924
     58  C        -11.7820  -33.9580   -6.8100 C.2    40  SER40       0.2314
     59  O        -11.6570  -33.7680   -5.6190 O.2    40  SER40      -0.2863
     60  CB       -13.4600  -35.3530   -8.0670 C.3    40  SER40       0.2116
     61  OG       -14.5130  -34.8980   -7.1650 O.3    40  SER40      -0.2180
     62  N        -17.0680  -39.3660  -17.2630 N.3    76  TYR76      -0.1241
     63  CA       -16.5830  -40.3450  -16.2860 C.3    76  TYR76       0.1605
     64  C        -16.8270  -41.6730  -16.9670 C.2    76  TYR76       0.2264
     65  O        -17.5450  -41.7240  -17.9740 O.2    76  TYR76      -0.2867
     66  CB       -17.4880  -40.2990  -15.0120 C.3    76  TYR76       0.0534
     67  CG       -17.2390  -39.0580  -14.2580 C.ar   76  TYR76      -0.0201
     68  CD1      -15.9430  -38.8090  -13.8780 C.ar   76  TYR76      -0.0009
     69  CD2      -18.2410  -38.0780  -13.9830 C.ar   76  TYR76      -0.0009
     70  CE1      -15.5680  -37.6640  -13.2060 C.ar   76  TYR76       0.0417
     71  CE2      -17.8610  -36.9090  -13.2520 C.ar   76  TYR76       0.0417
     72  CZ       -16.5020  -36.7360  -12.8940 C.ar   76  TYR76       0.1957
     73  OH       -15.8790  -35.7010  -12.2160 O.3    76  TYR76      -0.2866
     74  N        -18.9860  -44.1890  -16.1550 N.3    78  GLN78      -0.1245
     75  CA       -20.3920  -44.0480  -16.5510 C.3    78  GLN78       0.1566
     76  C        -20.8390  -42.6020  -16.3130 C.2    78  GLN78       0.2260
     77  O        -20.4870  -41.9740  -15.3080 O.2    78  GLN78      -0.2867
     78  CB       -21.2800  -45.0860  -15.8600 C.3    78  GLN78       0.0367
     79  CG       -22.4340  -44.5360  -15.0150 C.3    78  GLN78       0.0905
     80  CD       -22.0210  -44.1630  -13.5830 C.2    78  GLN78       0.2608
     81  OE1      -21.0770  -44.7320  -13.0230 O.2    78  GLN78      -0.2717
     82  NE2      -22.7420  -43.2150  -12.9830 N.am   78  GLN78      -0.0878
     83  N        -26.3860  -39.6900  -15.7370 N.3   112  LYS112     -0.1231
     84  CA       -25.9820  -40.6480  -14.7010 C.3   112  LYS112      0.1693
     85  C        -25.1490  -40.0460  -13.6600 C.2   112  LYS112      0.2592
     86  O        -24.2250  -40.6820  -13.1620 O.2   112  LYS112     -0.2718
     87  CB       -25.2570  -41.8940  -15.2850 C.3   112  LYS112      0.0285
     88  CG       -26.1480  -42.5330  -16.3430 C.3   112  LYS112      0.0035
     89  CD       -25.7600  -43.9220  -16.8000 C.3   112  LYS112      0.0206
     90  CE       -27.0920  -44.4700  -17.2710 C.3   112  LYS112      0.1093
     91  NZ       -26.8640  -45.5620  -18.2100 N.3   112  LYS112     -0.1314
     92  N        -25.3890  -38.7920  -13.3560 N.am  113  PHE113     -0.1976
     93  CA       -24.4920  -38.1160  -12.4120 C.3   113  PHE113      0.1639
     94  C        -25.3010  -37.9670  -11.0970 C.2   113  PHE113      0.2290
     95  O        -24.8200  -38.3630  -10.0110 O.2   113  PHE113     -0.2864
     96  CB       -24.0840  -36.7320  -12.9820 C.3   113  PHE113      0.0560
     97  CG       -23.2960  -35.8960  -12.0210 C.ar  113  PHE113     -0.0200
     98  CD1      -21.9700  -36.2590  -11.6530 C.ar  113  PHE113     -0.0042
     99  CD2      -23.8550  -34.7390  -11.4570 C.ar  113  PHE113     -0.0042
    100  CE1      -21.2320  -35.4910  -10.7550 C.ar  113  PHE113     -0.0003
    101  CE2      -23.0990  -33.9930  -10.5570 C.ar  113  PHE113     -0.0003
    102  CZ       -21.8020  -34.3640  -10.2040 C.ar  113  PHE113     -0.0000
    103  N        -28.3680  -38.6620   -8.4610 N.3   115  ILE115     -0.1245
    104  CA       -29.0720  -39.9220   -8.0880 C.3   115  ILE115      0.1561
    105  C        -30.5450  -39.6110   -7.8030 C.2   115  ILE115      0.2260
    106  O        -30.8780  -38.7110   -6.9670 O.2   115  ILE115     -0.2867
    107  CB       -28.4010  -40.5660   -6.8160 C.3   115  ILE115      0.0252
    108  CG1      -26.9330  -40.9410   -7.0600 C.3   115  ILE115      0.0019
    109  CG2      -29.2290  -41.7620   -6.3300 C.3   115  ILE115      0.0019
    110  CD1      -26.1610  -41.3040   -5.7450 C.3   115  ILE115      0.0001
    111  N        -28.7760  -34.5810   -2.4120 N.3   120  TRP120     -0.1241
    112  CA       -27.6930  -33.6590   -2.6960 C.3   120  TRP120      0.1605
    113  C        -27.7430  -33.2200   -4.1310 C.2   120  TRP120      0.2264
    114  O        -28.3830  -33.8830   -5.0110 O.2   120  TRP120     -0.2867
    115  CB       -26.3030  -34.2320   -2.3130 C.3   120  TRP120      0.0550
    116  CG       -25.9800  -35.5780   -2.9600 C.ar  120  TRP120      0.0003
    117  CD1      -26.1090  -36.8280   -2.3750 C.ar  120  TRP120      0.0946
    118  CD2      -25.4200  -35.8260   -4.3110 C.ar  120  TRP120      0.0152
    119  NE1      -25.6460  -37.8020   -3.2540 N.ar  120  TRP120     -0.2442
    120  CE2      -25.2550  -37.2350   -4.4400 C.ar  120  TRP120      0.0810
    121  CE3      -25.0430  -34.9970   -5.3930 C.ar  120  TRP120      0.0012
    122  CZ2      -24.7060  -37.8390   -5.6120 C.ar  120  TRP120      0.0191
    123  CZ3      -24.5330  -35.6040   -6.5790 C.ar  120  TRP120      0.0001
    124  CH2      -24.3500  -37.0130   -6.6570 C.ar  120  TRP120      0.0015
    125  N        -21.2670  -31.4660   -6.0480 N.3   123  ILE123     -0.1245
    126  CA       -20.1480  -32.2450   -5.4840 C.3   123  ILE123      0.1561
    127  C        -19.0320  -31.3160   -5.1010 C.2   123  ILE123      0.2260
    128  O        -18.7200  -30.2940   -5.8050 O.2   123  ILE123     -0.2867
    129  CB       -19.7330  -33.3210   -6.5350 C.3   123  ILE123      0.0252
    130  CG1      -18.5710  -34.1450   -6.0380 C.3   123  ILE123      0.0019
    131  CG2      -19.1830  -32.6160   -7.7530 C.3   123  ILE123      0.0019
    132  CD1      -18.3250  -35.3820   -6.9250 C.3   123  ILE123      0.0001
    133  N        -27.3730  -42.0810    7.2970 N.3   166  VAL166     -0.1245
    134  CA       -26.0110  -42.1400    7.7940 C.3   166  VAL166      0.1561
    135  C        -25.6740  -40.7040    8.2340 C.2   166  VAL166      0.2260
    136  O        -26.4430  -39.7640    7.9490 O.2   166  VAL166     -0.2867
    137  CB       -25.0260  -42.7080    6.7300 C.3   166  VAL166      0.0252
    138  CG1      -25.3280  -44.1670    6.4610 C.3   166  VAL166      0.0019
    139  CG2      -25.0710  -41.9140    5.4290 C.3   166  VAL166      0.0019
    140  N        -10.7660  -42.2770   -1.0120 N.3   224  ASP224     -0.1225
    141  CA       -11.8970  -41.6340   -1.8440 C.3   224  ASP224      0.1805
    142  C        -13.3110  -41.6840   -1.1820 C.2   224  ASP224      0.2598
    143  O        -13.9750  -42.7160   -1.2910 O.2   224  ASP224     -0.2718
    144  CB       -12.0170  -42.3600   -3.1930 C.3   224  ASP224      0.1424
    145  CG       -12.9310  -41.6660   -4.1240 C.2   224  ASP224      0.3668
    146  OD1      -13.5090  -40.5980   -3.7200 O.co2 224  ASP224     -0.2456
    147  OD2      -13.0900  -42.1680   -5.2440 O.co2 224  ASP224     -0.2456
    148  N        -13.7960  -40.5800   -0.5930 N.am  225  SER225     -0.1938
    149  CA       -15.0620  -40.5930    0.1210 C.3   225  SER225      0.2055
    150  C        -16.2460  -40.6740   -0.8710 C.2   225  SER225      0.2644
    151  O        -17.3770  -40.9080   -0.4560 O.2   225  SER225     -0.2714
    152  CB       -15.1710  -39.3690    1.0130 C.3   225  SER225      0.2130
    153  OG       -15.1480  -38.1980    0.2110 O.3   225  SER225     -0.2179
    154  N        -15.9430  -40.4920   -2.1630 N.am  226  GLY226     -0.1939
    155  CA       -16.9710  -40.4140   -3.2490 C.3   226  GLY226      0.2014
    156  C        -17.1630  -41.7600   -3.9430 C.2   226  GLY226      0.2640
    157  O        -17.8620  -41.8270   -4.9430 O.2   226  GLY226     -0.2714
    158  N        -16.5870  -42.8380   -3.3820 N.am  227  THR227     -0.1936
    159  CA       -16.7560  -44.2390   -3.8450 C.3   227  THR227      0.2028
    160  C        -17.2520  -45.1010   -2.6420 C.2   227  THR227      0.2642
    161  O        -16.7980  -44.9230   -1.4880 O.2   227  THR227     -0.2714
    162  CB       -15.3630  -44.7810   -4.3250 C.3   227  THR227      0.1808
    163  OG1      -14.8880  -43.9950   -5.4430 O.3   227  THR227     -0.2208
    164  CG2      -15.4010  -46.2130   -4.6690 C.3   227  THR227      0.0379
    165  N        -18.2130  -45.9720   -2.8620 N.am  228  THR228     -0.1950
    166  CA       -18.7110  -46.8170   -1.7750 C.3   228  THR228      0.1897
    167  C        -17.6960  -47.9140   -1.4640 C.2   228  THR228      0.2313
    168  O        -17.3310  -48.1520   -0.3140 O.2   228  THR228     -0.2863
    169  CB       -20.0070  -47.5570   -2.2520 C.3   228  THR228      0.1794
    170  OG1      -20.9890  -46.5730   -2.5070 O.3   228  THR228     -0.2208
    171  CG2      -20.5710  -48.4690   -1.1770 C.3   228  THR228      0.0378
    172  N        -12.2530  -50.9400   -3.6160 N.3   231  ARG231     -0.1245
    173  CA       -11.8930  -51.4750   -4.9130 C.3   231  ARG231      0.1563
    174  C        -10.4360  -51.9550   -4.8760 C.2   231  ARG231      0.2260
    175  O         -9.5610  -51.2590   -4.3200 O.2   231  ARG231     -0.2867
    176  CB       -12.0950  -50.4060   -6.0010 C.3   231  ARG231      0.0307
    177  CG       -13.5540  -49.8860   -5.9540 C.3   231  ARG231      0.0489
    178  CD       -14.2050  -49.8300   -7.3260 C.3   231  ARG231      0.2205
    179  NE       -13.3710  -49.1180   -8.2510 N.pl3 231  ARG231     -0.0865
    180  CZ       -13.7010  -47.9560   -8.7920 C.cat 231  ARG231      0.5346
    181  NH1      -12.8560  -47.3540   -9.6250 N.pl3 231  ARG231      0.1354
    182  NH2      -14.8800  -47.4190   -8.5020 N.pl3 231  ARG231      0.1354
    183  N        -22.5920  -54.8400    2.9140 N.3   303  ARG303     -0.1245
    184  CA       -23.3730  -53.6160    3.1360 C.3   303  ARG303      0.1563
    185  C        -24.8340  -53.9430    3.0310 C.2   303  ARG303      0.2260
    186  O        -25.2450  -54.6330    2.0900 O.2   303  ARG303     -0.2867
    187  CB       -23.1180  -52.5250    2.1210 C.3   303  ARG303      0.0307
    188  CG       -21.7890  -52.5150    1.4610 C.3   303  ARG303      0.0489
    189  CD       -20.8850  -51.4470    2.0130 C.3   303  ARG303      0.2205
    190  NE       -21.5620  -50.1750    2.2370 N.pl3 303  ARG303     -0.0865
    191  CZ       -21.0430  -49.2200    3.0210 C.cat 303  ARG303      0.5346
    192  NH1      -19.8310  -49.4070    3.6310 N.pl3 303  ARG303      0.1354
    193  NH2      -21.6960  -48.0890    3.1910 N.pl3 303  ARG303      0.1354
    194  N        -15.8790  -45.6210    0.9630 N.3   331  ALA331     -0.1245
    195  CA       -16.6050  -45.5630    2.2370 C.3   331  ALA331      0.1562
    196  C        -16.4750  -46.8370    3.0860 C.2   331  ALA331      0.2260
    197  O        -16.5650  -46.7720    4.2930 O.2   331  ALA331     -0.2867
    198  CB       -18.0600  -45.2250    2.0440 C.3   331  ALA331      0.0290
    199  N        -15.5370  -45.6520    6.7340 N.3   335  GLU335     -0.1245
    200  CA       -16.4770  -45.8390    7.8260 C.3   335  GLU335      0.1567
    201  C        -15.8380  -46.6300    9.0020 C.2   335  GLU335      0.2260
    202  O        -16.3650  -46.6350   10.0580 O.2   335  GLU335     -0.2867
    203  CB       -17.7590  -46.5390    7.3520 C.3   335  GLU335      0.0388
    204  CG       -18.4420  -45.7790    6.2410 C.3   335  GLU335      0.1160
    205  CD       -19.7430  -46.4300    5.7330 C.2   335  GLU335      0.3649
    206  OE1      -20.0580  -47.6030    6.0740 O.co2 335  GLU335     -0.2457
    207  OE2      -20.4770  -45.7170    4.9860 O.co2 335  GLU335     -0.2457
@<TRIPOS>BOND
     1    91    90    1
     2    65    64    2
     3    90    89    1
     4    62    63    1
     5    64    63    1
     6    89    88    1
     7    75    76    1
     8    75    74    1
     9    75    78    1
    10    88    87    1
    11    76    77    2
    12    63    66    1
    13    78    79    1
    14    83    84    1
    15    87    84    1
    16    79    80    1
    17    66    67    1
    18    84    85    1
    19    67    69   ar
    20    67    68   ar
    21    69    71   ar
    22    68    70   ar
    23    85    92   am
    24    85    86    2
    25    80    81    2
    26    80    82   am
    27    92    93    1
    28    71    72   ar
    29    70    72   ar
    30    96    93    1
    31    96    97    1
    32    72    73    1
    33    93    94    1
    34    97    98   ar
    35    97    99   ar
    36    98   100   ar
    37    99   101   ar
    38    94    95    2
    39   100   102   ar
    40   101   102   ar
    41   181   180    1
    42   180   182    1
    43   180   179    2
    44   103   104    1
    45   179   178    1
    46   104   105    1
    47   104   107    1
    48    60    57    1
    49    60    61    1
    50   105   106    2
    51   131   129    1
    52    55    54    2
    53   178   177    1
    54    57    58    1
    55    57    56    1
    56   108   107    1
    57   108   110    1
    58   132   130    1
    59   107   109    1
    60    58    59    2
    61   124   123   ar
    62   124   122   ar
    63   123   121   ar
    64   129   130    1
    65   129   126    1
    66    54    56   am
    67    54    53    1
    68    51    49   ar
    69   125   126    1
    70   176   177    1
    71   176   173    1
    72   128   127    2
    73   122   120   ar
    74   126   127    1
    75   163   162    1
    76   121   118   ar
    77   147   145   ar
    78    53    52    1
    79   114   113    2
    80   157   156    2
    81   173   174    1
    82   173   172    1
    83   174   175    2
    84    49    50   ar
    85    49    48    1
    86   164   162    1
    87   120   118   ar
    88   120   119   ar
    89   162   159    1
    90   118   116   ar
    91    43    41    1
    92   113   112    1
    93   145   146   ar
    94   145   144    1
    95   156   158   am
    96   156   155    1
    97    48    45    1
    98   159   158    1
    99   159   160    1
   100   119   117   ar
   101   155   154    1
   102   144   141    1
   103    47    46    2
   104    40    41    1
   105    40    37    1
   106   116   117   ar
   107   116   115    1
   108   165   160   am
   109   165   166    1
   110    41    42    1
   111    19    17   am
   112   112   111    1
   113   112   115    1
   114   160   161    2
   115    10     9    2
   116   170   169    1
   117    45    46    1
   118    45    44    1
   119   169   166    1
   120   169   171    1
   121   154   150   am
   122    39    38    2
   123    36    37    1
   124    16    17    1
   125    16    15    1
   126    17    18    2
   127    14    13    2
   128   141   142    1
   129   141   140    1
   130   166   167    1
   131    37    38    1
   132    12    15    1
   133    12    13    1
   134    12    11    1
   135   167   168    2
   136     9    11   am
   137     9     8    1
   138    13    20   am
   139   143   142    2
   140   142   148   am
   141   150   151    2
   142   150   149    1
   143   148   149    1
   144     8     7    1
   145    20    21    1
   146    21    22    1
   147   149   152    1
   148   153   152    1
   149     4     3    2
   150     7     3   am
   151   194   195    1
   152    22    24   am
   153    22    23    2
   154    27    26    2
   155     3     2    1
   156    24    25    1
   157   188   189    1
   158   188   187    1
   159    26    25    1
   160   189   190    1
   161   198   195    1
   162   186   185    2
   163   187   184    1
   164   195   196    1
   165   190   191    2
   166    25    28    1
   167     2     1    1
   168     2     5    1
   169   183   184    1
   170   191   193    1
   171   191   192    1
   172   185   184    1
   173   196   197    2
   174     5     6    1
   175    28    29    1
   176    30    29   ar
   177    30    32   ar
   178    29    31   ar
   179    32    34   ar
   180   207   205   ar
   181   139   137    1
   182    34    35    1
   183    34    33   ar
   184    31    33   ar
   185   205   206   ar
   186   205   204    1
   187   204   203    1
   188   138   137    1
   189   137   134    1
   190   199   200    1
   191   133   134    1
   192   203   200    1
   193   134   135    1
   194   200   201    1
   195   136   135    2
   196   201   202    2
