@<TRIPOS>MOLECULE
tmp/4j0zA00.pdb
 185 176 0 0 0
SMALL
GASTEIGER

@<TRIPOS>ATOM
      1  N         25.2960   46.2470    0.6650 N.3    16  GLY16      -0.1210
      2  CA        25.1950   46.3710   -0.7920 C.3    16  GLY16       0.1956
      3  C         25.1890   45.0400   -1.5240 C.2    16  GLY16       0.2612
      4  O         25.0300   45.0220   -2.7210 O.2    16  GLY16      -0.2717
      5  N         25.4110   43.9010   -0.8650 N.am   17  GLN17      -0.1965
      6  CA        25.4640   42.7020   -1.6810 C.3    17  GLN17       0.1733
      7  C         24.3800   41.7170   -1.3370 C.2    17  GLN17       0.2617
      8  O         24.3810   40.6720   -1.8860 O.2    17  GLN17      -0.2715
      9  CB        26.8470   42.0290   -1.5930 C.3    17  GLN17       0.0408
     10  CG        27.9510   42.9140   -2.1270 C.3    17  GLN17       0.0908
     11  CD        29.3110   42.3240   -1.8790 C.2    17  GLN17       0.2608
     12  OE1       29.4700   41.3990   -1.0820 O.2    17  GLN17      -0.2717
     13  NE2       30.3190   42.8520   -2.5750 N.am   17  GLN17      -0.0878
     14  N         23.4550   42.0270   -0.4120 N.am   18  GLY18      -0.1940
     15  CA        22.2740   41.1520   -0.1950 C.3    18  GLY18       0.2014
     16  C         22.5440   40.1900    0.9320 C.2    18  GLY18       0.2638
     17  O         23.6550   40.1720    1.4770 O.2    18  GLY18      -0.2714
     18  N         21.5370   39.3850    1.2650 N.am   19  TYR19      -0.1973
     19  CA        21.6260   38.4140    2.3530 C.3    19  TYR19       0.1639
     20  C         21.5240   37.0370    1.7660 C.2    19  TYR19       0.2290
     21  O         20.5900   36.7690    0.9910 O.2    19  TYR19      -0.2864
     22  CB        20.3960   38.6540    3.2470 C.3    19  TYR19       0.0560
     23  CG        20.4430   40.0320    3.9530 C.ar   19  TYR19      -0.0198
     24  CD1       20.0250   41.2230    3.2690 C.ar   19  TYR19      -0.0009
     25  CD2       20.8800   40.1420    5.2910 C.ar   19  TYR19      -0.0009
     26  CE1       20.0760   42.4540    3.8990 C.ar   19  TYR19       0.0417
     27  CE2       20.9070   41.3680    5.9250 C.ar   19  TYR19       0.0417
     28  CZ        20.4870   42.4950    5.2400 C.ar   19  TYR19       0.1957
     29  OH        20.5340   43.6940    5.8630 O.3    19  TYR19      -0.2866
     30  N         21.5970   33.6560   -2.3260 N.3    35  LEU35      -0.1245
     31  CA        20.9000   34.8870   -2.0400 C.3    35  LEU35       0.1561
     32  C         19.3990   34.6040   -1.8230 C.2    35  LEU35       0.2260
     33  O         18.7430   33.9090   -2.6170 O.2    35  LEU35      -0.2867
     34  CB        21.0480   35.8930   -3.2210 C.3    35  LEU35       0.0270
     35  CG        20.3060   37.2020   -2.9960 C.3    35  LEU35       0.0019
     36  CD1       21.2580   38.1360   -2.2820 C.3    35  LEU35       0.0001
     37  CD2       19.8940   37.8210   -4.3120 C.3    35  LEU35       0.0001
     38  N         15.7210   35.6730   -2.0030 N.3    37  ASP37      -0.1239
     39  CA        15.0470   36.6780   -2.8390 C.3    37  ASP37       0.1674
     40  C         13.5380   36.4650   -2.7960 C.2    37  ASP37       0.2266
     41  O         12.9900   35.5830   -3.4490 O.2    37  ASP37      -0.2867
     42  CB        15.6200   36.6020   -4.2720 C.3    37  ASP37       0.1410
     43  CG        15.0240   37.6360   -5.2340 C.2    37  ASP37       0.3668
     44  OD1       14.3650   38.6090   -4.7750 O.co2  37  ASP37      -0.2456
     45  OD2       15.2990   37.5170   -6.4740 O.co2  37  ASP37      -0.2456
     46  N         11.4910   38.3400   -4.1520 N.3    39  GLY39      -0.1210
     47  CA        10.9160   38.9430   -5.3800 C.3    39  GLY39       0.1956
     48  C         11.0630   38.0930   -6.6530 C.2    39  GLY39       0.2612
     49  O         10.8640   38.6090   -7.7480 O.2    39  GLY39      -0.2717
     50  N         11.4090   36.7970   -6.5340 N.am   40  SER40      -0.1952
     51  CA        11.5300   35.9410   -7.7090 C.3    40  SER40       0.1924
     52  C         11.2010   34.5160   -7.2620 C.2    40  SER40       0.2314
     53  O         11.0160   34.3000   -6.0860 O.2    40  SER40      -0.2863
     54  CB        12.9560   36.0530   -8.2820 C.3    40  SER40       0.2116
     55  OG        13.9730   35.5390   -7.3820 O.3    40  SER40      -0.2180
     56  N         16.6580   40.1430  -17.0460 N.3    76  TYR76      -0.1241
     57  CA        15.9890   41.0780  -16.1310 C.3    76  TYR76       0.1605
     58  C         16.2500   42.4680  -16.7000 C.2    76  TYR76       0.2264
     59  O         16.9780   42.6180  -17.6960 O.2    76  TYR76      -0.2867
     60  CB        16.5880   40.9950  -14.7290 C.3    76  TYR76       0.0534
     61  CG        16.6570   39.5930  -14.1020 C.ar   76  TYR76      -0.0201
     62  CD1       15.4770   38.9220  -13.6230 C.ar   76  TYR76      -0.0009
     63  CD2       17.8880   38.9560  -13.9540 C.ar   76  TYR76      -0.0009
     64  CE1       15.5420   37.6340  -13.0430 C.ar   76  TYR76       0.0417
     65  CE2       17.9570   37.7090  -13.3520 C.ar   76  TYR76       0.0417
     66  CZ        16.7900   37.0710  -12.8850 C.ar   76  TYR76       0.1957
     67  OH        16.9250   35.8300  -12.2880 O.3    76  TYR76      -0.2866
     68  N         18.1690   44.6040  -15.2990 N.3    78  GLN78      -0.1245
     69  CA        19.6060   44.6210  -15.1850 C.3    78  GLN78       0.1566
     70  C         20.0560   43.1630  -15.3690 C.2    78  GLN78       0.2260
     71  O         19.7490   42.2900  -14.5200 O.2    78  GLN78      -0.2867
     72  CB        20.0530   45.1920  -13.8160 C.3    78  GLN78       0.0367
     73  CG        21.5500   44.9210  -13.4850 C.3    78  GLN78       0.0905
     74  CD        22.1530   45.8400  -12.4240 C.2    78  GLN78       0.2608
     75  OE1       23.0440   46.6360  -12.7050 O.2    78  GLN78      -0.2717
     76  NE2       21.6670   45.7350  -11.2090 N.am   78  GLN78      -0.0878
     77  N         26.1170   40.4850  -15.8020 N.3   112  LYS112     -0.1231
     78  CA        25.7060   41.5740  -14.8610 C.3   112  LYS112      0.1693
     79  C         24.7610   40.9770  -13.8360 C.2   112  LYS112      0.2592
     80  O         23.8190   41.6050  -13.4500 O.2   112  LYS112     -0.2718
     81  CB        25.1310   42.8640  -15.6060 C.3   112  LYS112      0.0285
     82  CG        26.2400   43.6510  -16.3630 C.3   112  LYS112      0.0035
     83  CD        25.8270   44.9880  -17.0500 C.3   112  LYS112      0.0206
     84  CE        27.0920   45.5960  -17.7030 C.3   112  LYS112      0.1093
     85  NZ        26.8820   46.9840  -18.2880 N.3   112  LYS112     -0.1314
     86  N         25.0120   39.7330  -13.4450 N.am  113  PHE113     -0.1976
     87  CA        24.1450   39.0150  -12.5620 C.3   113  PHE113      0.1639
     88  C         24.9200   38.7680  -11.2510 C.2   113  PHE113      0.2290
     89  O         24.5270   39.2770  -10.2480 O.2   113  PHE113     -0.2864
     90  CB        23.7170   37.6970  -13.2020 C.3   113  PHE113      0.0560
     91  CG        22.8950   36.8640  -12.3200 C.ar  113  PHE113     -0.0200
     92  CD1       21.5800   37.2480  -12.0020 C.ar  113  PHE113     -0.0042
     93  CD2       23.4220   35.6840  -11.7670 C.ar  113  PHE113     -0.0042
     94  CE1       20.8210   36.4600  -11.1630 C.ar  113  PHE113     -0.0003
     95  CE2       22.6490   34.9220  -10.9170 C.ar  113  PHE113     -0.0003
     96  CZ        21.3410   35.3060  -10.6290 C.ar  113  PHE113     -0.0000
     97  N         27.9270   39.3100   -8.4880 N.3   115  ILE115     -0.1245
     98  CA        28.6030   40.5260   -8.0420 C.3   115  ILE115      0.1561
     99  C         30.0520   40.1610   -7.7740 C.2   115  ILE115      0.2260
    100  O         30.3240   39.2590   -7.0060 O.2   115  ILE115     -0.2867
    101  CB        27.9560   41.1350   -6.7360 C.3   115  ILE115      0.0252
    102  CG1       26.5080   41.5650   -6.9560 C.3   115  ILE115      0.0019
    103  CG2       28.7790   42.3300   -6.2110 C.3   115  ILE115      0.0019
    104  CD1       25.7720   41.7810   -5.6310 C.3   115  ILE115      0.0001
    105  N         28.1900   35.0200   -2.5810 N.3   120  TRP120     -0.1241
    106  CA        27.1540   34.0550   -2.9630 C.3   120  TRP120      0.1605
    107  C         27.2070   33.6400   -4.3710 C.2   120  TRP120      0.2264
    108  O         27.7600   34.3730   -5.2070 O.2   120  TRP120     -0.2867
    109  CB        25.7510   34.5490   -2.6550 C.3   120  TRP120      0.0550
    110  CG        25.3810   35.9010   -3.1990 C.ar  120  TRP120      0.0003
    111  CD1       25.5020   37.1070   -2.5580 C.ar  120  TRP120      0.0946
    112  CD2       24.8230   36.2290   -4.5290 C.ar  120  TRP120      0.0152
    113  NE1       25.0810   38.1210   -3.3640 N.ar  120  TRP120     -0.2442
    114  CE2       24.6560   37.6460   -4.5550 C.ar  120  TRP120      0.0810
    115  CE3       24.4890   35.4990   -5.6500 C.ar  120  TRP120      0.0012
    116  CZ2       24.1310   38.3030   -5.6570 C.ar  120  TRP120      0.0191
    117  CZ3       23.9280   36.1520   -6.7380 C.ar  120  TRP120      0.0001
    118  CH2       23.7470   37.5180   -6.7400 C.ar  120  TRP120      0.0015
    119  N         20.6820   32.1420   -6.3890 N.3   123  ILE123     -0.1245
    120  CA        19.5610   32.8510   -5.7740 C.3   123  ILE123      0.1561
    121  C         18.4660   31.8790   -5.4380 C.2   123  ILE123      0.2260
    122  O         18.2180   30.8950   -6.1980 O.2   123  ILE123     -0.2867
    123  CB        19.0740   33.9000   -6.7490 C.3   123  ILE123      0.0252
    124  CG1       20.1340   34.9460   -6.9680 C.3   123  ILE123      0.0019
    125  CG2       17.8330   34.6760   -6.3070 C.3   123  ILE123      0.0019
    126  CD1       19.5300   36.0600   -7.7800 C.3   123  ILE123      0.0001
    127  N         10.1300   42.6030   -1.0610 N.3   224  ASP224     -0.1225
    128  CA        11.2350   42.0080   -1.9340 C.3   224  ASP224      0.1805
    129  C         12.6840   42.0920   -1.3410 C.2   224  ASP224      0.2598
    130  O         13.3520   43.1100   -1.5040 O.2   224  ASP224     -0.2718
    131  CB        11.2010   42.6510   -3.3180 C.3   224  ASP224      0.1424
    132  CG        12.2460   42.1220   -4.2360 C.2   224  ASP224      0.3668
    133  OD1       12.8440   41.0440   -3.9440 O.co2 224  ASP224     -0.2456
    134  OD2       12.4880   42.7660   -5.2900 O.co2 224  ASP224     -0.2456
    135  N         13.1770   41.0070   -0.7530 N.am  225  SER225     -0.1938
    136  CA        14.4550   41.0100   -0.0200 C.3   225  SER225      0.2055
    137  C         15.6340   40.9630   -1.0220 C.2   225  SER225      0.2644
    138  O         16.7910   41.1460   -0.6470 O.2   225  SER225     -0.2714
    139  CB        14.5240   39.7660    0.8880 C.3   225  SER225      0.2130
    140  OG        14.5910   38.5910    0.0300 O.3   225  SER225     -0.2179
    141  N         15.3200   40.7760   -2.3040 N.am  226  GLY226     -0.1939
    142  CA        16.3490   40.8280   -3.3280 C.3   226  GLY226      0.2014
    143  C         16.5840   42.1750   -3.9870 C.2   226  GLY226      0.2640
    144  O         17.2950   42.2380   -5.0100 O.2   226  GLY226     -0.2714
    145  N         16.0090   43.2470   -3.4410 N.am  227  THR227     -0.1936
    146  CA        16.2590   44.6500   -3.8990 C.3   227  THR227      0.2028
    147  C         16.6740   45.4590   -2.6720 C.2   227  THR227      0.2642
    148  O         16.1860   45.2060   -1.5930 O.2   227  THR227     -0.2714
    149  CB        14.9270   45.3090   -4.4150 C.3   227  THR227      0.1808
    150  OG1       14.4750   44.5950   -5.5720 O.3   227  THR227     -0.2208
    151  CG2       15.0810   46.7350   -4.8090 C.3   227  THR227      0.0379
    152  N         17.5900   46.4100   -2.8360 N.am  228  THR228     -0.1950
    153  CA        18.0510   47.2370   -1.7800 C.3   228  THR228      0.1897
    154  C         17.0370   48.3420   -1.5190 C.2   228  THR228      0.2313
    155  O         16.5680   48.4650   -0.4000 O.2   228  THR228     -0.2863
    156  CB        19.3820   47.9060   -2.1610 C.3   228  THR228      0.1794
    157  OG1       20.3380   46.8660   -2.3080 O.3   228  THR228     -0.2208
    158  CG2       19.8390   48.8650   -1.0510 C.3   228  THR228      0.0378
    159  N         11.5740   51.3160   -3.6500 N.3   231  ARG231     -0.1245
    160  CA        11.2560   51.9430   -4.8870 C.3   231  ARG231      0.1563
    161  C          9.8220   52.4320   -4.8750 C.2   231  ARG231      0.2260
    162  O          8.9340   51.6920   -4.3840 O.2   231  ARG231     -0.2867
    163  CB        11.5180   50.9880   -6.0130 C.3   231  ARG231      0.0307
    164  CG        12.9530   50.4300   -5.9290 C.3   231  ARG231      0.0489
    165  CD        13.6030   50.4400   -7.3090 C.3   231  ARG231      0.2205
    166  NE        12.7300   49.8420   -8.3180 N.pl3 231  ARG231     -0.0865
    167  CZ        12.9140   48.6370   -8.8490 C.cat 231  ARG231      0.5346
    168  NH1       12.0390   48.1650   -9.7580 N.pl3 231  ARG231      0.1354
    169  NH2       13.9790   47.9140   -8.4840 N.pl3 231  ARG231      0.1354
    170  N         21.9220   54.8080    3.0490 N.3   303  ARG303     -0.1245
    171  CA        22.7960   53.6370    3.2100 C.3   303  ARG303      0.1563
    172  C         24.2650   54.0270    3.1450 C.2   303  ARG303      0.2260
    173  O         24.6960   54.6270    2.1530 O.2   303  ARG303     -0.2867
    174  CB        22.6280   52.5890    2.1090 C.3   303  ARG303      0.0307
    175  CG        21.3420   52.6130    1.3440 C.3   303  ARG303      0.0489
    176  CD        20.3500   51.7740    2.0700 C.3   303  ARG303      0.2205
    177  NE        20.8510   50.4060    2.1320 N.pl3 303  ARG303     -0.0865
    178  CZ        20.2740   49.4380    2.8520 C.cat 303  ARG303      0.5346
    179  NH1       19.1640   49.7130    3.5980 N.pl3 303  ARG303      0.1354
    180  NH2       20.8170   48.2110    2.8400 N.pl3 303  ARG303      0.1354
    181  N         15.1000   45.9980    0.9920 N.3   331  ALA331     -0.1245
    182  CA        15.8530   45.9280    2.2320 C.3   331  ALA331      0.1562
    183  C         15.7500   47.2650    3.0030 C.2   331  ALA331      0.2260
    184  O         15.7640   47.2460    4.1850 O.2   331  ALA331     -0.2867
    185  CB        17.3090   45.5050    1.9790 C.3   331  ALA331      0.0290
@<TRIPOS>BOND
     1    85    84    1
     2    84    83    1
     3    59    58    2
     4    83    82    1
     5    56    57    1
     6    58    57    1
     7    82    81    1
     8    57    60    1
     9    77    78    1
    10    81    78    1
    11    70    69    1
    12    70    71    2
    13    68    69    1
    14    69    72    1
    15    78    79    1
    16    60    61    1
    17    61    63   ar
    18    61    62   ar
    19    63    65   ar
    20    79    80    2
    21    79    86   am
    22    72    73    1
    23    62    64   ar
    24    73    74    1
    25    86    87    1
    26    65    66   ar
    27    90    87    1
    28    90    91    1
    29    64    66   ar
    30    66    67    1
    31    75    74    2
    32    87    88    1
    33    74    76   am
    34    91    92   ar
    35    91    93   ar
    36    92    94   ar
    37    93    95   ar
    38    88    89    2
    39    94    96   ar
    40    95    96   ar
    41   168   167    1
    42   167   169    1
    43   167   166    2
    44    97    98    1
    45   166   165    1
    46    54    51    1
    47    54    55    1
    48    98    99    1
    49    98   101    1
    50   126   124    1
    51    99   100    2
    52    49    48    2
    53    51    52    1
    54    51    50    1
    55   165   164    1
    56    52    53    2
    57   124   123    1
    58   102   101    1
    59   102   104    1
    60   123   125    1
    61   123   120    1
    62   118   117   ar
    63   118   116   ar
    64   117   115   ar
    65   101   103    1
    66    48    50   am
    67    48    47    1
    68    45    43   ar
    69   119   120    1
    70   122   121    2
    71   163   164    1
    72   163   160    1
    73   120   121    1
    74   116   114   ar
    75   115   112   ar
    76   150   149    1
    77    47    46    1
    78   134   132   ar
    79    43    44   ar
    80    43    42    1
    81   108   107    2
    82   144   143    2
    83   160   161    1
    84   160   159    1
    85   161   162    2
    86   151   149    1
    87   114   112   ar
    88   114   113   ar
    89   112   110   ar
    90   149   146    1
    91   107   106    1
    92    37    35    1
    93    42    39    1
    94   132   133   ar
    95   132   131    1
    96   143   145   am
    97   143   142    1
    98   146   145    1
    99   146   147    1
   100    41    40    2
   101   113   111   ar
   102   142   141    1
   103   131   128    1
   104    34    35    1
   105    34    31    1
   106   110   109    1
   107   110   111   ar
   108    35    36    1
   109   106   109    1
   110   106   105    1
   111    39    40    1
   112    39    38    1
   113   152   147   am
   114   152   153    1
   115     4     3    2
   116   147   148    2
   117    33    32    2
   118    13    11   am
   119    30    31    1
   120   157   156    1
   121   141   137   am
   122   156   153    1
   123   156   158    1
   124    10    11    1
   125    10     9    1
   126    31    32    1
   127   128   129    1
   128   128   127    1
   129     8     7    2
   130    11    12    2
   131   153   154    1
   132     6     9    1
   133     6     7    1
   134     6     5    1
   135     3     5   am
   136     3     2    1
   137   154   155    2
   138   130   129    2
   139   129   135   am
   140     7    14   am
   141   137   138    2
   142   137   136    1
   143     2     1    1
   144   135   136    1
   145    14    15    1
   146    15    16    1
   147   136   139    1
   148   140   139    1
   149    16    18   am
   150    16    17    2
   151    21    20    2
   152   181   182    1
   153    18    19    1
   154   175   176    1
   155   175   174    1
   156    20    19    1
   157   185   182    1
   158   176   177    1
   159   174   171    1
   160   177   178    2
   161   173   172    2
   162   182   183    1
   163    19    22    1
   164   180   178    1
   165   178   179    1
   166   183   184    2
   167   170   171    1
   168   172   171    1
   169    22    23    1
   170    24    26   ar
   171    24    23   ar
   172    26    28   ar
   173    23    25   ar
   174    28    29    1
   175    28    27   ar
   176    25    27   ar
