@<TRIPOS>MOLECULE
tmp/4j12A00.pdb
 124 114 0 0 0
SMALL
GASTEIGER

@<TRIPOS>ATOM
      1  N        -43.5500   -5.1210  -19.9840 N.3     4  SER4       -0.1217
      2  CA       -42.1790   -5.3030  -20.4710 C.3     4  SER4        0.1889
      3  C        -41.2730   -5.5090  -19.2790 C.2     4  SER4        0.2288
      4  O        -41.5280   -4.9430  -18.2110 O.2     4  SER4       -0.2866
      5  CB       -41.7060   -4.0650  -21.2260 C.3     4  SER4        0.2089
      6  OG       -42.2980   -4.0290  -22.5060 O.3     4  SER4       -0.2183
      7  N        -37.1650   -5.5990  -17.7880 N.3     6  PHE6       -0.1241
      8  CA       -35.7820   -5.1440  -17.8730 C.3     6  PHE6        0.1605
      9  C        -35.0580   -5.7090  -16.6550 C.2     6  PHE6        0.2264
     10  O        -35.6100   -5.6810  -15.5580 O.2     6  PHE6       -0.2867
     11  CB       -35.7000   -3.6040  -17.9470 C.3     6  PHE6        0.0534
     12  CG       -36.3280   -3.1220  -19.2310 C.ar    6  PHE6       -0.0203
     13  CD1      -37.6560   -2.7080  -19.2610 C.ar    6  PHE6       -0.0042
     14  CD2      -35.6360   -3.2120  -20.4350 C.ar    6  PHE6       -0.0042
     15  CE1      -38.2670   -2.3550  -20.4690 C.ar    6  PHE6       -0.0003
     16  CE2      -36.2450   -2.8590  -21.6410 C.ar    6  PHE6       -0.0003
     17  CZ       -37.5530   -2.4250  -21.6530 C.ar    6  PHE6       -0.0000
     18  N        -31.3840   -5.7120  -14.4770 N.3     8  PHE8       -0.1228
     19  CA       -30.1950   -4.9080  -14.2310 C.3     8  PHE8        0.1721
     20  C        -29.1700   -5.5940  -13.3670 C.2     8  PHE8        0.2437
     21  O        -29.5430   -6.3040  -12.4250 O.2     8  PHE8       -0.2733
     22  CB       -30.5810   -3.5300  -13.6620 C.3     8  PHE8        0.0547
     23  CG       -31.4630   -2.7420  -14.6080 C.ar    8  PHE8       -0.0202
     24  CD1      -32.8440   -2.7080  -14.4350 C.ar    8  PHE8       -0.0042
     25  CD2      -30.9190   -2.0750  -15.6990 C.ar    8  PHE8       -0.0042
     26  CE1      -33.6620   -1.9810  -15.3170 C.ar    8  PHE8       -0.0003
     27  CE2      -31.7340   -1.3430  -16.5740 C.ar    8  PHE8       -0.0003
     28  CZ       -33.0980   -1.3010  -16.3770 C.ar    8  PHE8       -0.0000
     29  N        -27.8650   -5.4110  -13.6750 N.am    9  PRO9       -0.2729
     30  CA       -26.8250   -6.0690  -12.8720 C.3     9  PRO9        0.1401
     31  C        -26.5440   -5.3150  -11.5650 C.2     9  PRO9        0.2269
     32  O        -27.0200   -4.1950  -11.4070 O.2     9  PRO9       -0.2865
     33  CB       -25.6020   -6.0240  -13.8060 C.3     9  PRO9        0.0296
     34  CG       -25.7810   -4.7380  -14.5630 C.3     9  PRO9        0.0237
     35  CD       -27.2740   -4.5930  -14.7670 C.3     9  PRO9        0.0939
     36  N        -24.2960   -3.0390   -8.7580 N.3    11  LYS11      -0.1245
     37  CA       -23.3330   -1.9340   -8.8690 C.3    11  LYS11       0.1561
     38  C        -21.9140   -2.4960   -8.6410 C.2    11  LYS11       0.2260
     39  O        -21.7560   -3.3480   -7.7710 O.2    11  LYS11      -0.2867
     40  CB       -23.6460   -0.8320   -7.8430 C.3    11  LYS11       0.0271
     41  CG       -24.7660    0.0760   -8.3220 C.3    11  LYS11       0.0035
     42  CD       -25.5970    0.6500   -7.1810 C.3    11  LYS11       0.0206
     43  CE       -27.0130    0.1090   -7.1410 C.3    11  LYS11       0.1093
     44  NZ       -27.8320    0.5260   -8.3170 N.3    11  LYS11      -0.1314
     45  N        -31.6390   -6.5500  -10.1820 N.3    25  THR25      -0.1218
     46  CA       -32.9580   -5.9250  -10.1540 C.3    25  THR25       0.1862
     47  C        -33.7760   -6.2640  -11.4110 C.2    25  THR25       0.2287
     48  O        -33.3700   -5.9170  -12.5310 O.2    25  THR25      -0.2866
     49  CB       -32.7960   -4.3950  -10.0070 C.3    25  THR25       0.1770
     50  OG1      -31.9290   -4.0840   -8.9210 O.3    25  THR25      -0.2211
     51  CG2      -34.1080   -3.6880   -9.8070 C.3    25  THR25       0.0375
     52  N        -37.1220   -5.3680  -13.2690 N.3    27  VAL27      -0.1245
     53  CA       -38.0900   -4.2760  -13.3690 C.3    27  VAL27       0.1561
     54  C        -39.1600   -4.6290  -14.4020 C.2    27  VAL27       0.2260
     55  O        -38.8340   -5.0600  -15.5110 O.2    27  VAL27      -0.2867
     56  CB       -37.3730   -2.9370  -13.6920 C.3    27  VAL27       0.0252
     57  CG1      -38.3670   -1.7850  -13.8690 C.3    27  VAL27       0.0019
     58  CG2      -36.3510   -2.5860  -12.6130 C.3    27  VAL27       0.0019
     59  N        -42.4600   -2.9600  -16.3010 N.3    29  VAL29      -0.1231
     60  CA       -43.1680   -1.7230  -16.6490 C.3    29  VAL29       0.1692
     61  C        -44.4400   -2.0740  -17.4140 C.2    29  VAL29       0.2592
     62  O        -44.6220   -3.2370  -17.7830 O.2    29  VAL29      -0.2718
     63  CB       -42.2950   -0.6500  -17.3730 C.3    29  VAL29       0.0266
     64  CG1      -41.2290   -0.0830  -16.4410 C.3    29  VAL29       0.0020
     65  CG2      -41.6800   -1.1780  -18.6730 C.3    29  VAL29       0.0020
     66  N        -45.3280   -1.0860  -17.6340 N.am   30  ASP30      -0.1974
     67  CA       -46.6070   -1.2680  -18.3460 C.3    30  ASP30       0.1709
     68  C        -47.5310   -2.2830  -17.6620 C.2    30  ASP30       0.2293
     69  O        -48.2950   -2.9870  -18.3260 O.2    30  ASP30      -0.2864
     70  CB       -46.3920   -1.5720  -19.8530 C.3    30  ASP30       0.1436
     71  CG       -45.7900   -0.4210  -20.6430 C.2    30  ASP30       0.3671
     72  OD1      -45.7650    0.7080  -20.1190 O.co2  30  ASP30      -0.2456
     73  OD2      -45.3750   -0.6440  -21.7970 O.co2  30  ASP30      -0.2456
     74  N        -46.8660    5.1190  -12.3720 N.3    60  GLN60      -0.1245
     75  CA       -46.1640    5.9570  -13.3130 C.3    60  GLN60       0.1566
     76  C        -47.1370    6.9890  -13.7830 C.2    60  GLN60       0.2260
     77  O        -48.3560    6.8270  -13.6530 O.2    60  GLN60      -0.2867
     78  CB       -45.5970    5.1410  -14.4890 C.3    60  GLN60       0.0367
     79  CG       -44.5180    4.1360  -14.0840 C.3    60  GLN60       0.0905
     80  CD       -43.4840    4.7390  -13.1660 C.2    60  GLN60       0.2608
     81  OE1      -42.6370    5.5380  -13.5790 O.2    60  GLN60      -0.2717
     82  NE2      -43.5670    4.3950  -11.8880 N.am   60  GLN60      -0.0878
     83  N        -47.7840    7.7490  -16.7250 N.3    62  ASN62      -0.1240
     84  CA       -48.5020    7.2360  -17.8850 C.3    62  ASN62       0.1653
     85  C        -49.6500    6.2920  -17.4720 C.2    62  ASN62       0.2266
     86  O        -50.1900    5.5730  -18.3160 O.2    62  ASN62      -0.2867
     87  CB       -47.5360    6.5840  -18.8910 C.3    62  ASN62       0.1155
     88  CG       -46.6910    5.4380  -18.3850 C.2    62  ASN62       0.2627
     89  OD1      -47.0850    4.6490  -17.5230 O.2    62  ASN62      -0.2716
     90  ND2      -45.5130    5.3230  -18.9640 N.am   62  ASN62      -0.0877
     91  N        -49.6610    3.5990  -15.3230 N.3    64  THR64      -0.1218
     92  CA       -49.3310    2.1770  -15.2330 C.3    64  THR64       0.1862
     93  C        -48.4410    1.9760  -14.0210 C.2    64  THR64       0.2287
     94  O        -47.8680    2.9370  -13.5040 O.2    64  THR64      -0.2866
     95  CB       -48.6410    1.6700  -16.5170 C.3    64  THR64       0.1770
     96  OG1      -47.4130    2.3690  -16.6990 O.3    64  THR64      -0.2211
     97  CG2      -49.5210    1.7740  -17.7630 C.3    64  THR64       0.0375
     98  N        -45.0780    0.2780  -12.0840 N.3    66  ARG66      -0.1245
     99  CA       -43.7050   -0.1560  -12.2520 C.3    66  ARG66       0.1563
    100  C        -43.4660   -1.0350  -11.0310 C.2    66  ARG66       0.2260
    101  O        -43.6130   -0.5780   -9.8860 O.2    66  ARG66      -0.2867
    102  CB       -42.7640    1.0430  -12.2750 C.3    66  ARG66       0.0307
    103  CG       -41.3050    0.6560  -12.4450 C.3    66  ARG66       0.0489
    104  CD       -40.4350    1.8830  -12.4470 C.3    66  ARG66       0.2205
    105  NE       -39.0210    1.5260  -12.5660 N.pl3  66  ARG66      -0.0865
    106  CZ       -38.2260    1.2400  -11.5360 C.cat  66  ARG66       0.5346
    107  NH1      -36.9540    0.9220  -11.7370 N.pl3  66  ARG66       0.1354
    108  NH2      -38.6980    1.2860  -10.2940 N.pl3  66  ARG66       0.1354
    109  N        -40.9750   -3.9230   -9.0890 N.3    68  VAL68      -0.1245
    110  CA       -39.5730   -4.3190   -8.9530 C.3    68  VAL68       0.1561
    111  C        -39.3550   -5.4770   -7.9750 C.2    68  VAL68       0.2260
    112  O        -39.8710   -5.4550   -6.8490 O.2    68  VAL68      -0.2867
    113  CB       -38.7250   -3.0690   -8.5390 C.3    68  VAL68       0.0252
    114  CG1      -37.2520   -3.4130   -8.3340 C.3    68  VAL68       0.0019
    115  CG2      -38.8650   -1.9280   -9.5480 C.3    68  VAL68       0.0019
    116  N        -35.7770  -13.2180  -18.4420 N.3    99  LYS99      -0.1245
    117  CA       -34.5740  -12.4480  -18.7570 C.3    99  LYS99       0.1561
    118  C        -33.4710  -13.0550  -17.9160 C.2    99  LYS99       0.2260
    119  O        -33.7410  -13.4680  -16.7880 O.2    99  LYS99      -0.2867
    120  CB       -34.7610  -10.9710  -18.3650 C.3    99  LYS99       0.0271
    121  CG       -35.8260  -10.2330  -19.1440 C.3    99  LYS99       0.0035
    122  CD       -35.2930   -9.7310  -20.4570 C.3    99  LYS99       0.0206
    123  CE       -36.4290   -9.3840  -21.3610 C.3    99  LYS99       0.1093
    124  NZ       -35.9720   -9.2490  -22.7600 N.3    99  LYS99      -0.1314
@<TRIPOS>BOND
     1   124   123    1
     2     6     5    1
     3    73    71   ar
     4    17    16   ar
     5    17    15   ar
     6    16    14   ar
     7   123   122    1
     8     5     2    1
     9    71    72   ar
    10    71    70    1
    11     2     1    1
    12     2     3    1
    13    15    13   ar
    14   122   121    1
    15    14    12   ar
    16    70    67    1
    17     3     4    2
    18    13    12   ar
    19    12    11    1
    20   121   120    1
    21    90    88   am
    22    87    88    1
    23    87    84    1
    24   117   116    1
    25   117   120    1
    26   117   118    1
    27    65    63    1
    28    88    89    2
    29    67    68    1
    30    67    66    1
    31    69    68    2
    32    86    85    2
    33    11     8    1
    34   118   119    2
    35    84    85    1
    36    84    83    1
    37     8     7    1
    38     8     9    1
    39    62    61    2
    40    97    95    1
    41    66    61   am
    42    61    60    1
    43    63    60    1
    44    63    64    1
    45    96    95    1
    46     9    10    2
    47    60    59    1
    48    27    28   ar
    49    27    25   ar
    50    95    92    1
    51    28    26   ar
    52    25    23   ar
    53    55    54    2
    54    91    92    1
    55    26    24   ar
    56    92    93    1
    57    35    34    1
    58    35    29    1
    59    23    24   ar
    60    23    22    1
    61    34    33    1
    62    78    79    1
    63    78    75    1
    64    18    19    1
    65    54    53    1
    66    19    22    1
    67    19    20    1
    68    79    80    1
    69    93    94    2
    70    57    56    1
    71    33    30    1
    72    76    77    2
    73    76    75    1
    74    56    53    1
    75    56    58    1
    76    29    20   am
    77    29    30    1
    78    81    80    2
    79    53    52    1
    80    20    21    2
    81    75    74    1
    82    80    82   am
    83    30    31    1
    84   105   104    1
    85   105   106    2
    86    48    47    2
    87   104   103    1
    88   103   102    1
    89   102    99    1
    90    99    98    1
    91    99   100    1
    92   107   106    1
    93    31    32    2
    94   106   108    1
    95    47    46    1
    96   100   101    2
    97    45    46    1
    98    46    49    1
    99    49    51    1
   100    49    50    1
   101   115   113    1
   102   109   110    1
   103   110   113    1
   104   110   111    1
   105    37    36    1
   106    37    38    1
   107    37    40    1
   108    38    39    2
   109   113   114    1
   110    41    40    1
   111    41    42    1
   112    44    43    1
   113   111   112    2
   114    42    43    1
