@<TRIPOS>MOLECULE
tmp/4j14A01.pdb
 236 227 0 0 0
SMALL
GASTEIGER

@<TRIPOS>ATOM
      1  N          9.9980  -26.2230  -23.8630 N.3     5  LEU5       -0.1245
      2  CA         9.8470  -24.7910  -23.6860 C.3     5  LEU5        0.1561
      3  C         10.4910  -24.3170  -22.3770 C.2     5  LEU5        0.2260
      4  O         11.1040  -23.2560  -22.3560 O.2     5  LEU5       -0.2867
      5  CB         8.3860  -24.3750  -23.7750 C.3     5  LEU5        0.0270
      6  CG         8.0710  -22.8810  -23.8540 C.3     5  LEU5        0.0019
      7  CD1        8.7270  -22.2020  -25.0770 C.3     5  LEU5        0.0001
      8  CD2        6.5470  -22.7420  -23.9140 C.3     5  LEU5        0.0001
      9  N          4.5990  -16.0750  -25.4030 N.3    24  VAL24      -0.1231
     10  CA         4.1370  -17.3720  -25.8970 C.3    24  VAL24       0.1692
     11  C          2.6740  -17.7270  -25.4930 C.2    24  VAL24       0.2592
     12  O          2.1420  -18.7630  -25.9050 O.2    24  VAL24      -0.2718
     13  CB         5.1010  -18.5150  -25.4890 C.3    24  VAL24       0.0266
     14  CG1        5.8170  -19.0860  -26.7070 C.3    24  VAL24       0.0020
     15  CG2        6.0840  -18.0460  -24.4500 C.3    24  VAL24       0.0020
     16  N          2.0390  -16.8580  -24.7120 N.am   25  PHE25      -0.1962
     17  CA         0.7160  -17.1510  -24.1820 C.3    25  PHE25       0.1771
     18  C         -0.4640  -16.3330  -24.7370 C.2    25  PHE25       0.2619
     19  O         -0.4620  -15.9100  -25.8890 O.2    25  PHE25      -0.2715
     20  CB         0.7450  -17.0690  -22.6530 C.3    25  PHE25       0.0574
     21  CG         1.6710  -18.0520  -22.0190 C.ar   25  PHE25      -0.0200
     22  CD1        1.5160  -19.4170  -22.2450 C.ar   25  PHE25      -0.0042
     23  CD2        2.6930  -17.6140  -21.1920 C.ar   25  PHE25      -0.0042
     24  CE1        2.3730  -20.3370  -21.6560 C.ar   25  PHE25      -0.0003
     25  CE2        3.5570  -18.5210  -20.5890 C.ar   25  PHE25      -0.0003
     26  CZ         3.4040  -19.8940  -20.8240 C.ar   25  PHE25      -0.0000
     27  N         -1.4800  -16.1550  -23.8940 N.am   26  HIS26      -0.1973
     28  CA        -2.6530  -15.3490  -24.2130 C.3    26  HIS26       0.1656
     29  C         -2.1890  -13.8980  -24.2470 C.2    26  HIS26       0.2291
     30  O         -2.7380  -13.0560  -24.9800 O.2    26  HIS26      -0.2864
     31  CB        -3.7320  -15.5800  -23.1250 C.3    26  HIS26       0.0771
     32  CG        -4.8760  -14.6030  -23.1610 C.ar   26  HIS26       0.0820
     33  ND1       -5.1130  -13.6960  -22.1440 N.ar   26  HIS26      -0.2267
     34  CD2       -5.8500  -14.3910  -24.0860 C.ar   26  HIS26       0.1154
     35  CE1       -6.1790  -12.9650  -22.4450 C.ar   26  HIS26       0.1986
     36  NE2       -6.6440  -13.3650  -23.6190 N.ar   26  HIS26      -0.2212
     37  N         -4.8280  -18.1550   -9.0090 N.3    49  LYS49      -0.1245
     38  CA        -4.4910  -18.7110  -10.2920 C.3    49  LYS49       0.1561
     39  C         -5.1350  -17.8730  -11.3790 C.2    49  LYS49       0.2260
     40  O         -6.1620  -17.2550  -11.1590 O.2    49  LYS49      -0.2867
     41  CB        -4.9780  -20.1660  -10.3810 C.3    49  LYS49       0.0271
     42  CG        -4.1510  -21.1840   -9.5880 C.3    49  LYS49       0.0035
     43  CD        -4.5390  -22.6300   -9.9370 C.3    49  LYS49       0.0206
     44  CE        -3.5210  -23.6350   -9.4060 C.3    49  LYS49       0.1093
     45  NZ        -3.7360  -25.0410   -9.8930 N.3    49  LYS49      -0.1314
     46  N         -7.4660  -17.3690  -17.1100 N.3    52  LYS52      -0.1231
     47  CA        -7.0810  -17.4440  -18.5160 C.3    52  LYS52       0.1693
     48  C         -6.0880  -18.5630  -18.8390 C.2    52  LYS52       0.2592
     49  O         -6.1600  -19.1670  -19.9210 O.2    52  LYS52      -0.2718
     50  CB        -6.5340  -16.1140  -19.0180 C.3    52  LYS52       0.0285
     51  CG        -7.5690  -15.2860  -19.7440 C.3    52  LYS52       0.0035
     52  CD        -8.3750  -14.4070  -18.8040 C.3    52  LYS52       0.0206
     53  CE        -9.4990  -13.6930  -19.5610 C.3    52  LYS52       0.1093
     54  NZ       -10.5400  -13.2760  -18.5840 N.3    52  LYS52      -0.1314
     55  N         -5.1620  -18.8310  -17.9210 N.am   53  MET53      -0.1965
     56  CA        -4.1600  -19.8750  -18.1540 C.3    53  MET53       0.1736
     57  C         -4.8030  -21.2570  -17.9810 C.2    53  MET53       0.2616
     58  O         -4.5620  -22.1590  -18.7620 O.2    53  MET53      -0.2715
     59  CB        -2.8870  -19.7180  -17.2880 C.3    53  MET53       0.0427
     60  CG        -2.0160  -18.4650  -17.5420 C.3    53  MET53       0.0599
     61  SD        -1.2270  -18.3730  -19.1890 S.3    53  MET53      -0.1393
     62  CE        -2.5890  -17.8760  -20.2350 C.3    53  MET53       0.0692
     63  N         -5.6380  -21.4000  -16.9640 N.am   54  TYR54      -0.1974
     64  CA        -6.1720  -22.7070  -16.6210 C.3    54  TYR54       0.1639
     65  C         -7.3510  -23.1480  -17.4850 C.2    54  TYR54       0.2290
     66  O         -7.8490  -24.2680  -17.3440 O.2    54  TYR54      -0.2864
     67  CB        -6.4580  -22.7900  -15.1250 C.3    54  TYR54       0.0560
     68  CG        -5.1810  -22.8570  -14.3400 C.ar   54  TYR54      -0.0198
     69  CD1       -4.5460  -24.0840  -14.1320 C.ar   54  TYR54      -0.0009
     70  CD2       -4.5730  -21.7020  -13.8550 C.ar   54  TYR54      -0.0009
     71  CE1       -3.3620  -24.1690  -13.4270 C.ar   54  TYR54       0.0417
     72  CE2       -3.3860  -21.7740  -13.1450 C.ar   54  TYR54       0.0417
     73  CZ        -2.7850  -23.0300  -12.9270 C.ar   54  TYR54       0.1957
     74  OH        -1.6010  -23.1500  -12.2410 O.3    54  TYR54      -0.2866
     75  N         -7.0290  -23.7860  -20.4970 N.3    56  ALA56      -0.1231
     76  CA        -6.4530  -24.8580  -21.2960 C.3    56  ALA56       0.1694
     77  C         -6.6480  -26.2170  -20.5920 C.2    56  ALA56       0.2591
     78  O         -6.5060  -27.2790  -21.1930 O.2    56  ALA56      -0.2718
     79  CB        -4.9690  -24.5780  -21.5780 C.3    56  ALA56       0.0304
     80  N         -6.9670  -26.1760  -19.3080 N.am   57  LEU57      -0.1980
     81  CA        -7.2970  -27.3940  -18.5970 C.3    57  LEU57       0.1596
     82  C         -8.8050  -27.5840  -18.5410 C.2    57  LEU57       0.2287
     83  O         -9.2810  -28.7130  -18.5880 O.2    57  LEU57      -0.2864
     84  CB        -6.7180  -27.3790  -17.1840 C.3    57  LEU57       0.0297
     85  CG        -5.3960  -28.0770  -16.9010 C.3    57  LEU57       0.0022
     86  CD1       -4.4060  -28.0180  -18.0670 C.3    57  LEU57       0.0001
     87  CD2       -4.8300  -27.4820  -15.6130 C.3    57  LEU57       0.0001
     88  N        -11.0620  -30.9640  -17.5120 N.3    66  PHE66      -0.1241
     89  CA       -10.9610  -30.8220  -16.0580 C.3    66  PHE66       0.1605
     90  C        -11.9460  -29.8240  -15.4310 C.2    66  PHE66       0.2264
     91  O        -12.0390  -29.7310  -14.2010 O.2    66  PHE66      -0.2867
     92  CB        -9.5090  -30.6270  -15.5640 C.3    66  PHE66       0.0534
     93  CG        -8.5340  -31.6280  -16.1320 C.ar   66  PHE66      -0.0203
     94  CD1       -8.7410  -33.0100  -15.9720 C.ar   66  PHE66      -0.0042
     95  CD2       -7.4130  -31.1960  -16.8370 C.ar   66  PHE66      -0.0042
     96  CE1       -7.8490  -33.9440  -16.5230 C.ar   66  PHE66      -0.0003
     97  CE2       -6.5130  -32.1300  -17.3920 C.ar   66  PHE66      -0.0003
     98  CZ        -6.7320  -33.5100  -17.2320 C.ar   66  PHE66      -0.0000
     99  N         -7.9230  -28.5290   -9.4020 N.3    71  VAL71      -0.1245
    100  CA        -6.7410  -27.8940   -9.9900 C.3    71  VAL71       0.1561
    101  C         -7.0550  -26.6010  -10.7840 C.2    71  VAL71       0.2260
    102  O         -6.3250  -25.6090  -10.6830 O.2    71  VAL71      -0.2867
    103  CB        -5.9910  -28.8590  -10.9510 C.3    71  VAL71       0.0252
    104  CG1       -4.7970  -28.1710  -11.5580 C.3    71  VAL71       0.0019
    105  CG2       -5.5380  -30.1130  -10.2320 C.3    71  VAL71       0.0019
    106  N         -2.2360  -26.6720  -27.2440 N.3   171  ARG171     -0.1231
    107  CA        -1.4450  -25.4850  -26.9410 C.3   171  ARG171      0.1694
    108  C         -1.0740  -24.7740  -28.2440 C.2   171  ARG171      0.2592
    109  O         -1.0490  -23.5360  -28.3150 O.2   171  ARG171     -0.2718
    110  CB        -0.1820  -25.8940  -26.1340 C.3   171  ARG171      0.0321
    111  CG         1.1230  -25.0880  -26.3860 C.3   171  ARG171      0.0489
    112  CD         2.0460  -25.7350  -27.4500 C.3   171  ARG171      0.2205
    113  NE         3.1100  -26.5680  -26.8810 N.pl3 171  ARG171     -0.0865
    114  CZ         3.8370  -27.4610  -27.5620 C.cat 171  ARG171      0.5346
    115  NH1        4.7810  -28.1660  -26.9340 N.pl3 171  ARG171      0.1354
    116  NH2        3.6230  -27.6680  -28.8590 N.pl3 171  ARG171      0.1354
    117  N         -0.8280  -25.5700  -29.2800 N.am  172  ASN172     -0.1960
    118  CA         0.0670  -25.1790  -30.3580 C.3   172  ASN172      0.1819
    119  C         -0.4950  -24.5460  -31.6330 C.2   172  ASN172      0.2622
    120  O         -0.6590  -23.3220  -31.7320 O.2   172  ASN172     -0.2715
    121  CB         0.9180  -26.4080  -30.7380 C.3   172  ASN172      0.1195
    122  CG         2.2480  -26.0360  -31.3640 C.2   172  ASN172      0.2630
    123  OD1        2.6400  -26.5930  -32.3930 O.2   172  ASN172     -0.2716
    124  ND2        2.9580  -25.0950  -30.7400 N.am  172  ASN172     -0.0877
    125  N         -0.8110  -25.4150  -32.5870 N.am  173  THR173     -0.1937
    126  CA        -0.6760  -25.1400  -34.0200 C.3   173  THR173      0.2028
    127  C         -1.5870  -24.0440  -34.6220 C.2   173  THR173      0.2642
    128  O         -2.8070  -24.2010  -34.6090 O.2   173  THR173     -0.2714
    129  CB        -0.8360  -26.4830  -34.7680 C.3   173  THR173      0.1808
    130  OG1       -2.0770  -27.0930  -34.3930 O.3   173  THR173     -0.2208
    131  CG2        0.2710  -27.4490  -34.3590 C.3   173  THR173      0.0379
    132  N         -1.0230  -22.9510  -35.1470 N.am  174  LEU174     -0.1977
    133  CA         0.4440  -22.7060  -35.3130 C.3   174  LEU174      0.1596
    134  C          0.9550  -23.0600  -36.7230 C.2   174  LEU174      0.2287
    135  O          2.1360  -23.3890  -36.9060 O.2   174  LEU174     -0.2864
    136  CB         1.3290  -23.3210  -34.2100 C.3   174  LEU174      0.0297
    137  CG         2.5100  -22.4690  -33.7290 C.3   174  LEU174      0.0022
    138  CD1        2.1470  -21.6520  -32.4780 C.3   174  LEU174      0.0001
    139  CD2        3.7250  -23.3530  -33.4740 C.3   174  LEU174      0.0001
    140  N        -10.0880  -34.9510  -13.0670 N.3   243  THR243     -0.1218
    141  CA        -8.9050  -34.3110  -12.4860 C.3   243  THR243      0.1862
    142  C         -8.0920  -35.3310  -11.6770 C.2   243  THR243      0.2287
    143  O         -6.8910  -35.4630  -11.8620 O.2   243  THR243     -0.2866
    144  CB        -9.3030  -33.1450  -11.5560 C.3   243  THR243      0.1770
    145  OG1      -10.1120  -32.2220  -12.2840 O.3   243  THR243     -0.2211
    146  CG2       -8.0990  -32.4400  -11.0560 C.3   243  THR243      0.0375
    147  N         -6.4890  -38.3440  -13.5810 N.3   246  ILE246     -0.1231
    148  CA        -5.2430  -38.0850  -14.3000 C.3   246  ILE246      0.1692
    149  C         -4.1100  -37.5820  -13.3680 C.2   246  ILE246      0.2591
    150  O         -2.9980  -38.1470  -13.3430 O.2   246  ILE246     -0.2718
    151  CB        -5.4730  -37.1680  -15.5590 C.3   246  ILE246      0.0266
    152  CG1       -6.0840  -37.9610  -16.7180 C.3   246  ILE246      0.0019
    153  CG2       -4.1550  -36.7040  -16.1240 C.3   246  ILE246      0.0020
    154  CD1       -7.5300  -38.0330  -16.7330 C.3   246  ILE246      0.0001
    155  N         -4.3970  -36.5220  -12.6170 N.am  247  ALA247     -0.1980
    156  CA        -3.4480  -35.9560  -11.6520 C.3   247  ALA247      0.1597
    157  C         -2.9510  -36.9920  -10.6840 C.2   247  ALA247      0.2287
    158  O         -1.8230  -36.9490  -10.2440 O.2   247  ALA247     -0.2864
    159  CB        -4.1270  -34.8400  -10.8440 C.3   247  ALA247      0.0319
    160  N         -0.6470  -39.7370  -13.3510 N.3   250  GLU250     -0.1231
    161  CA         0.2570  -39.4130  -14.4580 C.3   250  GLU250      0.1699
    162  C          1.5670  -38.8120  -13.9830 C.2   250  GLU250      0.2592
    163  O          2.6380  -39.2190  -14.4180 O.2   250  GLU250     -0.2718
    164  CB        -0.4290  -38.5150  -15.5040 C.3   250  GLU250      0.0402
    165  CG         0.4920  -37.7600  -16.4940 C.3   250  GLU250      0.1161
    166  CD         1.2290  -38.6510  -17.5080 C.2   250  GLU250      0.3649
    167  OE1        1.0060  -39.9040  -17.5730 O.co2 250  GLU250     -0.2457
    168  OE2        2.0700  -38.0810  -18.2440 O.co2 250  GLU250     -0.2457
    169  N          1.4810  -37.8330  -13.0920 N.am  251  THR251     -0.1953
    170  CA         2.6830  -37.1690  -12.6090 C.3   251  THR251      0.1897
    171  C          3.4850  -38.0620  -11.6560 C.2   251  THR251      0.2313
    172  O          4.7150  -37.9720  -11.6270 O.2   251  THR251     -0.2863
    173  CB         2.3410  -35.8020  -11.9800 C.3   251  THR251      0.1794
    174  OG1        1.6490  -36.0250  -10.7430 O.3   251  THR251     -0.2208
    175  CG2        1.3730  -35.0940  -12.8820 C.3   251  THR251      0.0378
    176  N          5.6060  -31.5260  -12.9570 N.3   312  ALA312     -0.1231
    177  CA         4.7470  -30.3730  -12.9100 C.3   312  ALA312      0.1694
    178  C          5.7240  -29.2020  -12.6610 C.2   312  ALA312      0.2592
    179  O          6.1640  -28.9280  -11.5340 O.2   312  ALA312     -0.2718
    180  CB         3.7640  -30.5530  -11.8360 C.3   312  ALA312      0.0304
    181  N          6.0820  -28.5260  -13.7350 N.am  313  TRP313     -0.1962
    182  CA         7.1590  -27.6190  -13.6980 C.3   313  TRP313      0.1771
    183  C          6.9170  -26.3240  -12.9290 C.2   313  TRP313      0.2620
    184  O          7.8690  -25.6850  -12.4550 O.2   313  TRP313     -0.2715
    185  CB         7.5820  -27.3330  -15.1190 C.3   313  TRP313      0.0590
    186  CG         6.4850  -26.8130  -16.0410 C.ar  313  TRP313      0.0006
    187  CD1        5.8310  -27.5150  -17.0220 C.ar  313  TRP313      0.0946
    188  CD2        5.9930  -25.4640  -16.1220 C.ar  313  TRP313      0.0152
    189  NE1        4.9500  -26.6770  -17.7010 N.ar  313  TRP313     -0.2442
    190  CE2        5.0340  -25.4230  -17.1620 C.ar  313  TRP313      0.0810
    191  CE3        6.2720  -24.2920  -15.4170 C.ar  313  TRP313      0.0012
    192  CZ2        4.3550  -24.2770  -17.4920 C.ar  313  TRP313      0.0191
    193  CZ3        5.5770  -23.1430  -15.7340 C.ar  313  TRP313      0.0001
    194  CH2        4.6310  -23.1380  -16.7680 C.ar  313  TRP313      0.0015
    195  N          5.6610  -25.9200  -12.8000 N.am  314  GLY314     -0.1954
    196  CA         5.3770  -24.6810  -12.1090 C.3   314  GLY314      0.1869
    197  C          3.9190  -24.3720  -12.0150 C.2   314  GLY314      0.2309
    198  O          3.1110  -25.2900  -11.9060 O.2   314  GLY314     -0.2863
    199  N          0.8760  -20.6430  -12.4000 N.3   316  PHE316     -0.1241
    200  CA         0.6280  -19.2410  -12.7920 C.3   316  PHE316      0.1605
    201  C         -0.2660  -18.5310  -11.7710 C.2   316  PHE316      0.2264
    202  O         -1.2630  -19.0990  -11.3360 O.2   316  PHE316     -0.2867
    203  CB        -0.1800  -19.1580  -14.0810 C.3   316  PHE316      0.0534
    204  CG         0.4170  -19.8610  -15.2760 C.ar  316  PHE316     -0.0203
    205  CD1        0.1330  -21.2020  -15.5330 C.ar  316  PHE316     -0.0042
    206  CD2        1.1800  -19.1670  -16.1890 C.ar  316  PHE316     -0.0042
    207  CE1        0.6400  -21.8330  -16.6540 C.ar  316  PHE316     -0.0003
    208  CE2        1.6880  -19.7930  -17.3290 C.ar  316  PHE316     -0.0003
    209  CZ         1.4110  -21.1240  -17.5570 C.ar  316  PHE316     -0.0000
    210  N          0.0210  -28.9740   -3.9320 N.3   382  CYS382     -0.1235
    211  CA        -0.5550  -30.2500   -4.2690 C.3   382  CYS382      0.1677
    212  C         -1.2320  -30.9230   -3.1020 C.2   382  CYS382      0.2270
    213  O         -0.5940  -31.2160   -2.1030 O.2   382  CYS382     -0.2867
    214  CB         0.5660  -31.1600   -4.7790 C.3   382  CYS382      0.0956
    215  SG         0.0570  -32.8190   -5.1630 S.3   382  CYS382     -0.0801
    216  N          7.1640  -32.5550  -23.2880 N.3   417  GLU417     -0.1245
    217  CA         6.1510  -31.9260  -22.4820 C.3   417  GLU417      0.1567
    218  C          4.7990  -32.2840  -23.0370 C.2   417  GLU417      0.2260
    219  O          4.5210  -31.9930  -24.1970 O.2   417  GLU417     -0.2867
    220  CB         6.3310  -30.4120  -22.4520 C.3   417  GLU417      0.0388
    221  CG         5.1160  -29.7190  -21.7900 C.3   417  GLU417      0.1160
    222  CD         5.4320  -28.3430  -21.1690 C.2   417  GLU417      0.3649
    223  OE1        6.4850  -27.7160  -21.5350 O.co2 417  GLU417     -0.2457
    224  OE2        4.6090  -27.9230  -20.3060 O.co2 417  GLU417     -0.2457
    225  N          0.8170  -32.8050  -20.8230 N.3   419  ALA419     -0.1231
    226  CA         0.2700  -32.1040  -19.6490 C.3   419  ALA419      0.1694
    227  C          1.4110  -31.7460  -18.6640 C.2   419  ALA419      0.2592
    228  O          1.3160  -30.7800  -17.9110 O.2   419  ALA419     -0.2718
    229  CB        -0.7940  -32.9580  -18.9500 C.3   419  ALA419      0.0304
    230  N          2.4810  -32.5360  -18.7050 N.am  420  THR420     -0.1953
    231  CA         3.5340  -32.4800  -17.7190 C.3   420  THR420      0.1897
    232  C          4.8430  -32.8580  -18.4160 C.2   420  THR420      0.2313
    233  O          4.8370  -33.2970  -19.5660 O.2   420  THR420     -0.2863
    234  CB         3.2770  -33.5330  -16.6000 C.3   420  THR420      0.1794
    235  OG1        3.2020  -34.8420  -17.1880 O.3   420  THR420     -0.2208
    236  CG2        1.9990  -33.2750  -15.8240 C.3   420  THR420      0.0378
@<TRIPOS>BOND
     1   135   134    2
     2   134   133    1
     3   133   132    1
     4   133   136    1
     5   132   127   am
     6   129   130    1
     7   129   131    1
     8   129   126    1
     9   127   128    2
    10   127   126    1
    11   136   137    1
    12   126   125    1
    13   137   139    1
    14   137   138    1
    15   125   119   am
    16   123   122    2
    17   120   119    2
    18   119   118    1
    19   122   124   am
    20   122   121    1
    21   121   118    1
    22   118   117    1
    23   117   108   am
    24   116   114    1
    25   109   108    2
    26   108   107    1
    27   114   115    1
    28   114   113    2
    29   112   113    1
    30   112   111    1
    31   106   107    1
    32   107   110    1
    33    14    13    1
    34   111   110    1
    35    12    11    2
    36    10    11    1
    37    10    13    1
    38    10     9    1
    39    19    18    2
    40    11    16   am
    41    13    15    1
    42     7     6    1
    43    30    29    2
    44    18    17    1
    45    18    27   am
    46    16    17    1
    47    29    28    1
    48    28    27    1
    49    28    31    1
    50   219   218    2
    51    17    20    1
    52    34    36   ar
    53    34    32   ar
    54     8     6    1
    55     1     2    1
    56     6     5    1
    57     5     2    1
    58     2     3    1
    59    36    35   ar
    60   216   217    1
    61    32    31    1
    62    32    33   ar
    63   218   217    1
    64    20    21    1
    65   217   220    1
    66   220   221    1
    67    35    33   ar
    68     3     4    2
    69    22    21   ar
    70    22    24   ar
    71    21    23   ar
    72   221   222    1
    73    24    26   ar
    74    79    76    1
    75   223   222   ar
    76    76    77    1
    77    76    75    1
    78    78    77    2
    79    23    25   ar
    80   222   224   ar
    81    26    25   ar
    82   225   226    1
    83    77    80   am
    84    62    61    1
    85    49    48    2
    86    51    50    1
    87    51    52    1
    88   226   229    1
    89   226   227    1
    90   233   232    2
    91    53    52    1
    92    53    54    1
    93    80    81    1
    94    61    60    1
    95    50    47    1
    96    48    47    1
    97    48    55   am
    98    58    57    2
    99   230   227   am
   100   230   231    1
   101   227   228    2
   102    81    82    1
   103    81    84    1
   104    83    82    2
   105    47    46    1
   106   232   231    1
   107   168   166   ar
   108    56    57    1
   109    56    55    1
   110    56    59    1
   111    86    85    1
   112    57    63   am
   113   231   234    1
   114   189   190   ar
   115   189   187   ar
   116   167   166   ar
   117   209   208   ar
   118   209   207   ar
   119    60    59    1
   120    88    89    1
   121   166   165    1
   122   192   190   ar
   123   192   194   ar
   124    65    66    2
   125    65    64    1
   126    97    98   ar
   127    97    95   ar
   128   208   206   ar
   129    98    96   ar
   130   235   234    1
   131    84    85    1
   132   190   188   ar
   133   187   186   ar
   134    63    64    1
   135    85    87    1
   136    95    93   ar
   137   194   193   ar
   138   154   152    1
   139   152   151    1
   140   207   205   ar
   141    64    67    1
   142   234   236    1
   143    96    94   ar
   144   165   164    1
   145   206   204   ar
   146    93    94   ar
   147    93    92    1
   148   153   151    1
   149   188   186   ar
   150   188   191   ar
   151    89    92    1
   152    89    90    1
   153   186   185    1
   154   193   191   ar
   155   151   148    1
   156   205   204   ar
   157   164   161    1
   158    90    91    2
   159   204   203    1
   160    67    68    1
   161   185   182    1
   162   161   162    1
   163   161   160    1
   164   163   162    2
   165    68    69   ar
   166    68    70   ar
   167   148   147    1
   168   148   149    1
   169    69    71   ar
   170   203   200    1
   171   162   169   am
   172    70    72   ar
   173   181   182    1
   174   181   178   am
   175   182   183    1
   176    71    73   ar
   177   149   150    2
   178   149   155   am
   179    72    73   ar
   180   169   170    1
   181   140   141    1
   182   176   177    1
   183   183   195   am
   184   183   184    2
   185    73    74    1
   186   177   178    1
   187   177   180    1
   188   175   173    1
   189   195   196    1
   190   200   199    1
   191   200   201    1
   192   178   179    2
   193   155   156    1
   194   170   173    1
   195   170   171    1
   196   141   142    1
   197   141   144    1
   198   145   144    1
   199   196   197    1
   200   197   198    2
   201   173   174    1
   202   143   142    2
   203   201   202    2
   204   171   172    2
   205   156   159    1
   206   156   157    1
   207   104   103    1
   208   144   146    1
   209    39    40    2
   210    39    38    1
   211   103   105    1
   212   103   100    1
   213   101   102    2
   214   101   100    1
   215   157   158    2
   216    41    38    1
   217    41    42    1
   218    38    37    1
   219   100    99    1
   220    43    42    1
   221    43    44    1
   222    45    44    1
   223   215   214    1
   224   214   211    1
   225   211   210    1
   226   211   212    1
   227   212   213    2
