@<TRIPOS>MOLECULE
tmp/4j16B01.pdb
 88 82 0 0 0
SMALL
GASTEIGER

@<TRIPOS>ATOM
      1  N         40.8290  -29.2830  -38.3820 N.3   118  GLU118     -0.1245
      2  CA        39.4240  -29.7160  -38.3620 C.3   118  GLU118      0.1567
      3  C         39.2750  -31.2430  -38.3030 C.2   118  GLU118      0.2260
      4  O         38.1800  -31.7490  -38.0520 O.2   118  GLU118     -0.2867
      5  CB        38.6250  -29.1270  -39.5380 C.3   118  GLU118      0.0388
      6  CG        38.9160  -29.6930  -40.9180 C.3   118  GLU118      0.1160
      7  CD        40.1030  -29.0560  -41.6190 C.2   118  GLU118      0.3649
      8  OE1       40.8510  -28.2840  -40.9850 O.co2 118  GLU118     -0.2457
      9  OE2       40.2950  -29.3420  -42.8230 O.co2 118  GLU118     -0.2457
     10  N         40.7610  -33.0710  -36.0070 N.3   120  ILE120     -0.1245
     11  CA        40.9830  -33.4890  -34.6320 C.3   120  ILE120      0.1561
     12  C         39.6960  -34.2000  -34.2130 C.2   120  ILE120      0.2260
     13  O         38.6090  -33.6860  -34.4530 O.2   120  ILE120     -0.2867
     14  CB        41.2490  -32.2940  -33.6920 C.3   120  ILE120      0.0252
     15  CG1       42.4590  -31.4700  -34.1630 C.3   120  ILE120      0.0019
     16  CG2       41.4510  -32.7730  -32.2550 C.3   120  ILE120      0.0019
     17  CD1       43.8140  -32.1060  -33.9310 C.3   120  ILE120      0.0001
     18  N         36.5760  -35.3870  -32.0650 N.3   122  ARG122     -0.1245
     19  CA        35.7700  -34.6350  -31.0970 C.3   122  ARG122      0.1563
     20  C         35.5140  -35.4410  -29.8150 C.2   122  ARG122      0.2260
     21  O         34.3810  -35.8270  -29.5200 O.2   122  ARG122     -0.2867
     22  CB        34.4540  -34.1770  -31.7450 C.3   122  ARG122      0.0307
     23  CG        34.6020  -33.5040  -33.1120 C.3   122  ARG122      0.0489
     24  CD        35.6900  -32.4340  -33.1600 C.3   122  ARG122      0.2205
     25  NE        35.4390  -31.3170  -32.2490 N.pl3 122  ARG122     -0.0865
     26  CZ        34.7950  -30.1900  -32.5670 C.cat 122  ARG122      0.5346
     27  NH1       34.3040  -29.9980  -33.7890 N.pl3 122  ARG122      0.1354
     28  NH2       34.6280  -29.2400  -31.6510 N.pl3 122  ARG122      0.1354
     29  N         38.5280  -26.4440  -33.3390 N.3   132  LEU132     -0.1245
     30  CA        37.1050  -26.2650  -33.6810 C.3   132  LEU132      0.1561
     31  C         36.3050  -25.8540  -32.4480 C.2   132  LEU132      0.2260
     32  O         35.5210  -24.9230  -32.5090 O.2   132  LEU132     -0.2867
     33  CB        36.4870  -27.5260  -34.3150 C.3   132  LEU132      0.0270
     34  CG        36.8710  -27.8450  -35.7670 C.3   132  LEU132      0.0019
     35  CD1       36.3300  -29.2090  -36.1850 C.3   132  LEU132      0.0001
     36  CD2       36.4070  -26.7740  -36.7400 C.3   132  LEU132      0.0001
     37  N         19.8380  -34.0390  -32.0380 N.3   199  ARG199     -0.1245
     38  CA        20.4910  -35.0040  -31.1710 C.3   199  ARG199      0.1563
     39  C         20.0990  -34.7440  -29.7340 C.2   199  ARG199      0.2260
     40  O         20.1780  -33.6150  -29.2590 O.2   199  ARG199     -0.2867
     41  CB        21.9990  -34.9090  -31.3410 C.3   199  ARG199      0.0307
     42  CG        22.4350  -34.9570  -32.8010 C.3   199  ARG199      0.0489
     43  CD        23.9370  -34.9010  -32.9290 C.3   199  ARG199      0.2205
     44  NE        24.4670  -33.9260  -31.9910 N.pl3 199  ARG199     -0.0865
     45  CZ        25.6960  -33.9390  -31.4960 C.cat 199  ARG199      0.5346
     46  NH1       26.5680  -34.8740  -31.8650 N.pl3 199  ARG199      0.1354
     47  NH2       26.0540  -32.9970  -30.6350 N.pl3 199  ARG199      0.1354
     48  N         18.6870  -38.8000  -35.8310 N.3   220  ALA220     -0.1231
     49  CA        19.5560  -38.2360  -36.8880 C.3   220  ALA220      0.1694
     50  C         21.0640  -38.0600  -36.5900 C.2   220  ALA220      0.2592
     51  O         21.6200  -36.9790  -36.7840 O.2   220  ALA220     -0.2718
     52  CB        18.9660  -36.9160  -37.3720 C.3   220  ALA220      0.0304
     53  N         21.7120  -39.1300  -36.1410 N.am  221  GLU221     -0.1966
     54  CA        23.1690  -39.1380  -35.9590 C.3   221  GLU221      0.1733
     55  C         23.7490  -40.2410  -36.8540 C.2   221  GLU221      0.2616
     56  O         23.0210  -41.1620  -37.2420 O.2   221  GLU221     -0.2715
     57  CB        23.5360  -39.3950  -34.4960 C.3   221  GLU221      0.0429
     58  CG        22.4360  -39.0430  -33.5080 C.3   221  GLU221      0.1163
     59  CD        22.8770  -39.1120  -32.0610 C.2   221  GLU221      0.3649
     60  OE1       22.1370  -38.5820  -31.2020 O.co2 221  GLU221     -0.2457
     61  OE2       23.9520  -39.6880  -31.7820 O.co2 221  GLU221     -0.2457
     62  N         25.0410  -40.1610  -37.1860 N.am  222  GLY222     -0.1955
     63  CA        25.9160  -39.0690  -36.7600 C.3   222  GLY222      0.1869
     64  C         27.2610  -39.1170  -37.4680 C.2   222  GLY222      0.2309
     65  O         27.9420  -40.1420  -37.4700 O.2   222  GLY222     -0.2863
     66  N         25.2740  -27.5070  -38.7740 N.3   253  GLN253     -0.1231
     67  CA        26.1650  -27.8380  -39.8870 C.3   253  GLN253      0.1698
     68  C         26.4060  -29.3560  -39.9610 C.2   253  GLN253      0.2592
     69  O         26.3750  -30.0530  -38.9450 O.2   253  GLN253     -0.2718
     70  CB        27.4750  -27.0150  -39.8080 C.3   253  GLN253      0.0381
     71  CG        27.2410  -25.5290  -40.1240 C.3   253  GLN253      0.0905
     72  CD        28.4930  -24.6790  -40.2990 C.2   253  GLN253      0.2608
     73  OE1       28.7550  -24.1570  -41.3850 O.2   253  GLN253     -0.2717
     74  NE2       29.2400  -24.4940  -39.2220 N.am  253  GLN253     -0.0878
     75  N         26.6100  -29.8580  -41.1790 N.am  254  VAL254     -0.1966
     76  CA        26.9490  -31.2690  -41.4020 C.3   254  VAL254      0.1712
     77  C         28.2780  -31.3060  -42.1480 C.2   254  VAL254      0.2458
     78  O         28.4230  -30.6250  -43.1570 O.2   254  VAL254     -0.2730
     79  CB        25.8850  -31.9880  -42.2530 C.3   254  VAL254      0.0289
     80  CG1       26.2720  -33.4440  -42.4830 C.3   254  VAL254      0.0023
     81  CG2       24.5110  -31.8970  -41.6010 C.3   254  VAL254      0.0023
     82  N         29.2430  -32.0860  -41.6520 N.am  255  PRO255     -0.2727
     83  CA        30.5580  -32.2090  -42.2980 C.3   255  PRO255      0.1402
     84  C         30.5500  -32.4470  -43.8200 C.2   255  PRO255      0.2269
     85  O         29.9030  -33.3750  -44.3080 O.2   255  PRO255     -0.2865
     86  CB        31.1810  -33.3980  -41.5640 C.3   255  PRO255      0.0296
     87  CG        30.6340  -33.2770  -40.1820 C.3   255  PRO255      0.0237
     88  CD        29.2240  -32.7710  -40.3430 C.3   255  PRO255      0.0939
@<TRIPOS>BOND
     1    85    84    2
     2    84    83    1
     3    78    77    2
     4     9     7   ar
     5    80    79    1
     6    83    82    1
     7    83    86    1
     8    79    81    1
     9    79    76    1
    10    77    82   am
    11    77    76    1
    12    82    88    1
    13     7     8   ar
    14     7     6    1
    15    86    87    1
    16    76    75    1
    17    73    72    2
    18    75    68   am
    19     6     5    1
    20    88    87    1
    21    72    71    1
    22    72    74   am
    23    71    70    1
    24    68    67    1
    25    68    69    2
    26    67    70    1
    27    67    66    1
    28     5     2    1
    29     1     2    1
    30     2     3    1
    31     3     4    2
    32    65    64    2
    33    64    63    1
    34    52    49    1
    35    56    55    2
    36    62    55   am
    37    62    63    1
    38    49    50    1
    39    49    48    1
    40    55    54    1
    41    51    50    2
    42    36    34    1
    43    50    53   am
    44    35    34    1
    45    53    54    1
    46    10    11    1
    47    54    57    1
    48    34    33    1
    49    11    12    1
    50    11    14    1
    51    57    58    1
    52    13    12    2
    53    33    30    1
    54    15    17    1
    55    15    14    1
    56    27    26    1
    57    14    16    1
    58    30    29    1
    59    30    31    1
    60    58    59    1
    61    24    23    1
    62    24    25    1
    63    23    22    1
    64    43    42    1
    65    43    44    1
    66    42    41    1
    67    26    25    2
    68    26    28    1
    69    32    31    2
    70    18    19    1
    71    59    61   ar
    72    59    60   ar
    73    37    38    1
    74    44    45    2
    75    46    45    1
    76    22    19    1
    77    45    47    1
    78    41    38    1
    79    38    39    1
    80    19    20    1
    81    20    21    2
    82    39    40    2
