@<TRIPOS>MOLECULE
tmp/4j1fA00.pdb
 218 211 0 0 0
SMALL
GASTEIGER

@<TRIPOS>ATOM
      1  N        -24.7540  -46.6910    0.8360 N.3    16  GLY16      -0.1210
      2  CA       -24.5880  -46.8630   -0.6260 C.3    16  GLY16       0.1956
      3  C        -24.8560  -45.5760   -1.4200 C.2    16  GLY16       0.2612
      4  O        -24.9310  -45.6000   -2.6460 O.2    16  GLY16      -0.2717
      5  N        -25.0120  -44.4340   -0.7490 N.am   17  GLN17      -0.1965
      6  CA       -25.2130  -43.2150   -1.5220 C.3    17  GLN17       0.1733
      7  C        -24.1870  -42.1550   -1.2730 C.2    17  GLN17       0.2617
      8  O        -24.2820  -41.0910   -1.8950 O.2    17  GLN17      -0.2715
      9  CB       -26.6430  -42.6500   -1.3810 C.3    17  GLN17       0.0408
     10  CG       -27.6820  -43.2430   -2.3540 C.3    17  GLN17       0.0908
     11  CD       -29.1270  -42.7600   -2.1200 C.2    17  GLN17       0.2608
     12  OE1      -29.3900  -41.7640   -1.4240 O.2    17  GLN17      -0.2717
     13  NE2      -30.0790  -43.4760   -2.7140 N.am   17  GLN17      -0.0878
     14  N        -23.2200  -42.3980   -0.3560 N.am   18  GLY18      -0.1940
     15  CA       -22.1050  -41.4780   -0.1580 C.3    18  GLY18       0.2014
     16  C        -22.3040  -40.5070    0.9720 C.2    18  GLY18       0.2638
     17  O        -23.3490  -40.4850    1.5880 O.2    18  GLY18      -0.2714
     18  N        -21.2990  -39.6760    1.2600 N.am   19  TYR19      -0.1973
     19  CA       -21.4310  -38.7920    2.3930 C.3    19  TYR19       0.1639
     20  C        -21.3870  -37.3820    1.8570 C.2    19  TYR19       0.2290
     21  O        -20.4680  -37.0660    1.0720 O.2    19  TYR19      -0.2864
     22  CB       -20.2700  -39.0250    3.3540 C.3    19  TYR19       0.0560
     23  CG       -20.3310  -40.3790    4.0920 C.ar   19  TYR19      -0.0198
     24  CD1      -19.8580  -41.5410    3.4760 C.ar   19  TYR19      -0.0009
     25  CD2      -20.8920  -40.4820    5.3820 C.ar   19  TYR19      -0.0009
     26  CE1      -19.8590  -42.7590    4.1580 C.ar   19  TYR19       0.0417
     27  CE2      -20.9120  -41.7030    6.0530 C.ar   19  TYR19       0.0417
     28  CZ       -20.3990  -42.8310    5.4210 C.ar   19  TYR19       0.1957
     29  OH       -20.4010  -44.0810    6.0010 O.3    19  TYR19      -0.2866
     30  N        -21.5110  -33.9300   -2.3000 N.3    35  LEU35      -0.1245
     31  CA       -20.8600  -35.2310   -1.9660 C.3    35  LEU35       0.1561
     32  C        -19.3900  -34.9280   -1.6860 C.2    35  LEU35       0.2260
     33  O        -18.7390  -34.1770   -2.4500 O.2    35  LEU35      -0.2867
     34  CB       -21.0890  -36.2880   -3.0600 C.3    35  LEU35       0.0270
     35  CG       -20.3560  -37.6090   -2.9370 C.3    35  LEU35       0.0019
     36  CD1      -21.2240  -38.5300   -2.0730 C.3    35  LEU35       0.0001
     37  CD2      -20.0230  -38.3070   -4.2590 C.3    35  LEU35       0.0001
     38  N        -15.6470  -35.8980   -1.8730 N.3    37  ASP37      -0.1239
     39  CA       -14.9630  -36.9170   -2.7000 C.3    37  ASP37       0.1674
     40  C        -13.4440  -36.7160   -2.7780 C.2    37  ASP37       0.2266
     41  O        -12.9720  -35.7920   -3.4970 O.2    37  ASP37      -0.2867
     42  CB       -15.6340  -36.9280   -4.0610 C.3    37  ASP37       0.1410
     43  CG       -14.9860  -37.8880   -5.0840 C.2    37  ASP37       0.3668
     44  OD1      -14.2810  -38.8300   -4.7010 O.co2  37  ASP37      -0.2456
     45  OD2      -15.2380  -37.6730   -6.3070 O.co2  37  ASP37      -0.2456
     46  N        -11.3760  -38.5980   -4.0940 N.3    39  GLY39      -0.1210
     47  CA       -10.7790  -39.1680   -5.3560 C.3    39  GLY39       0.1956
     48  C        -11.0430  -38.3680   -6.6370 C.2    39  GLY39       0.2612
     49  O        -10.9230  -38.9230   -7.7250 O.2    39  GLY39      -0.2717
     50  N        -11.4160  -37.0920   -6.5240 N.am   40  SER40      -0.1952
     51  CA       -11.5470  -36.1950   -7.6840 C.3    40  SER40       0.1924
     52  C        -11.2450  -34.7710   -7.2340 C.2    40  SER40       0.2314
     53  O        -11.2000  -34.5220   -6.0270 O.2    40  SER40      -0.2863
     54  CB       -12.9860  -36.2700   -8.3090 C.3    40  SER40       0.2116
     55  OG       -13.9580  -35.6810   -7.4400 O.3    40  SER40      -0.2180
     56  N        -16.5500  -40.5590  -16.9940 N.3    76  TYR76      -0.1227
     57  CA       -16.0240  -41.5070  -16.0310 C.3    76  TYR76       0.1736
     58  C        -16.4500  -42.8540  -16.6150 C.2    76  TYR76       0.2596
     59  O        -17.0210  -42.8880  -17.7210 O.2    76  TYR76      -0.2718
     60  CB       -16.6710  -41.2580  -14.6720 C.3    76  TYR76       0.0548
     61  CG       -16.1910  -39.9820  -14.0320 C.ar   76  TYR76      -0.0200
     62  CD1      -14.8420  -39.8110  -13.7420 C.ar   76  TYR76      -0.0009
     63  CD2      -17.0740  -38.9590  -13.7040 C.ar   76  TYR76      -0.0009
     64  CE1      -14.3640  -38.6590  -13.1680 C.ar   76  TYR76       0.0417
     65  CE2      -16.6230  -37.7890  -13.1250 C.ar   76  TYR76       0.0417
     66  CZ       -15.2620  -37.6370  -12.8640 C.ar   76  TYR76       0.1957
     67  OH       -14.7570  -36.4850  -12.2790 O.3    76  TYR76      -0.2866
     68  N        -16.2280  -43.9670  -15.9170 N.am   77  THR77      -0.1939
     69  CA       -16.6330  -45.2740  -16.4890 C.3    77  THR77       0.2028
     70  C        -18.1500  -45.4250  -16.4470 C.2    77  THR77       0.2642
     71  O        -18.7940  -45.8000  -17.4380 O.2    77  THR77      -0.2714
     72  CB       -16.0020  -46.4500  -15.7300 C.3    77  THR77       0.1808
     73  OG1      -15.1300  -45.9510  -14.7000 O.3    77  THR77      -0.2208
     74  CG2      -15.2620  -47.3870  -16.7150 C.3    77  THR77       0.0379
     75  N        -18.6930  -45.1250  -15.2690 N.am   78  GLN78      -0.1976
     76  CA       -20.1130  -44.9150  -15.0880 C.3    78  GLN78       0.1601
     77  C        -20.4630  -43.4880  -15.5970 C.2    78  GLN78       0.2287
     78  O        -20.4060  -42.5260  -14.8250 O.2    78  GLN78      -0.2864
     79  CB       -20.4400  -45.1060  -13.5910 C.3    78  GLN78       0.0394
     80  CG       -21.8880  -45.4700  -13.2530 C.3    78  GLN78       0.0908
     81  CD       -22.0270  -46.3160  -11.9840 C.2    78  GLN78       0.2608
     82  OE1      -22.6180  -47.4050  -12.0050 O.2    78  GLN78      -0.2717
     83  NE2      -21.4810  -45.8200  -10.8720 N.am   78  GLN78      -0.0878
     84  N        -20.6050  -35.9590  -17.0050 N.3    81  TRP81      -0.1241
     85  CA       -21.3020  -34.6530  -16.9100 C.3    81  TRP81       0.1605
     86  C        -20.6180  -33.6050  -17.7650 C.2    81  TRP81       0.2264
     87  O        -19.4140  -33.7270  -18.0130 O.2    81  TRP81      -0.2867
     88  CB       -21.4810  -34.2130  -15.4860 C.3    81  TRP81       0.0550
     89  CG       -20.2230  -34.0360  -14.7080 C.ar   81  TRP81       0.0003
     90  CD1      -19.6770  -34.9280  -13.8140 C.ar   81  TRP81       0.0946
     91  CD2      -19.3190  -32.8330  -14.6410 C.ar   81  TRP81       0.0152
     92  NE1      -18.5450  -34.3960  -13.2260 N.ar   81  TRP81      -0.2442
     93  CE2      -18.2740  -33.1630  -13.6820 C.ar   81  TRP81       0.0810
     94  CE3      -19.2810  -31.5750  -15.2740 C.ar   81  TRP81       0.0012
     95  CZ2      -17.2320  -32.2680  -13.3550 C.ar   81  TRP81       0.0191
     96  CZ3      -18.2180  -30.6890  -14.9330 C.ar   81  TRP81       0.0001
     97  CH2      -17.2290  -31.0300  -13.9870 C.ar   81  TRP81       0.0015
     98  N        -26.1710  -40.7970  -15.7540 N.3   112  LYS112     -0.1182
     99  CA       -25.7980  -41.8080  -14.7680 C.3   112  LYS112      0.1909
    100  C        -24.8470  -41.2190  -13.7600 C.2   112  LYS112      0.2634
    101  O        -23.9720  -41.8710  -13.3240 O.2   112  LYS112     -0.2714
    102  CB       -25.1430  -43.0630  -15.4310 C.2   112  LYS112     -0.0028
    103  CG       -25.9680  -43.7590  -16.5510 C.2   112  LYS112     -0.0272
    104  CD       -25.5270  -45.1840  -16.9420 C.3   112  LYS112      0.0462
    105  CE       -26.4780  -45.6850  -18.0280 C.3   112  LYS112      0.1140
    106  NZ       -26.7940  -47.1610  -18.1230 N.3   112  LYS112     -0.1310
    107  N        -25.0000  -39.9600  -13.4300 N.am  113  PHE113     -0.1973
    108  CA       -24.1760  -39.2940  -12.4570 C.3   113  PHE113      0.1639
    109  C        -25.0010  -39.0710  -11.1830 C.2   113  PHE113      0.2290
    110  O        -24.5890  -39.4730  -10.0980 O.2   113  PHE113     -0.2864
    111  CB       -23.6660  -37.9690  -13.0570 C.3   113  PHE113      0.0560
    112  CG       -22.8110  -37.1470  -12.1230 C.ar  113  PHE113     -0.0200
    113  CD1      -21.4670  -37.4870  -11.9060 C.ar  113  PHE113     -0.0042
    114  CD2      -23.3320  -36.0200  -11.4620 C.ar  113  PHE113     -0.0042
    115  CE1      -20.6990  -36.7280  -11.0690 C.ar  113  PHE113     -0.0003
    116  CE2      -22.5360  -35.2790  -10.5900 C.ar  113  PHE113     -0.0003
    117  CZ       -21.2280  -35.6130  -10.4150 C.ar  113  PHE113     -0.0000
    118  N        -27.9320  -39.6500   -8.3910 N.3   115  ILE115     -0.1245
    119  CA       -28.6300  -40.8760   -7.9720 C.3   115  ILE115      0.1561
    120  C        -30.0990  -40.4600   -7.7010 C.2   115  ILE115      0.2260
    121  O        -30.3810  -39.4510   -6.9980 O.2   115  ILE115     -0.2867
    122  CB       -27.9800  -41.5440   -6.6980 C.3   115  ILE115      0.0252
    123  CG1      -26.5860  -42.0370   -6.9380 C.3   115  ILE115      0.0019
    124  CG2      -28.8140  -42.7130   -6.1480 C.3   115  ILE115      0.0019
    125  CD1      -25.8020  -42.1170   -5.6280 C.3   115  ILE115      0.0001
    126  N        -28.2100  -35.3960   -2.5140 N.3   120  TRP120     -0.1241
    127  CA       -27.1800  -34.4670   -2.9000 C.3   120  TRP120      0.1605
    128  C        -27.1670  -34.0410   -4.3290 C.2   120  TRP120      0.2264
    129  O        -27.6590  -34.7540   -5.1860 O.2   120  TRP120     -0.2867
    130  CB       -25.8090  -34.9650   -2.4810 C.3   120  TRP120      0.0550
    131  CG       -25.4160  -36.2800   -3.0570 C.ar  120  TRP120      0.0003
    132  CD1      -25.4760  -37.5040   -2.4340 C.ar  120  TRP120      0.0946
    133  CD2      -24.8500  -36.5750   -4.3990 C.ar  120  TRP120      0.0152
    134  NE1      -25.0080  -38.4820   -3.2680 N.ar  120  TRP120     -0.2442
    135  CE2      -24.6490  -38.0060   -4.4440 C.ar  120  TRP120      0.0810
    136  CE3      -24.5250  -35.8180   -5.5250 C.ar  120  TRP120      0.0012
    137  CZ2      -24.0830  -38.6440   -5.5550 C.ar  120  TRP120      0.0191
    138  CZ3      -23.9860  -36.4860   -6.6370 C.ar  120  TRP120      0.0001
    139  CH2      -23.7480  -37.8490   -6.6380 C.ar  120  TRP120      0.0015
    140  N        -20.6820  -32.4470   -6.3110 N.3   123  ILE123     -0.1245
    141  CA       -19.5570  -33.1860   -5.8040 C.3   123  ILE123      0.1561
    142  C        -18.4480  -32.2230   -5.4360 C.2   123  ILE123      0.2260
    143  O        -18.1220  -31.2940   -6.2230 O.2   123  ILE123     -0.2867
    144  CB       -19.0330  -34.1560   -6.8700 C.3   123  ILE123      0.0252
    145  CG1      -20.0090  -35.3010   -7.0320 C.3   123  ILE123      0.0019
    146  CG2      -17.7190  -34.8220   -6.4350 C.3   123  ILE123      0.0019
    147  CD1      -19.2670  -36.6020   -7.3570 C.3   123  ILE123      0.0001
    148  N         -4.1900  -37.9440   -7.1430 N.3   192  TYR192     -0.1241
    149  CA        -5.0470  -38.5570   -6.0970 C.3   192  TYR192      0.1605
    150  C         -4.2670  -38.5350   -4.7680 C.2   192  TYR192      0.2264
    151  O         -3.1090  -38.1390   -4.7340 O.2   192  TYR192     -0.2867
    152  CB        -5.3250  -40.0170   -6.4090 C.3   192  TYR192      0.0534
    153  CG        -5.9610  -40.2240   -7.7370 C.ar  192  TYR192     -0.0201
    154  CD1       -7.3580  -40.2380   -7.8410 C.ar  192  TYR192     -0.0009
    155  CD2       -5.1910  -40.4270   -8.8970 C.ar  192  TYR192     -0.0009
    156  CE1       -7.9780  -40.4180   -9.0770 C.ar  192  TYR192      0.0417
    157  CE2       -5.8130  -40.6710  -10.1330 C.ar  192  TYR192      0.0417
    158  CZ        -7.2050  -40.6580  -10.2130 C.ar  192  TYR192      0.1957
    159  OH        -7.9070  -40.8230  -11.4070 O.3   192  TYR192     -0.2866
    160  N        -10.0090  -42.9000   -1.2690 N.3   222  ASP222     -0.1225
    161  CA       -11.1610  -42.2720   -2.0370 C.3   222  ASP222      0.1805
    162  C        -12.5710  -42.3470   -1.3450 C.2   222  ASP222      0.2598
    163  O        -13.1890  -43.3580   -1.3940 O.2   222  ASP222     -0.2718
    164  CB       -11.2490  -42.9650   -3.3750 C.3   222  ASP222      0.1424
    165  CG       -12.3120  -42.3900   -4.2440 C.2   222  ASP222      0.3668
    166  OD1      -12.8950  -41.3730   -3.8150 O.co2 222  ASP222     -0.2456
    167  OD2      -12.5660  -42.9160   -5.3560 O.co2 222  ASP222     -0.2456
    168  N        -13.0740  -41.2870   -0.7240 N.am  223  SER223     -0.1938
    169  CA       -14.3780  -41.3320   -0.0400 C.3   223  SER223      0.2055
    170  C        -15.5470  -41.3020   -1.0340 C.2   223  SER223      0.2644
    171  O        -16.7290  -41.3600   -0.6770 O.2   223  SER223     -0.2714
    172  CB       -14.4490  -40.1380    0.8800 C.3   223  SER223      0.2130
    173  OG       -14.3590  -38.9480    0.1320 O.3   223  SER223     -0.2179
    174  N        -15.2150  -41.1500   -2.3000 N.am  224  GLY224     -0.1939
    175  CA       -16.2360  -41.0740   -3.2700 C.3   224  GLY224      0.2014
    176  C        -16.4280  -42.4330   -3.9440 C.2   224  GLY224      0.2640
    177  O        -17.1090  -42.4870   -4.9340 O.2   224  GLY224     -0.2714
    178  N        -15.8290  -43.5070   -3.3990 N.am  225  THR225     -0.1936
    179  CA       -16.0590  -44.9110   -3.8740 C.3   225  THR225      0.2028
    180  C        -16.5350  -45.7180   -2.6830 C.2   225  THR225      0.2642
    181  O        -16.1320  -45.4530   -1.5360 O.2   225  THR225     -0.2714
    182  CB       -14.7570  -45.5660   -4.4310 C.3   225  THR225      0.1808
    183  OG1      -14.2930  -44.8460   -5.5760 O.3   225  THR225     -0.2208
    184  CG2      -14.9730  -46.9440   -4.8690 C.3   225  THR225      0.0379
    185  N        -17.4170  -46.6610   -2.9200 N.am  226  THR226     -0.1950
    186  CA       -17.9190  -47.5080   -1.8170 C.3   226  THR226      0.1897
    187  C        -16.9230  -48.6460   -1.4890 C.2   226  THR226      0.2313
    188  O        -16.5140  -48.8330   -0.3460 O.2   226  THR226     -0.2863
    189  CB       -19.2650  -48.1550   -2.2160 C.3   226  THR226      0.1794
    190  OG1      -20.2070  -47.1330   -2.4720 O.3   226  THR226     -0.2208
    191  CG2      -19.8140  -49.0660   -1.1520 C.3   226  THR226      0.0378
    192  N        -11.3200  -51.7230   -3.3550 N.3   229  ARG229     -0.1245
    193  CA       -11.1810  -52.2290   -4.6830 C.3   229  ARG229      0.1563
    194  C         -9.7220  -52.6430   -4.7760 C.2   229  ARG229      0.2260
    195  O         -8.8040  -51.8700   -4.3530 O.2   229  ARG229     -0.2867
    196  CB       -11.5610  -51.1630   -5.7140 C.3   229  ARG229      0.0307
    197  CG       -13.0140  -50.6080   -5.5590 C.3   229  ARG229      0.0489
    198  CD       -13.4630  -49.6670   -6.7010 C.3   229  ARG229      0.2205
    199  NE       -13.5230  -50.4310   -7.9330 N.pl3 229  ARG229     -0.0865
    200  CZ       -12.9350  -50.1290   -9.0920 C.cat 229  ARG229      0.5346
    201  NH1      -13.0490  -50.9770  -10.1230 N.pl3 229  ARG229      0.1354
    202  NH2      -12.2900  -48.9880   -9.2650 N.pl3 229  ARG229      0.1354
    203  N        -21.6580  -55.1530    3.0520 N.3   301  ARG301     -0.1245
    204  CA       -22.5590  -53.9880    3.1000 C.3   301  ARG301      0.1563
    205  C        -24.0250  -54.3640    3.1800 C.2   301  ARG301      0.2260
    206  O        -24.5050  -55.0810    2.2970 O.2   301  ARG301     -0.2867
    207  CB       -22.4360  -53.1430    1.8320 C.3   301  ARG301      0.0307
    208  CG       -21.0450  -52.6700    1.5370 C.3   301  ARG301      0.0489
    209  CD       -20.5630  -51.8430    2.6950 C.3   301  ARG301      0.2205
    210  NE       -20.9200  -50.4410    2.5040 N.pl3 301  ARG301     -0.0865
    211  CZ       -20.1960  -49.4370    2.9840 C.cat 301  ARG301      0.5346
    212  NH1      -19.0740  -49.7030    3.6650 N.pl3 301  ARG301      0.1354
    213  NH2      -20.5730  -48.1860    2.7770 N.pl3 301  ARG301      0.1354
    214  N        -14.9150  -46.3040    1.0170 N.3   326  ALA326     -0.1245
    215  CA       -15.6320  -46.1320    2.2350 C.3   326  ALA326      0.1562
    216  C        -15.6970  -47.4380    3.0730 C.2   326  ALA326      0.2260
    217  O        -15.8470  -47.3770    4.2760 O.2   326  ALA326     -0.2867
    218  CB       -17.0100  -45.5270    1.9500 C.3   326  ALA326      0.0290
@<TRIPOS>BOND
     1   106   105    1
     2   105   104    1
     3    87    86    2
     4    86    85    1
     5    59    58    2
     6    71    70    2
     7    84    85    1
     8    56    57    1
     9   104   103    1
    10    85    88    1
    11    74    72    1
    12    58    57    1
    13    58    68   am
    14   103   102    2
    15    69    70    1
    16    69    68    1
    17    69    72    1
    18    70    75   am
    19    57    60    1
    20    98    99    1
    21    72    73    1
    22    77    76    1
    23    77    78    2
    24    88    89    1
    25   102    99    1
    26    94    96   ar
    27    94    91   ar
    28    75    76    1
    29    76    79    1
    30    96    97   ar
    31    99   100    1
    32    89    91   ar
    33    89    90   ar
    34    60    61    1
    35    91    93   ar
    36    61    62   ar
    37    61    63   ar
    38    97    95   ar
    39    90    92   ar
    40   100   107   am
    41   100   101    2
    42    62    64   ar
    43    63    65   ar
    44    93    95   ar
    45    93    92   ar
    46    79    80    1
    47   107   108    1
    48    80    81    1
    49    64    66   ar
    50    65    66   ar
    51   111   108    1
    52   111   112    1
    53    66    67    1
    54   108   109    1
    55   112   113   ar
    56   112   114   ar
    57    82    81    2
    58    81    83   am
    59   113   115   ar
    60   114   116   ar
    61   159   158    1
    62   109   110    2
    63   115   117   ar
    64   116   117   ar
    65   158   157   ar
    66   158   156   ar
    67   157   155   ar
    68   201   200    1
    69   202   200    1
    70   200   199    2
    71   156   154   ar
    72   155   153   ar
    73   118   119    1
    74    54    51    1
    75    54    55    1
    76   119   120    1
    77   119   122    1
    78   199   198    1
    79   154   153   ar
    80   153   152    1
    81    49    48    2
    82   120   121    2
    83    51    52    1
    84    51    50    1
    85   147   145    1
    86    52    53    2
    87   148   149    1
    88   145   144    1
    89   123   122    1
    90   123   125    1
    91   144   146    1
    92   144   141    1
    93   198   197    1
    94   122   124    1
    95   139   138   ar
    96   139   137   ar
    97    48    50   am
    98    48    47    1
    99   138   136   ar
   100   152   149    1
   101   140   141    1
   102    45    43   ar
   103   143   142    2
   104   149   150    1
   105   141   142    1
   106   196   197    1
   107   196   193    1
   108   183   182    1
   109   137   135   ar
   110   136   133   ar
   111    47    46    1
   112   167   165   ar
   113   129   128    2
   114    43    44   ar
   115    43    42    1
   116   177   176    2
   117   184   182    1
   118   194   193    1
   119   194   195    2
   120   150   151    2
   121   193   192    1
   122   135   133   ar
   123   135   134   ar
   124   182   179    1
   125   133   131   ar
   126   128   127    1
   127    37    35    1
   128   165   166   ar
   129   165   164    1
   130    42    39    1
   131   176   178   am
   132   176   175    1
   133   179   178    1
   134   179   180    1
   135    41    40    2
   136   164   161    1
   137   175   174    1
   138   134   132   ar
   139    34    35    1
   140    34    31    1
   141   131   130    1
   142   131   132   ar
   143    35    36    1
   144   185   180   am
   145   185   186    1
   146   127   126    1
   147   127   130    1
   148    40    39    1
   149    13    11   am
   150    39    38    1
   151   180   181    2
   152     4     3    2
   153   190   189    1
   154    33    32    2
   155    10    11    1
   156    10     9    1
   157    30    31    1
   158   174   170   am
   159   189   186    1
   160   189   191    1
   161    11    12    2
   162   161   162    1
   163   161   160    1
   164    31    32    1
   165     8     7    2
   166   186   187    1
   167     6     9    1
   168     6     7    1
   169     6     5    1
   170   187   188    2
   171     3     5   am
   172     3     2    1
   173   163   162    2
   174   162   168   am
   175     7    14   am
   176   170   171    2
   177   170   169    1
   178   168   169    1
   179     2     1    1
   180    14    15    1
   181    15    16    1
   182   169   172    1
   183   173   172    1
   184    16    18   am
   185    16    17    2
   186   214   215    1
   187    21    20    2
   188    18    19    1
   189   208   207    1
   190   208   209    1
   191   207   204    1
   192    20    19    1
   193   218   215    1
   194   215   216    1
   195   206   205    2
   196    19    22    1
   197   210   209    1
   198   210   211    2
   199   213   211    1
   200   211   212    1
   201   203   204    1
   202   216   217    2
   203   204   205    1
   204    22    23    1
   205    24    23   ar
   206    24    26   ar
   207    23    25   ar
   208    26    28   ar
   209    25    27   ar
   210    28    29    1
   211    28    27   ar
