@<TRIPOS>MOLECULE
tmp/4j1nA01.pdb
 147 142 0 0 0
SMALL
GASTEIGER

@<TRIPOS>ATOM
      1  N         21.3060   -9.5450  -11.3540 N.3    91  ALA91      -0.1231
      2  CA        20.1180  -10.3260  -11.6730 C.3    91  ALA91       0.1694
      3  C         20.4640  -11.4220  -12.6550 C.2    91  ALA91       0.2592
      4  O         21.2510  -11.2080  -13.5750 O.2    91  ALA91      -0.2718
      5  CB        19.0250   -9.4350  -12.2420 C.3    91  ALA91       0.0304
      6  N         19.8780  -12.5980  -12.4510 N.am   92  PHE92      -0.1962
      7  CA        19.9960  -13.6890  -13.4110 C.3    92  PHE92       0.1771
      8  C         18.8360  -14.6730  -13.3260 C.2    92  PHE92       0.2619
      9  O         18.3230  -14.9490  -12.2420 O.2    92  PHE92      -0.2715
     10  CB        21.3230  -14.4350  -13.2420 C.3    92  PHE92       0.0574
     11  CG        21.4690  -15.6300  -14.1490 C.ar   92  PHE92      -0.0200
     12  CD1       21.7430  -15.4650  -15.5040 C.ar   92  PHE92      -0.0042
     13  CD2       21.3240  -16.9250  -13.6490 C.ar   92  PHE92      -0.0042
     14  CE1       21.8750  -16.5650  -16.3360 C.ar   92  PHE92      -0.0003
     15  CE2       21.4590  -18.0280  -14.4810 C.ar   92  PHE92      -0.0003
     16  CZ        21.7360  -17.8470  -15.8260 C.ar   92  PHE92      -0.0000
     17  N         18.4310  -15.1790  -14.4920 N.am   93  ALA93      -0.1977
     18  CA        17.5570  -16.3460  -14.6160 C.3    93  ALA93       0.1597
     19  C         17.9970  -17.1070  -15.8560 C.2    93  ALA93       0.2287
     20  O         18.4500  -16.4900  -16.8180 O.2    93  ALA93      -0.2864
     21  CB        16.1010  -15.9300  -14.7460 C.3    93  ALA93       0.0319
     22  N         12.6960  -16.9720  -19.9950 N.3    98  LEU98      -0.1245
     23  CA        12.3280  -15.6530  -20.5200 C.3    98  LEU98       0.1561
     24  C         11.7120  -15.7130  -21.9220 C.2    98  LEU98       0.2260
     25  O         11.5240  -14.6880  -22.5860 O.2    98  LEU98      -0.2867
     26  CB        13.5410  -14.7080  -20.4920 C.3    98  LEU98       0.0270
     27  CG        14.3740  -14.6400  -19.2070 C.3    98  LEU98       0.0019
     28  CD1       15.7000  -13.9500  -19.4740 C.3    98  LEU98       0.0001
     29  CD2       13.6240  -13.9510  -18.0760 C.3    98  LEU98       0.0001
     30  N         12.9700   -3.8280  -11.4470 N.3   145  TYR145     -0.1241
     31  CA        12.1760   -3.4390  -12.6090 C.3   145  TYR145      0.1605
     32  C         10.6640   -3.5620  -12.3320 C.2   145  TYR145      0.2264
     33  O         10.2340   -4.4060  -11.5360 O.2   145  TYR145     -0.2867
     34  CB        12.5800   -4.2650  -13.8420 C.3   145  TYR145      0.0534
     35  CG        11.9010   -3.8100  -15.1120 C.ar  145  TYR145     -0.0201
     36  CD1       12.0930   -2.5170  -15.5960 C.ar  145  TYR145     -0.0009
     37  CD2       11.0590   -4.6610  -15.8230 C.ar  145  TYR145     -0.0009
     38  CE1       11.4620   -2.0770  -16.7510 C.ar  145  TYR145      0.0417
     39  CE2       10.4240   -4.2350  -16.9820 C.ar  145  TYR145      0.0417
     40  CZ        10.6310   -2.9420  -17.4420 C.ar  145  TYR145      0.1957
     41  OH        10.0080   -2.4990  -18.5820 O.3   145  TYR145     -0.2866
     42  N          4.1790   -8.9220  -17.2060 N.3   152  MET152     -0.1231
     43  CA         4.6550   -8.4550  -18.5010 C.3   152  MET152      0.1687
     44  C          5.0060   -9.6310  -19.4080 C.2   152  MET152      0.2434
     45  O          5.2270  -10.7490  -18.9260 O.2   152  MET152     -0.2733
     46  CB         5.8640   -7.5330  -18.3160 C.3   152  MET152      0.0400
     47  CG         5.5560   -6.2860  -17.4990 C.3   152  MET152      0.0596
     48  SD         6.9450   -5.1530  -17.3230 S.3   152  MET152     -0.1393
     49  CE         6.5810   -3.8960  -18.5420 C.3   152  MET152      0.0692
     50  N          5.0320   -9.3990  -20.7310 N.am  153  PRO153     -0.2718
     51  CA         5.5230  -10.4600  -21.6180 C.3   153  PRO153      0.1535
     52  C          7.0430  -10.6190  -21.5040 C.2   153  PRO153      0.2599
     53  O          7.7650   -9.6250  -21.3170 O.2   153  PRO153     -0.2715
     54  CB         5.1450   -9.9520  -23.0100 C.3   153  PRO153      0.0310
     55  CG         5.0930   -8.4630  -22.8660 C.3   153  PRO153      0.0237
     56  CD         4.5470   -8.2250  -21.4830 C.3   153  PRO153      0.0939
     57  N          7.5070  -11.8670  -21.5950 N.am  154  SER154     -0.1936
     58  CA         8.9430  -12.2150  -21.6370 C.3   154  SER154      0.2055
     59  C          9.6710  -12.1840  -20.2860 C.2   154  SER154      0.2643
     60  O         10.5710  -12.9890  -20.0550 O.2   154  SER154     -0.2714
     61  CB         9.7120  -11.3520  -22.6510 C.3   154  SER154      0.2130
     62  OG         9.0140  -11.2410  -23.8780 O.3   154  SER154     -0.2179
     63  N          9.2930  -11.2590  -19.4090 N.am  155  TYR155     -0.1973
     64  CA        10.0000  -11.0680  -18.1460 C.3   155  TYR155      0.1639
     65  C          9.8040  -12.2430  -17.1940 C.2   155  TYR155      0.2290
     66  O         10.7200  -12.6230  -16.4670 O.2   155  TYR155     -0.2864
     67  CB         9.6020   -9.7450  -17.4900 C.3   155  TYR155      0.0560
     68  CG        10.7130   -9.1410  -16.6630 C.ar  155  TYR155     -0.0198
     69  CD1       11.9810   -8.9380  -17.2090 C.ar  155  TYR155     -0.0009
     70  CD2       10.4980   -8.7640  -15.3400 C.ar  155  TYR155     -0.0009
     71  CE1       13.0030   -8.3830  -16.4610 C.ar  155  TYR155      0.0417
     72  CE2       11.5160   -8.2130  -14.5790 C.ar  155  TYR155      0.0417
     73  CZ        12.7660   -8.0230  -15.1440 C.ar  155  TYR155      0.1957
     74  OH        13.7800   -7.4780  -14.3930 O.3   155  TYR155     -0.2866
     75  N         11.8360  -13.7420  -14.0230 N.3   158  MET158     -0.1245
     76  CA        12.5810  -12.5620  -13.5870 C.3   158  MET158      0.1570
     77  C         11.6650  -11.5550  -12.8930 C.2   158  MET158      0.2261
     78  O         12.0590  -10.9410  -11.9020 O.2   158  MET158     -0.2867
     79  CB        13.3220  -11.9150  -14.7620 C.3   158  MET158      0.0387
     80  CG        14.3840  -10.8920  -14.3740 C.3   158  MET158      0.0595
     81  SD        15.5400  -11.4310  -13.0920 S.3   158  MET158     -0.1393
     82  CE        16.2210  -12.8880  -13.8470 C.3   158  MET158      0.0692
     83  N         12.0120  -10.3420   -9.1450 N.3   162  LYS162     -0.1245
     84  CA        12.0560   -8.9180   -8.7960 C.3   162  LYS162      0.1561
     85  C         11.0760   -8.5470   -7.6840 C.2   162  LYS162      0.2260
     86  O         11.3950   -7.7070   -6.8320 O.2   162  LYS162     -0.2867
     87  CB        11.8410   -8.0350  -10.0130 C.3   162  LYS162      0.0271
     88  CG        13.0450   -7.9660  -10.9380 C.3   162  LYS162      0.0035
     89  CD        14.3190   -7.5740  -10.2030 C.3   162  LYS162      0.0206
     90  CE        15.3930   -7.1220  -11.1740 C.3   162  LYS162      0.1093
     91  NZ        16.6800   -6.8230  -10.4830 N.3   162  LYS162     -0.1314
     92  N         13.6750    0.6430  -18.8400 N.3   190  PRO190     -0.2102
     93  CA        14.5450   -0.2140  -19.6480 C.3   190  PRO190      0.1504
     94  C         15.7280    0.5630  -20.2250 C.2   190  PRO190      0.2575
     95  O         15.5730    1.7180  -20.6350 O.2   190  PRO190     -0.2718
     96  CB        13.6180   -0.7230  -20.7540 C.3   190  PRO190      0.0282
     97  CG        12.5300    0.2900  -20.8360 C.3   190  PRO190      0.0208
     98  CD        12.3350    0.7850  -19.4330 C.3   190  PRO190      0.0893
     99  N         16.9020   -0.0660  -20.2040 N.am  191  ILE191     -0.1980
    100  CA        18.1560    0.5420  -20.6580 C.3   191  ILE191      0.1595
    101  C         18.9180   -0.5070  -21.4540 C.2   191  ILE191      0.2287
    102  O         18.9720   -1.6680  -21.0450 O.2   191  ILE191     -0.2864
    103  CB        19.0230    1.0190  -19.4660 C.3   191  ILE191      0.0276
    104  CG1       18.3170    2.1370  -18.6910 C.3   191  ILE191      0.0022
    105  CG2       20.3920    1.5010  -19.9350 C.3   191  ILE191      0.0022
    106  CD1       18.8610    2.3650  -17.2980 C.3   191  ILE191      0.0001
    107  N         22.5950   -7.4110  -19.8830 N.3   195  ALA195     -0.1231
    108  CA        21.4520   -8.1770  -19.3770 C.3   195  ALA195      0.1694
    109  C         20.2410   -7.9750  -20.2860 C.2   195  ALA195      0.2591
    110  O         19.5270   -8.9250  -20.6050 O.2   195  ALA195     -0.2718
    111  CB        21.1180   -7.7710  -17.9490 C.3   195  ALA195      0.0304
    112  N         20.0430   -6.7270  -20.7070 N.am  196  ALA196     -0.1980
    113  CA        18.9300   -6.3320  -21.5680 C.3   196  ALA196      0.1597
    114  C         18.8980   -7.0560  -22.9180 C.2   196  ALA196      0.2287
    115  O         17.8290   -7.4680  -23.3760 O.2   196  ALA196     -0.2864
    116  CB        18.9460   -4.8280  -21.7760 C.3   196  ALA196      0.0319
    117  N         19.6090   -9.8560  -23.4930 N.3   198  GLY198     -0.1210
    118  CA        19.2140  -11.2400  -23.2350 C.3   198  GLY198      0.1956
    119  C         17.7310  -11.5020  -23.4560 C.2   198  GLY198      0.2611
    120  O         17.2540  -12.6110  -23.2100 O.2   198  GLY198     -0.2717
    121  N         17.0010  -10.4730  -23.8950 N.am  199  ILE199     -0.1979
    122  CA        15.5930  -10.6040  -24.3080 C.3   199  ILE199      0.1595
    123  C         15.4190  -10.1070  -25.7570 C.2   199  ILE199      0.2287
    124  O         16.2030   -9.2770  -26.2330 O.2   199  ILE199     -0.2864
    125  CB        14.5950   -9.9260  -23.3180 C.3   199  ILE199      0.0276
    126  CG1       14.6470   -8.3960  -23.4000 C.3   199  ILE199      0.0022
    127  CG2       14.8150  -10.4070  -21.8870 C.3   199  ILE199      0.0022
    128  CD1       13.6990   -7.8090  -24.4230 C.3   199  ILE199      0.0001
    129  N         14.0000   -5.9220  -27.6510 N.3   202  PHE202     -0.1241
    130  CA        14.2800   -4.8440  -26.7110 C.3   202  PHE202      0.1605
    131  C         14.1870   -3.4510  -27.3340 C.2   202  PHE202      0.2264
    132  O         13.6330   -2.5420  -26.7120 O.2   202  PHE202     -0.2867
    133  CB        15.6450   -5.0510  -26.0410 C.3   202  PHE202      0.0534
    134  CG        15.7780   -4.3590  -24.7140 C.ar  202  PHE202     -0.0203
    135  CD1       15.2130   -4.9130  -23.5690 C.ar  202  PHE202     -0.0042
    136  CD2       16.4610   -3.1530  -24.6040 C.ar  202  PHE202     -0.0042
    137  CE1       15.3240   -4.2810  -22.3400 C.ar  202  PHE202     -0.0003
    138  CE2       16.5740   -2.5140  -23.3770 C.ar  202  PHE202     -0.0003
    139  CZ        16.0040   -3.0780  -22.2450 C.ar  202  PHE202     -0.0000
    140  N         10.5500   -2.3950  -27.0640 N.3   205  MET205     -0.1245
    141  CA        10.1460   -2.2540  -25.6550 C.3   205  MET205      0.1570
    142  C         10.6940   -0.9450  -25.1270 C.2   205  MET205      0.2261
    143  O         10.0420   -0.2460  -24.3520 O.2   205  MET205     -0.2867
    144  CB        10.7020   -3.3810  -24.7970 C.3   205  MET205      0.0387
    145  CG        10.2130   -4.7600  -25.1700 C.3   205  MET205      0.0595
    146  SD        10.8540   -5.9600  -23.9990 S.3   205  MET205     -0.1393
    147  CE        10.2070   -7.4840  -24.6910 C.3   205  MET205      0.0692
@<TRIPOS>BOND
     1   129   130    1
     2   131   132    2
     3   131   130    1
     4   140   141    1
     5   130   133    1
     6   124   123    2
     7   133   134    1
     8   123   122    1
     9   141   142    1
    10   141   144    1
    11   145   144    1
    12   145   146    1
    13   142   143    2
    14   134   136   ar
    15   134   135   ar
    16   147   146    1
    17   136   138   ar
    18   128   126    1
    19   122   121    1
    20   122   125    1
    21   121   119   am
    22    62    61    1
    23   135   137   ar
    24   117   118    1
    25   119   118    1
    26   119   120    2
    27   126   125    1
    28   138   139   ar
    29   115   114    2
    30   125   127    1
    31    54    55    1
    32    54    51    1
    33   114   113    1
    34    55    56    1
    35    61    58    1
    36    25    24    2
    37   137   139   ar
    38    24    23    1
    39   116   113    1
    40    58    57    1
    41    58    59    1
    42    51    52    1
    43    51    50    1
    44    57    52   am
    45   113   112    1
    46    52    53    2
    47    56    50    1
    48   101   102    2
    49   101   100    1
    50    97    96    1
    51    97    98    1
    52    96    93    1
    53    50    44   am
    54   112   109   am
    55   100    99    1
    56   100   103    1
    57    95    94    2
    58   110   109    2
    59    23    26    1
    60    23    22    1
    61    26    27    1
    62   109   108    1
    63    59    60    2
    64    59    63   am
    65    94    99   am
    66    94    93    1
    67   105   103    1
    68   107   108    1
    69    93    92    1
    70    28    27    1
    71   103   104    1
    72    98    92    1
    73    63    64    1
    74    44    45    2
    75    44    43    1
    76   108   111    1
    77    27    29    1
    78   104   106    1
    79    41    40    1
    80    49    48    1
    81    43    46    1
    82    43    42    1
    83    46    47    1
    84    64    67    1
    85    64    65    1
    86    47    48    1
    87    67    68    1
    88    40    39   ar
    89    40    38   ar
    90    69    68   ar
    91    69    71   ar
    92    65    66    2
    93    39    37   ar
    94    20    19    2
    95    38    36   ar
    96    68    70   ar
    97    71    73   ar
    98    14    16   ar
    99    14    12   ar
   100    19    18    1
   101    16    15   ar
   102    37    35   ar
   103    36    35   ar
   104    12    11   ar
   105    70    72   ar
   106    73    72   ar
   107    73    74    1
   108    35    34    1
   109    79    80    1
   110    79    76    1
   111    21    18    1
   112    18    17    1
   113    17     8   am
   114    15    13   ar
   115    80    81    1
   116    11    13   ar
   117    11    10    1
   118    75    76    1
   119    82    81    1
   120    34    31    1
   121    76    77    1
   122     4     3    2
   123     7     8    1
   124     7    10    1
   125     7     6    1
   126     8     9    2
   127    77    78    2
   128     3     6   am
   129     3     2    1
   130    31    32    1
   131    31    30    1
   132    32    33    2
   133     5     2    1
   134     2     1    1
   135    90    91    1
   136    90    89    1
   137    88    89    1
   138    88    87    1
   139    87    84    1
   140    83    84    1
   141    84    85    1
   142    85    86    2
