@<TRIPOS>MOLECULE
tmp/4j1oA00.pdb
 169 160 0 0 0
SMALL
GASTEIGER

@<TRIPOS>ATOM
      1  N         10.9190   23.4020   48.2830 N.3    20  TYR20      -0.1241
      2  CA        11.0360   24.8420   48.0880 C.3    20  TYR20       0.1605
      3  C          9.7780   25.3220   47.3780 C.2    20  TYR20       0.2264
      4  O          9.4580   24.8460   46.2860 O.2    20  TYR20      -0.2867
      5  CB        12.2780   25.1810   47.2660 C.3    20  TYR20       0.0534
      6  CG        12.5780   26.6640   47.1820 C.ar   20  TYR20      -0.0201
      7  CD1       13.1490   27.3390   48.2550 C.ar   20  TYR20      -0.0009
      8  CD2       12.2980   27.3850   46.0250 C.ar   20  TYR20      -0.0009
      9  CE1       13.4280   28.6910   48.1830 C.ar   20  TYR20       0.0417
     10  CE2       12.5730   28.7390   45.9430 C.ar   20  TYR20       0.0417
     11  CZ        13.1380   29.3840   47.0250 C.ar   20  TYR20       0.1957
     12  OH        13.4120   30.7290   46.9450 O.3    20  TYR20      -0.2866
     13  N          7.5410   28.0670   45.5890 N.3    22  ILE22      -0.1245
     14  CA         7.3310   29.2890   44.8290 C.3    22  ILE22       0.1561
     15  C          5.8420   29.3080   44.4950 C.2    22  ILE22       0.2260
     16  O          5.2280   28.2470   44.3790 O.2    22  ILE22      -0.2867
     17  CB         8.1700   29.2610   43.5360 C.3    22  ILE22       0.0252
     18  CG1        9.6180   28.8740   43.8500 C.3    22  ILE22       0.0019
     19  CG2        8.1230   30.5950   42.8250 C.3    22  ILE22       0.0019
     20  CD1       10.5060   28.7610   42.6310 C.3    22  ILE22       0.0001
     21  N         13.2560   25.0040   37.3660 N.3    52  VAL52      -0.1245
     22  CA        12.8620   24.8190   38.7560 C.3    52  VAL52       0.1561
     23  C         11.4230   24.2920   38.8290 C.2    52  VAL52       0.2260
     24  O         10.4860   24.9850   39.2340 O.2    52  VAL52      -0.2867
     25  CB        13.1100   26.1080   39.6050 C.3    52  VAL52       0.0252
     26  CG1       12.3170   27.3150   39.0880 C.3    52  VAL52       0.0019
     27  CG2       12.8550   25.8490   41.0850 C.3    52  VAL52       0.0019
     28  N          7.2450   26.6270   36.5410 N.3    56  TYR56      -0.1241
     29  CA         7.7480   27.9740   36.8520 C.3    56  TYR56       0.1605
     30  C          7.8210   28.8290   35.5910 C.2    56  TYR56       0.2264
     31  O          7.4650   30.0140   35.5990 O.2    56  TYR56      -0.2867
     32  CB         9.1390   27.9120   37.4990 C.3    56  TYR56       0.0534
     33  CG         9.7610   29.2720   37.7860 C.ar   56  TYR56      -0.0201
     34  CD1        9.4960   29.9430   38.9760 C.ar   56  TYR56      -0.0009
     35  CD2       10.6270   29.8730   36.8740 C.ar   56  TYR56      -0.0009
     36  CE1       10.0750   31.1870   39.2520 C.ar   56  TYR56       0.0417
     37  CE2       11.2070   31.1170   37.1370 C.ar   56  TYR56       0.0417
     38  CZ        10.9190   31.7650   38.3230 C.ar   56  TYR56       0.1957
     39  OH        11.4850   32.9970   38.5990 O.3    56  TYR56      -0.2866
     40  N         22.0510   36.8570   47.2960 N.3   135  TYR135     -0.1241
     41  CA        20.8640   37.2330   48.0600 C.3   135  TYR135      0.1605
     42  C         20.1380   35.9620   48.4650 C.2   135  TYR135      0.2264
     43  O         20.2720   34.9260   47.8050 O.2   135  TYR135     -0.2867
     44  CB        19.9560   38.2280   47.2960 C.3   135  TYR135      0.0534
     45  CG        19.2020   37.6860   46.0920 C.ar  135  TYR135     -0.0201
     46  CD1       17.9370   37.1140   46.2370 C.ar  135  TYR135     -0.0009
     47  CD2       19.7380   37.7700   44.8110 C.ar  135  TYR135     -0.0009
     48  CE1       17.2230   36.6410   45.1330 C.ar  135  TYR135      0.0417
     49  CE2       19.0380   37.2870   43.7080 C.ar  135  TYR135      0.0417
     50  CZ        17.7860   36.7260   43.8760 C.ar  135  TYR135      0.1957
     51  OH        17.0950   36.2460   42.7750 O.3   135  TYR135     -0.2866
     52  N         16.6160   33.9120   49.1290 N.3   137  ALA137     -0.1245
     53  CA        15.2090   33.9360   48.7500 C.3   137  ALA137      0.1562
     54  C         14.4260   32.9620   49.6110 C.2   137  ALA137      0.2260
     55  O         14.6550   31.7560   49.5550 O.2   137  ALA137     -0.2867
     56  CB        15.0460   33.5950   47.2760 C.3   137  ALA137      0.0290
     57  N         15.0220   38.3090   49.4230 N.3   162  GLN162     -0.1245
     58  CA        13.8220   38.2600   48.6080 C.3   162  GLN162      0.1566
     59  C         12.8080   37.3760   49.3210 C.2   162  GLN162      0.2260
     60  O         13.1140   36.2310   49.6800 O.2   162  GLN162     -0.2867
     61  CB        14.1420   37.6710   47.2360 C.3   162  GLN162      0.0367
     62  CG        12.9400   37.6010   46.3140 C.3   162  GLN162      0.0905
     63  CD        13.1280   36.5980   45.1910 C.2   162  GLN162      0.2608
     64  OE1       12.9050   35.3980   45.3670 O.2   162  GLN162     -0.2717
     65  NE2       13.5180   37.0860   44.0250 N.am  162  GLN162     -0.0878
     66  N          9.3310   35.4640   49.0290 N.3   164  LYS164     -0.1245
     67  CA         8.3240   34.9990   48.0770 C.3   164  LYS164      0.1561
     68  C          6.9330   35.0400   48.7030 C.2   164  LYS164      0.2260
     69  O          6.7500   34.6570   49.8690 O.2   164  LYS164     -0.2867
     70  CB         8.6710   33.6060   47.5390 C.3   164  LYS164      0.0271
     71  CG         9.9420   33.6050   46.6800 C.3   164  LYS164      0.0035
     72  CD        10.1150   32.3050   45.8960 C.3   164  LYS164      0.0206
     73  CE        11.2670   32.4150   44.8910 C.3   164  LYS164      0.1093
     74  NZ        11.1160   33.6200   44.0200 N.3   164  LYS164     -0.1314
     75  N          8.6370   39.0670   46.0590 N.3   194  ASP194     -0.1239
     76  CA         8.4110   38.4140   44.7650 C.3   194  ASP194      0.1674
     77  C          7.0430   37.7360   44.7010 C.2   194  ASP194      0.2266
     78  O          6.7940   36.7530   45.3970 O.2   194  ASP194     -0.2867
     79  CB         9.5250   37.3830   44.5150 C.3   194  ASP194      0.1410
     80  CG         9.5760   36.9010   43.0790 C.2   194  ASP194      0.3668
     81  OD1        8.5880   37.0610   42.3350 O.co2 194  ASP194     -0.2456
     82  OD2       10.6260   36.3470   42.6900 O.co2 194  ASP194     -0.2456
     83  N          5.8920   36.2210   42.0420 N.3   196  ASN196     -0.1240
     84  CA         6.0100   35.1060   41.0930 C.3   196  ASN196      0.1653
     85  C          4.7850   34.8920   40.2040 C.2   196  ASN196      0.2266
     86  O          4.2450   33.7810   40.1240 O.2   196  ASN196     -0.2867
     87  CB         6.4000   33.8130   41.8070 C.3   196  ASN196      0.1155
     88  CG         7.8530   33.8180   42.2440 C.2   196  ASN196      0.2627
     89  OD1        8.1560   33.8750   43.4360 O.2   196  ASN196     -0.2716
     90  ND2        8.7610   33.7630   41.2760 N.am  196  ASN196     -0.0877
     91  N          8.7410   42.5190   42.8590 N.3   219  GLU219     -0.1245
     92  CA         9.2680   41.7340   41.7490 C.3   219  GLU219      0.1567
     93  C          8.1660   40.8720   41.1410 C.2   219  GLU219      0.2260
     94  O          7.4740   40.1480   41.8650 O.2   219  GLU219     -0.2867
     95  CB        10.4130   40.8490   42.2530 C.3   219  GLU219      0.0388
     96  CG        11.0150   39.9500   41.1850 C.3   219  GLU219      0.1160
     97  CD        12.1480   39.0950   41.7150 C.2   219  GLU219      0.3649
     98  OE1       12.7290   39.4600   42.7660 O.co2 219  GLU219     -0.2457
     99  OE2       12.4500   38.0540   41.0900 O.co2 219  GLU219     -0.2457
    100  N         10.9310   39.7390   36.2800 N.3   242  ASP242     -0.1239
    101  CA        11.6870   38.4870   36.3350 C.3   242  ASP242      0.1674
    102  C         11.1840   37.6190   35.1910 C.2   242  ASP242      0.2266
    103  O         11.6980   37.7340   34.0760 O.2   242  ASP242     -0.2867
    104  CB        11.5300   37.8120   37.7080 C.3   242  ASP242      0.1410
    105  CG        12.3700   36.5390   37.8600 C.2   242  ASP242      0.3668
    106  OD1       12.9480   36.0540   36.8690 O.co2 242  ASP242     -0.2456
    107  OD2       12.4330   35.9910   38.9890 O.co2 242  ASP242     -0.2456
    108  N         15.1200   40.8310   37.9920 N.3   264  GLY264     -0.1225
    109  CA        15.7250   39.5760   38.3960 C.3   264  GLY264      0.1811
    110  C         15.9450   38.8510   37.0850 C.2   264  GLY264      0.2280
    111  O         14.9760   38.5500   36.3970 O.2   264  GLY264     -0.2866
    112  N         17.4800   35.6640   34.7950 N.3   266  LYS266     -0.1245
    113  CA        18.0130   34.3060   34.7570 C.3   266  LYS266      0.1561
    114  C         18.7750   34.0310   33.4640 C.2   266  LYS266      0.2260
    115  O         18.2670   34.2510   32.3630 O.2   266  LYS266     -0.2867
    116  CB        16.8920   33.2830   34.9770 C.3   266  LYS266      0.0271
    117  CG        16.3360   33.3350   36.3960 C.3   266  LYS266      0.0035
    118  CD        15.1780   32.3770   36.5930 C.3   266  LYS266      0.0206
    119  CE        14.7010   32.4050   38.0410 C.3   266  LYS266      0.1093
    120  NZ        14.2000   33.7590   38.4420 N.3   266  LYS266     -0.1314
    121  N         21.0260   35.4040   37.9680 N.3   293  ASP293     -0.1225
    122  CA        20.5710   34.2160   38.6750 C.3   293  ASP293      0.1805
    123  C         20.3500   33.0910   37.7040 C.2   293  ASP293      0.2598
    124  O         20.5150   33.2510   36.4950 O.2   293  ASP293     -0.2718
    125  CB        19.2200   34.4870   39.3660 C.3   293  ASP293      0.1424
    126  CG        19.2510   35.6880   40.2920 C.2   293  ASP293      0.3668
    127  OD1       20.3190   35.9700   40.8720 O.co2 293  ASP293     -0.2456
    128  OD2       18.1890   36.3460   40.4350 O.co2 293  ASP293     -0.2456
    129  N         19.9620   31.9420   38.2340 N.am  294  ASP294     -0.1960
    130  CA        19.2310   31.0120   37.3950 C.3   294  ASP294      0.1840
    131  C         18.1050   30.3670   38.1720 C.2   294  ASP294      0.2622
    132  O         17.9110   30.6600   39.3560 O.2   294  ASP294     -0.2715
    133  CB        20.1310   29.9720   36.7370 C.3   294  ASP294      0.1450
    134  CG        19.7510   29.7570   35.3020 C.2   294  ASP294      0.3671
    135  OD1       18.8480   28.9290   35.0380 O.co2 294  ASP294     -0.2456
    136  OD2       20.3060   30.4770   34.4540 O.co2 294  ASP294     -0.2456
    137  N         17.3570   29.4950   37.5060 N.am  295  ALA295     -0.1963
    138  CA        16.2170   28.8530   38.1550 C.3   295  ALA295      0.1728
    139  C         16.6600   27.8970   39.2610 C.2   295  ALA295      0.2616
    140  O         16.0480   27.8450   40.3270 O.2   295  ALA295     -0.2715
    141  CB        15.3540   28.1250   37.1270 C.3   295  ALA295      0.0334
    142  N         17.7250   27.1430   38.9890 N.am  296  TRP296     -0.1974
    143  CA        18.2580   26.1460   39.9070 C.3   296  TRP296      0.1640
    144  C         19.5040   25.5770   39.2480 C.2   296  TRP296      0.2290
    145  O         19.8350   25.9650   38.1230 O.2   296  TRP296     -0.2864
    146  CB        17.2500   25.0120   40.1190 C.3   296  TRP296      0.0576
    147  CG        17.3950   24.3000   41.4370 C.ar  296  TRP296      0.0006
    148  CD1       18.0790   23.1460   41.6830 C.ar  296  TRP296      0.0946
    149  CD2       16.8370   24.7160   42.6920 C.ar  296  TRP296      0.0152
    150  NE1       17.9780   22.8130   43.0220 N.ar  296  TRP296     -0.2442
    151  CE2       17.2230   23.7580   43.6530 C.ar  296  TRP296      0.0810
    152  CE3       16.0440   25.7950   43.0840 C.ar  296  TRP296      0.0012
    153  CZ2       16.8390   23.8580   44.9980 C.ar  296  TRP296      0.0191
    154  CZ3       15.6670   25.8930   44.4180 C.ar  296  TRP296      0.0001
    155  CH2       16.0670   24.9280   45.3550 C.ar  296  TRP296      0.0015
    156  N         22.1150   34.6910   42.7040 N.3   321  TRP321     -0.1241
    157  CA        21.4410   33.6210   43.4360 C.3   321  TRP321      0.1605
    158  C         21.9020   32.2630   42.9000 C.2   321  TRP321      0.2264
    159  O         21.9300   32.0550   41.6860 O.2   321  TRP321     -0.2867
    160  CB        19.9130   33.7360   43.2900 C.3   321  TRP321      0.0550
    161  CG        19.1800   32.7520   44.1560 C.ar  321  TRP321      0.0003
    162  CD1       18.6890   32.9700   45.4070 C.ar  321  TRP321      0.0946
    163  CD2       18.8910   31.3780   43.8440 C.ar  321  TRP321      0.0152
    164  NE1       18.1030   31.8250   45.8910 N.ar  321  TRP321     -0.2442
    165  CE2       18.2160   30.8330   44.9490 C.ar  321  TRP321      0.0810
    166  CE3       19.1350   30.5600   42.7310 C.ar  321  TRP321      0.0012
    167  CZ2       17.7790   29.5050   44.9850 C.ar  321  TRP321      0.0191
    168  CZ3       18.6970   29.2370   42.7680 C.ar  321  TRP321      0.0001
    169  CH2       18.0290   28.7270   43.8830 C.ar  321  TRP321      0.0015
@<TRIPOS>BOND
     1   115   114    2
     2   114   113    1
     3   103   102    2
     4   136   134   ar
     5   113   112    1
     6   113   116    1
     7   116   117    1
     8   135   134   ar
     9   102   101    1
    10   134   133    1
    11    30    31    2
    12    30    29    1
    13   100   101    1
    14   101   104    1
    15   117   118    1
    16   111   110    2
    17   124   123    2
    18    28    29    1
    19   118   119    1
    20   133   130    1
    21    29    32    1
    22   106   105   ar
    23    35    37   ar
    24    35    33   ar
    25   110   109    1
    26   141   138    1
    27    37    38   ar
    28    21    22    1
    29   130   131    1
    30   130   129    1
    31    32    33    1
    32   137   138    1
    33   137   131   am
    34   123   129   am
    35   123   122    1
    36   104   105    1
    37    33    34   ar
    38   105   107   ar
    39   121   122    1
    40   108   109    1
    41   119   120    1
    42   145   144    2
    43   138   139    1
    44   131   132    2
    45    38    39    1
    46    38    36   ar
    47   122   125    1
    48    22    23    1
    49    22    25    1
    50    23    24    2
    51    34    36   ar
    52   142   139   am
    53   142   143    1
    54    26    25    1
    55   144   143    1
    56   139   140    2
    57   125   126    1
    58    25    27    1
    59   143   146    1
    60   146   147    1
    61    86    85    2
    62    85    84    1
    63   126   128   ar
    64   126   127   ar
    65    99    97   ar
    66    84    87    1
    67    84    83    1
    68    93    92    1
    69    93    94    2
    70    96    97    1
    71    96    95    1
    72    90    88   am
    73   147   148   ar
    74   147   149   ar
    75   148   150   ar
    76   159   158    2
    77    97    98   ar
    78    92    95    1
    79    92    91    1
    80    87    88    1
    81    88    89    2
    82    81    80   ar
    83    20    18    1
    84    82    80   ar
    85   149   152   ar
    86   149   151   ar
    87   156   157    1
    88   166   168   ar
    89   166   163   ar
    90   168   169   ar
    91    51    50    1
    92    19    17    1
    93   158   157    1
    94   150   151   ar
    95    80    79    1
    96   152   154   ar
    97   160   157    1
    98   160   161    1
    99    17    18    1
   100    17    14    1
   101   151   153   ar
   102    49    50   ar
   103    49    47   ar
   104   163   161   ar
   105   163   165   ar
   106    50    48   ar
   107   169   167   ar
   108    74    73    1
   109    65    63   am
   110   161   162   ar
   111    16    15    2
   112   154   155   ar
   113    15    14    1
   114    79    76    1
   115    77    76    1
   116    77    78    2
   117    76    75    1
   118    47    45   ar
   119    14    13    1
   120    73    72    1
   121   165   167   ar
   122   165   164   ar
   123   153   155   ar
   124    48    46   ar
   125    63    64    2
   126    63    62    1
   127   162   164   ar
   128    72    71    1
   129    10     8   ar
   130    10    11   ar
   131     8     6   ar
   132    45    46   ar
   133    45    44    1
   134     4     3    2
   135    62    61    1
   136    71    70    1
   137    12    11    1
   138    11     9   ar
   139     6     5    1
   140     6     7   ar
   141    61    58    1
   142     5     2    1
   143    56    53    1
   144    40    41    1
   145    44    41    1
   146     3     2    1
   147    70    67    1
   148    43    42    2
   149    41    42    1
   150    67    68    1
   151    67    66    1
   152     2     1    1
   153     9     7   ar
   154    58    59    1
   155    58    57    1
   156    68    69    2
   157    53    52    1
   158    53    54    1
   159    59    60    2
   160    55    54    2
