@<TRIPOS>MOLECULE
tmp/4j1pA00.pdb
 137 135 0 0 0
SMALL
GASTEIGER

@<TRIPOS>ATOM
      1  N         15.2180   22.8360  -14.9950 N.3    29  TRP29      -0.1228
      2  CA        16.3220   22.5030  -14.1320 C.3    29  TRP29       0.1722
      3  C         15.9260   21.8320  -12.7970 C.2    29  TRP29       0.2437
      4  O         16.6950   20.9890  -12.3410 O.2    29  TRP29      -0.2733
      5  CB        17.2390   23.7570  -13.8640 C.3    29  TRP29       0.0563
      6  CG        16.5990   24.8480  -13.0540 C.ar   29  TRP29       0.0003
      7  CD1       15.9840   25.9290  -13.5060 C.ar   29  TRP29       0.0946
      8  CD2       16.5210   24.9190  -11.6290 C.ar   29  TRP29       0.0152
      9  NE1       15.4880   26.6880  -12.4850 N.ar   29  TRP29      -0.2442
     10  CE2       15.8020   26.0730  -11.3090 C.ar   29  TRP29       0.0810
     11  CE3       16.9650   24.1340  -10.5780 C.ar   29  TRP29       0.0012
     12  CZ2       15.5390   26.4320   -9.9740 C.ar   29  TRP29       0.0191
     13  CZ3       16.7190   24.5020   -9.2660 C.ar   29  TRP29       0.0001
     14  CH2       16.0180   25.6200   -8.9650 C.ar   29  TRP29       0.0015
     15  N         14.7630   22.0780  -12.2010 N.am   30  PRO30      -0.2718
     16  CA        14.4400   21.3520  -10.9470 C.3    30  PRO30       0.1535
     17  C         14.3040   19.8540  -11.1590 C.2    30  PRO30       0.2598
     18  O         14.3430   19.1050  -10.1840 O.2    30  PRO30      -0.2715
     19  CB        13.1300   21.9640  -10.4810 C.3    30  PRO30       0.0310
     20  CG        13.1230   23.3370  -11.0910 C.3    30  PRO30       0.0237
     21  CD        13.7610   23.1280  -12.4510 C.3    30  PRO30       0.0939
     22  N         14.0970   19.4360  -12.4100 N.am   31  PHE31      -0.1974
     23  CA        13.8280   18.0480  -12.7550 C.3    31  PHE31       0.1639
     24  C         15.0730   17.3130  -13.2010 C.2    31  PHE31       0.2290
     25  O         15.0020   16.1370  -13.5700 O.2    31  PHE31      -0.2864
     26  CB        12.7430   18.0060  -13.8150 C.3    31  PHE31       0.0560
     27  CG        11.5110   18.7520  -13.4130 C.ar   31  PHE31      -0.0200
     28  CD1       10.6100   18.2200  -12.4600 C.ar   31  PHE31      -0.0042
     29  CD2       11.3000   20.0630  -13.8140 C.ar   31  PHE31      -0.0042
     30  CE1        9.5590   18.9810  -12.0110 C.ar   31  PHE31      -0.0003
     31  CE2       10.2620   20.8330  -13.3300 C.ar   31  PHE31      -0.0003
     32  CZ         9.3810   20.2890  -12.4020 C.ar   31  PHE31      -0.0000
     33  N         14.9090   14.8730   -6.3910 N.3    35  VAL35      -0.1245
     34  CA        14.5870   15.8270   -5.3180 C.3    35  VAL35       0.1561
     35  C         15.4570   15.4490   -4.1000 C.2    35  VAL35       0.2260
     36  O         15.4340   14.3220   -3.6580 O.2    35  VAL35      -0.2867
     37  CB        13.1170   15.7860   -4.9790 C.3    35  VAL35       0.0252
     38  CG1       12.8050   16.6380   -3.7280 C.3    35  VAL35       0.0019
     39  CG2       12.2610   16.2600   -6.1450 C.3    35  VAL35       0.0019
     40  N         16.4230   20.4030    0.9500 N.3    40  LEU40      -0.1231
     41  CA        15.3030   21.3040    0.7920 C.3    40  LEU40       0.1693
     42  C         14.5050   21.4500    2.0910 C.2    40  LEU40       0.2593
     43  O         13.6840   22.3550    2.2310 O.2    40  LEU40      -0.2718
     44  CB        14.4070   20.8000   -0.3000 C.3    40  LEU40       0.0284
     45  CG        14.9850   20.8050   -1.7000 C.3    40  LEU40       0.0019
     46  CD1       14.1310   20.0280   -2.6640 C.3    40  LEU40       0.0001
     47  CD2       15.1340   22.2260   -2.1860 C.3    40  LEU40       0.0001
     48  N         14.6830   20.5420    3.0410 N.am   41  GLY41      -0.1942
     49  CA        13.9210   20.5240    4.2350 C.3    41  GLY41       0.2014
     50  C         12.5490   19.8810    4.1140 C.2    41  GLY41       0.2638
     51  O         11.6810   20.1320    4.9620 O.2    41  GLY41      -0.2714
     52  N         12.3330   19.0650    3.1070 N.am   42  LEU42      -0.1977
     53  CA        11.0320   18.4240    2.8970 C.3    42  LEU42       0.1596
     54  C         11.0180   17.1250    3.6600 C.2    42  LEU42       0.2287
     55  O         11.2340   16.0240    3.1530 O.2    42  LEU42      -0.2864
     56  CB        10.8050   18.1930    1.4030 C.3    42  LEU42       0.0297
     57  CG        10.9240   19.4590    0.5640 C.3    42  LEU42       0.0022
     58  CD1       10.6520   19.1290   -0.9110 C.3    42  LEU42       0.0001
     59  CD2       10.0070   20.5600    1.0520 C.3    42  LEU42       0.0001
     60  N          8.8100   14.2780    2.4200 N.3    45  TYR45      -0.1241
     61  CA         8.7180   14.0660    0.9800 C.3    45  TYR45       0.1605
     62  C          8.5550   12.5890    0.6980 C.2    45  TYR45       0.2264
     63  O          7.7040   12.1810   -0.1180 O.2    45  TYR45      -0.2867
     64  CB         9.9130   14.6690    0.2530 C.3    45  TYR45       0.0534
     65  CG         9.7540   14.6140   -1.2450 C.ar   45  TYR45      -0.0201
     66  CD1        9.0450   15.6260   -1.9140 C.ar   45  TYR45      -0.0009
     67  CD2       10.3090   13.5890   -1.9970 C.ar   45  TYR45      -0.0009
     68  CE1        8.8520   15.5840   -3.2850 C.ar   45  TYR45       0.0417
     69  CE2       10.1420   13.5530   -3.3940 C.ar   45  TYR45       0.0417
     70  CZ         9.4100   14.5370   -4.0040 C.ar   45  TYR45       0.1957
     71  OH         9.2150   14.4350   -5.3860 O.3    45  TYR45      -0.2866
     72  N         10.9000   10.2890   -9.0940 N.3    53  MET53      -0.1245
     73  CA        11.3930   10.2130  -10.4590 C.3    53  MET53       0.1570
     74  C         11.9080   11.5700  -10.8690 C.2    53  MET53       0.2261
     75  O         11.4090   12.6030  -10.4260 O.2    53  MET53      -0.2867
     76  CB        10.2860    9.6860  -11.3950 C.3    53  MET53       0.0387
     77  CG        10.7330    9.3510  -12.8190 C.3    53  MET53       0.0595
     78  SD        12.1690    8.2810  -12.9720 S.3    53  MET53      -0.1393
     79  CE        11.6380    6.8170  -11.9900 C.3    53  MET53       0.0692
     80  N          7.1790   11.6960  -12.7810 N.3    80  MET80      -0.1245
     81  CA         7.9220   12.8280  -12.3200 C.3    80  MET80       0.1570
     82  C          7.0640   14.0470  -12.1160 C.2    80  MET80       0.2261
     83  O          7.1010   14.7310  -11.0830 O.2    80  MET80      -0.2867
     84  CB         9.0350   13.0920  -13.3540 C.3    80  MET80       0.0387
     85  CG         9.8450   14.3250  -13.0860 C.3    80  MET80       0.0595
     86  SD        11.0530   14.6290  -14.4130 S.3    80  MET80      -0.1393
     87  CE        10.0020   15.4250  -15.5820 C.3    80  MET80       0.0692
     88  N          5.3740   15.9010   -8.4500 N.3    84  CYS84      -0.1235
     89  CA         5.4190   17.3270   -8.2070 C.3    84  CYS84       0.1677
     90  C          4.0720   17.8850   -7.8650 C.2    84  CYS84       0.2270
     91  O          3.8850   18.6480   -6.8860 O.2    84  CYS84      -0.2867
     92  CB         6.1180   17.9680   -9.3840 C.3    84  CYS84       0.0956
     93  SG         6.5030   19.7200   -9.1690 S.3    84  CYS84      -0.0801
     94  N          2.8420   16.4830   -4.2690 N.3    87  TYR87      -0.1227
     95  CA         3.4810   16.9360   -3.0150 C.3    87  TYR87       0.1736
     96  C          3.2040   18.4070   -2.7330 C.2    87  TYR87       0.2595
     97  O          3.0390   18.7870   -1.5750 O.2    87  TYR87      -0.2718
     98  CB         5.0120   16.7250   -3.1080 C.3    87  TYR87       0.0548
     99  CG         5.6730   17.1240   -1.8090 C.ar   87  TYR87      -0.0200
    100  CD1        5.5890   16.3170   -0.6900 C.ar   87  TYR87      -0.0009
    101  CD2        6.2690   18.3650   -1.6500 C.ar   87  TYR87      -0.0009
    102  CE1        6.1100   16.7610    0.5750 C.ar   87  TYR87       0.0417
    103  CE2        6.7560   18.8130   -0.4370 C.ar   87  TYR87       0.0417
    104  CZ         6.6750   18.0030    0.6630 C.ar   87  TYR87       0.1957
    105  OH         7.1440   18.4510    1.8710 O.3    87  TYR87      -0.2866
    106  N          3.1840   19.2450   -3.7890 N.am   88  ASN88      -0.1961
    107  CA         3.2890   20.6720   -3.6150 C.3    88  ASN88       0.1804
    108  C          1.9630   21.3840   -3.6540 C.2    88  ASN88       0.2463
    109  O          0.9740   20.9230   -4.2620 O.2    88  ASN88      -0.2730
    110  CB         4.1930   21.2170   -4.7330 C.3    88  ASN88       0.1195
    111  CG         5.6120   20.7420   -4.5680 C.2    88  ASN88       0.2630
    112  OD1        6.3250   21.1720   -3.6690 O.2    88  ASN88      -0.2716
    113  ND2        6.0090   19.8410   -5.4460 N.am   88  ASN88      -0.0877
    114  N          1.8800   22.5270   -3.0440 N.am   89  PRO89      -0.2727
    115  CA         0.7060   23.3940   -3.2800 C.3    89  PRO89       0.1402
    116  C          0.5920   23.9130   -4.7070 C.2    89  PRO89       0.2269
    117  O          1.5930   24.1140   -5.2950 O.2    89  PRO89      -0.2865
    118  CB         0.9030   24.5800   -2.3580 C.3    89  PRO89       0.0296
    119  CG         2.0970   24.3010   -1.4960 C.3    89  PRO89       0.0237
    120  CD         2.8850   23.1540   -2.1750 C.3    89  PRO89       0.0939
    121  N          2.7680   26.8850   -6.0580 N.3    92  HIS92      -0.1241
    122  CA         4.1990   26.8830   -5.8580 C.3    92  HIS92       0.1621
    123  C          4.8860   27.0750   -7.2260 C.2    92  HIS92       0.2264
    124  O          4.4590   26.5440   -8.2520 O.2    92  HIS92      -0.2867
    125  CB         4.6780   25.6100   -5.2140 C.3    92  HIS92       0.0745
    126  CG         6.0630   25.7210   -4.6840 C.ar   92  HIS92       0.0817
    127  ND1        7.2070   25.5530   -5.4330 N.ar   92  HIS92      -0.2268
    128  CD2        6.4440   26.0050   -3.4220 C.ar   92  HIS92       0.1154
    129  CE1        8.2240   25.7260   -4.6480 C.ar   92  HIS92       0.1986
    130  NE2        7.7900   26.0080   -3.4310 N.ar   92  HIS92      -0.2212
    131  N          7.4230   25.5480   -8.3620 N.3    94  VAL94      -0.1245
    132  CA         7.8600   24.3080   -9.0150 C.3    94  VAL94       0.1561
    133  C          6.7270   23.6600   -9.7860 C.2    94  VAL94       0.2260
    134  O          6.9540   23.0050  -10.7950 O.2    94  VAL94      -0.2867
    135  CB         8.5600   23.3420   -8.0140 C.3    94  VAL94       0.0252
    136  CG1        7.5790   22.6530   -7.0970 C.3    94  VAL94       0.0019
    137  CG2        9.4200   22.3420   -8.8110 C.3    94  VAL94       0.0019
@<TRIPOS>BOND
     1    87    86    1
     2     1     2    1
     3    86    85    1
     4     2     5    1
     5     2     3    1
     6     5     6    1
     7    26    27    1
     8    26    23    1
     9    29    27   ar
    10    29    31   ar
    11    25    24    2
    12     7     6   ar
    13     7     9   ar
    14    27    28   ar
    15    84    85    1
    16    84    81    1
    17    31    32   ar
    18    24    23    1
    19     6     8   ar
    20    78    77    1
    21    78    79    1
    22    77    76    1
    23     3     4    2
    24     3    15   am
    25    80    81    1
    26    23    22    1
    27     9    10   ar
    28    28    30   ar
    29    21    15    1
    30    21    20    1
    31    22    17   am
    32    32    30   ar
    33    81    82    1
    34    15    16    1
    35    82    83    2
    36     8    10   ar
    37     8    11   ar
    38    76    73    1
    39    10    12   ar
    40    17    16    1
    41    17    18    2
    42    20    19    1
    43    16    19    1
    44    74    73    1
    45    74    75    2
    46   134   133    2
    47    11    13   ar
    48    73    72    1
    49    12    14   ar
    50   133   132    1
    51    92    93    1
    52    92    89    1
    53    13    14   ar
    54   132   131    1
    55   132   135    1
    56   137   135    1
    57    88    89    1
    58   124   123    2
    59    89    90    1
    60   135   136    1
    61    90    91    2
    62   123   122    1
    63    33    34    1
    64    39    37    1
    65   121   122    1
    66   122   125    1
    67   113   111   am
    68   127   126   ar
    69   127   129   ar
    70    71    70    1
    71    34    37    1
    72    34    35    1
    73   117   116    2
    74   125   126    1
    75    37    38    1
    76   110   111    1
    77   110   107    1
    78   116   115    1
    79   126   128   ar
    80   129   130   ar
    81   111   112    2
    82    94    95    1
    83   109   108    2
    84    35    36    2
    85    70    69   ar
    86    70    68   ar
    87   106   107    1
    88   106    96   am
    89   108   107    1
    90   108   114   am
    91   130   128   ar
    92    69    67   ar
    93    68    66   ar
    94   115   114    1
    95   115   118    1
    96    98    95    1
    97    98    99    1
    98   114   120    1
    99    95    96    1
   100    96    97    2
   101    46    45    1
   102   118   119    1
   103    47    45    1
   104   120   119    1
   105    67    65   ar
   106    66    65   ar
   107    99   101   ar
   108    99   100   ar
   109    45    44    1
   110   101   103   ar
   111    65    64    1
   112    58    57    1
   113   100   102   ar
   114   103   104   ar
   115    44    41    1
   116    63    62    2
   117    64    61    1
   118    57    59    1
   119    57    56    1
   120   102   104   ar
   121   104   105    1
   122    62    61    1
   123    41    40    1
   124    41    42    1
   125    61    60    1
   126    56    53    1
   127    42    43    2
   128    42    48   am
   129    53    52    1
   130    53    54    1
   131    48    49    1
   132    52    50   am
   133    55    54    2
   134    50    49    1
   135    50    51    2
