@<TRIPOS>MOLECULE
tmp/4j1rD00.pdb
 139 131 0 0 0
SMALL
GASTEIGER

@<TRIPOS>ATOM
      1  N         77.5950   46.7680   75.4720 N.3    27  ILE27      -0.1231
      2  CA        78.2140   45.7720   76.3490 C.3    27  ILE27       0.1692
      3  C         77.2330   45.2220   77.3910 C.2    27  ILE27       0.2593
      4  O         77.5670   44.3200   78.1710 O.2    27  ILE27      -0.2718
      5  CB        79.4430   46.3460   77.0880 C.3    27  ILE27       0.0266
      6  CG1       79.0170   47.4600   78.0650 C.3    27  ILE27       0.0019
      7  CG2       80.4880   46.8230   76.0730 C.3    27  ILE27       0.0020
      8  CD1       80.0980   47.8760   79.0770 C.3    27  ILE27       0.0001
      9  N         76.0150   45.7510   77.4130 N.am   28  GLY28      -0.1942
     10  CA        75.0840   45.3600   78.4550 C.3    28  GLY28       0.2014
     11  C         73.6300   45.4330   78.0640 C.2    28  GLY28       0.2638
     12  O         73.2320   46.1980   77.1850 O.2    28  GLY28      -0.2714
     13  N         72.8270   44.6260   78.7380 N.am   29  ASN29      -0.1972
     14  CA        71.4220   44.5610   78.4430 C.3    29  ASN29       0.1688
     15  C         70.7060   44.3400   79.7360 C.2    29  ASN29       0.2292
     16  O         71.2120   43.6190   80.6010 O.2    29  ASN29      -0.2864
     17  CB        71.1290   43.3940   77.5010 C.3    29  ASN29       0.1181
     18  CG        70.3960   43.8360   76.2540 C.2    29  ASN29       0.2629
     19  OD1       69.6790   44.8450   76.2620 O.2    29  ASN29      -0.2716
     20  ND2       70.5770   43.0920   75.1680 N.am   29  ASN29      -0.0877
     21  N         66.3550   47.5370   82.3270 N.3    32  PHE32      -0.1241
     22  CA        66.5120   48.9860   82.4550 C.3    32  PHE32       0.1605
     23  C         66.7750   49.6540   81.1230 C.2    32  PHE32       0.2264
     24  O         66.4290   50.8120   80.9110 O.2    32  PHE32      -0.2867
     25  CB        67.6780   49.2870   83.3720 C.3    32  PHE32       0.0534
     26  CG        68.9250   48.5520   83.0130 C.ar   32  PHE32      -0.0203
     27  CD1       69.7910   49.0640   82.0450 C.ar   32  PHE32      -0.0042
     28  CD2       69.2550   47.3650   83.6620 C.ar   32  PHE32      -0.0042
     29  CE1       70.9560   48.4040   81.7110 C.ar   32  PHE32      -0.0003
     30  CE2       70.4260   46.6940   83.3430 C.ar   32  PHE32      -0.0003
     31  CZ        71.2780   47.2120   82.3590 C.ar   32  PHE32      -0.0000
     32  N         73.6620   49.1340   78.0710 N.3    35  VAL35      -0.1245
     33  CA        74.9060   49.6670   78.5940 C.3    35  VAL35       0.1561
     34  C         75.9470   49.6820   77.4940 C.2    35  VAL35       0.2260
     35  O         76.2250   48.6460   76.8700 O.2    35  VAL35      -0.2867
     36  CB        75.4370   48.8220   79.7570 C.3    35  VAL35       0.0252
     37  CG1       76.7810   49.3540   80.2250 C.3    35  VAL35       0.0019
     38  CG2       74.4310   48.7960   80.8860 C.3    35  VAL35       0.0019
     39  N         81.5700   53.4970   80.9840 N.3    48  ALA48      -0.1245
     40  CA        80.3770   52.7450   80.6170 C.3    48  ALA48       0.1562
     41  C         79.2000   53.6920   80.6150 C.2    48  ALA48       0.2260
     42  O         79.1260   54.5860   81.4470 O.2    48  ALA48      -0.2867
     43  CB        80.1200   51.6110   81.5960 C.3    48  ALA48       0.0290
     44  N         75.2290   53.5930   80.9260 N.3    50  LYS50      -0.1245
     45  CA        73.9680   52.9270   81.2080 C.3    50  LYS50       0.1561
     46  C         72.7640   53.8000   80.8010 C.2    50  LYS50       0.2260
     47  O         72.4510   54.8130   81.4380 O.2    50  LYS50      -0.2867
     48  CB        73.9030   52.5470   82.6910 C.3    50  LYS50       0.0271
     49  CG        72.6240   51.8070   83.0900 C.3    50  LYS50       0.0035
     50  CD        72.6690   51.3410   84.5500 C.3    50  LYS50       0.0206
     51  CE        71.3770   50.6190   84.9420 C.3    50  LYS50       0.1093
     52  NZ        71.3870   50.0890   86.3340 N.3    50  LYS50      -0.1314
     53  N         68.6040   55.6270   91.3820 N.3    62  GLU62      -0.1245
     54  CA        70.0190   55.3680   91.1470 C.3    62  GLU62       0.1567
     55  C         70.8070   56.6760   90.9860 C.2    62  GLU62       0.2260
     56  O         71.9130   56.8390   91.5170 O.2    62  GLU62      -0.2867
     57  CB        70.2010   54.4550   89.9250 C.3    62  GLU62       0.0388
     58  CG        71.6360   53.9130   89.7440 C.3    62  GLU62       0.1160
     59  CD        71.7660   52.9470   88.5630 C.2    62  GLU62       0.3649
     60  OE1       72.9080   52.5050   88.2580 O.co2  62  GLU62      -0.2457
     61  OE2       70.7160   52.6310   87.9420 O.co2  62  GLU62      -0.2457
     62  N         82.2610   52.3040   92.2260 N.3    75  VAL75      -0.1245
     63  CA        82.3120   52.8370   90.8710 C.3    75  VAL75       0.1561
     64  C         81.8500   54.3010   90.8410 C.2    75  VAL75       0.2260
     65  O         80.8490   54.6780   91.4300 O.2    75  VAL75      -0.2867
     66  CB        81.4730   51.9840   89.8840 C.3    75  VAL75       0.0252
     67  CG1       79.9810   52.1570   90.1360 C.3    75  VAL75       0.0019
     68  CG2       81.8190   52.3440   88.4370 C.3    75  VAL75       0.0019
     69  N         79.6170   55.9730   83.8830 N.3    94  LEU94      -0.1231
     70  CA        80.3490   55.3820   84.9890 C.3    94  LEU94       0.1693
     71  C         81.7310   54.9510   84.5510 C.2    94  LEU94       0.2592
     72  O         82.0320   54.9030   83.3540 O.2    94  LEU94      -0.2718
     73  CB        79.5870   54.1690   85.5010 C.3    94  LEU94       0.0284
     74  CG        78.1280   54.4390   85.8650 C.3    94  LEU94       0.0019
     75  CD1       77.3330   53.1510   85.9100 C.3    94  LEU94       0.0001
     76  CD2       78.0930   55.1290   87.2060 C.3    94  LEU94       0.0001
     77  N         82.5660   54.6320   85.5340 N.am   95  ASP95      -0.1960
     78  CA        83.8930   54.0940   85.2800 C.3    95  ASP95       0.1840
     79  C         83.7620   52.7390   84.6270 C.2    95  ASP95       0.2622
     80  O         82.9590   51.9100   85.0750 O.2    95  ASP95      -0.2715
     81  CB        84.6350   53.9280   86.5950 C.3    95  ASP95       0.1450
     82  CG        85.2840   55.2030   87.0630 C.2    95  ASP95       0.3671
     83  OD1       85.6190   56.0640   86.2040 O.co2  95  ASP95      -0.2456
     84  OD2       85.4690   55.3120   88.3070 O.co2  95  ASP95      -0.2456
     85  N         84.5440   52.5100   83.5740 N.am   96  TYR96      -0.1960
     86  CA        84.5300   51.2230   82.8960 C.3    96  TYR96       0.1771
     87  C         85.6000   50.2940   83.4400 C.2    96  TYR96       0.2619
     88  O         86.7940   50.4990   83.2000 O.2    96  TYR96      -0.2715
     89  CB        84.6970   51.4060   81.3900 C.3    96  TYR96       0.0574
     90  CG        84.8000   50.1050   80.6470 C.ar   96  TYR96      -0.0198
     91  CD1       83.6610   49.3720   80.3340 C.ar   96  TYR96      -0.0009
     92  CD2       86.0410   49.5990   80.2520 C.ar   96  TYR96      -0.0009
     93  CE1       83.7510   48.1660   79.6520 C.ar   96  TYR96       0.0417
     94  CE2       86.1450   48.4050   79.5680 C.ar   96  TYR96       0.0417
     95  CZ        84.9980   47.6910   79.2670 C.ar   96  TYR96       0.1957
     96  OH        85.0970   46.4970   78.5790 O.3    96  TYR96      -0.2866
     97  N         85.1680   49.2700   84.1770 N.am   97  VAL97      -0.1964
     98  CA        86.0560   48.2110   84.6760 C.3    97  VAL97       0.1712
     99  C         85.5670   46.8250   84.2230 C.2    97  VAL97       0.2458
    100  O         84.6440   46.2580   84.8250 O.2    97  VAL97      -0.2730
    101  CB        86.1060   48.2430   86.2060 C.3    97  VAL97       0.0289
    102  CG1       87.0790   47.2090   86.7030 C.3    97  VAL97       0.0023
    103  CG2       86.4700   49.6420   86.7360 C.3    97  VAL97       0.0023
    104  N         86.1710   46.2700   83.1470 N.am   98  PRO98      -0.2727
    105  CA        85.6780   45.0270   82.5240 C.3    98  PRO98       0.1402
    106  C         85.7520   43.7810   83.4420 C.2    98  PRO98       0.2269
    107  O         84.8030   42.9520   83.4470 O.2    98  PRO98      -0.2865
    108  CB        86.5820   44.8600   81.2950 C.3    98  PRO98       0.0296
    109  CG        87.8190   45.6370   81.6140 C.3    98  PRO98       0.0237
    110  CD        87.3460   46.8040   82.4320 C.3    98  PRO98       0.0939
    111  N         85.5250   41.2700   86.4940 N.3   100  THR100     -0.1218
    112  CA        84.6870   41.0810   87.6670 C.3   100  THR100      0.1862
    113  C         85.2050   39.9250   88.5030 C.2   100  THR100      0.2287
    114  O         85.9800   39.1110   88.0160 O.2   100  THR100     -0.2866
    115  CB        83.2250   40.7760   87.2950 C.3   100  THR100      0.1770
    116  OG1       83.1600   39.5170   86.6110 O.3   100  THR100     -0.2211
    117  CG2       82.6470   41.8700   86.4110 C.3   100  THR100      0.0375
    118  N         83.7400   44.7970   90.4990 N.3   150  LEU150     -0.1245
    119  CA        84.6950   45.0830   89.4480 C.3   150  LEU150      0.1561
    120  C         86.1220   45.1720   89.9690 C.2   150  LEU150      0.2260
    121  O         86.3860   45.7610   91.0240 O.2   150  LEU150     -0.2867
    122  CB        84.3270   46.3960   88.7800 C.3   150  LEU150      0.0270
    123  CG        82.8800   46.4500   88.3070 C.3   150  LEU150      0.0019
    124  CD1       82.5700   47.8190   87.7070 C.3   150  LEU150      0.0001
    125  CD2       82.6310   45.2980   87.3170 C.3   150  LEU150      0.0001
    126  N         79.5510   48.0660   91.9850 N.3   161  CYS161     -0.1221
    127  CA        78.8370   48.7570   90.9260 C.3   161  CYS161      0.1808
    128  C         77.3830   48.3150   90.8500 C.2   161  CYS161      0.2601
    129  O         76.8860   47.6170   91.7390 O.2   161  CYS161     -0.2717
    130  CB        79.5360   48.5270   89.5920 C.3   161  CYS161      0.0970
    131  SG        79.1570   46.9200   88.9610 S.3   161  CYS161     -0.0800
    132  N         76.7110   48.7400   89.7820 N.am  162  ASP162     -0.1973
    133  CA        75.3070   48.4230   89.4990 C.3   162  ASP162      0.1709
    134  C         74.3580   48.7100   90.6710 C.2   162  ASP162      0.2293
    135  O         73.8450   47.7880   91.3270 O.2   162  ASP162     -0.2864
    136  CB        75.1500   47.0110   88.9800 C.3   162  ASP162      0.1436
    137  CG        73.7350   46.7270   88.4770 C.2   162  ASP162      0.3671
    138  OD1       73.3690   45.5290   88.3500 O.co2 162  ASP162     -0.2456
    139  OD2       72.9940   47.6970   88.2160 O.co2 162  ASP162     -0.2456
@<TRIPOS>BOND
     1    20    18   am
     2     1     2    1
     3     7     5    1
     4    18    19    2
     5    18    17    1
     6     2     5    1
     7     2     3    1
     8    35    34    2
     9     5     6    1
    10    12    11    2
    11     3     9   am
    12     3     4    2
    13     9    10    1
    14    34    33    1
    15    17    14    1
    16    11    10    1
    17    11    13   am
    18     6     8    1
    19    32    33    1
    20    14    13    1
    21    14    15    1
    22    96    95    1
    23    33    36    1
    24    95    94   ar
    25    95    93   ar
    26    94    92   ar
    27    93    91   ar
    28    15    16    2
    29    36    37    1
    30    36    38    1
    31    92    90   ar
    32    91    90   ar
    33    41    40    1
    34    41    42    2
    35    40    39    1
    36    40    43    1
    37    90    89    1
    38    46    45    1
    39    46    47    2
    40    24    23    2
    41    44    45    1
    42    23    22    1
    43    45    48    1
    44   108   109    1
    45   108   105    1
    46    89    86    1
    47   109   110    1
    48    29    27   ar
    49    29    31   ar
    50    27    26   ar
    51    21    22    1
    52    31    30   ar
    53   110   104    1
    54    22    25    1
    55   105   104    1
    56   105   106    1
    57    48    49    1
    58    86    87    1
    59    86    85    1
    60    26    25    1
    61    26    28   ar
    62    49    50    1
    63   104    99   am
    64    88    87    2
    65    30    28   ar
    66    72    71    2
    67    87    97   am
    68   106   107    2
    69    85    79   am
    70    69    70    1
    71    97    98    1
    72    99    98    1
    73    99   100    2
    74    50    51    1
    75    71    70    1
    76    71    77   am
    77    79    80    2
    78    79    78    1
    79    98   101    1
    80    51    52    1
    81    70    73    1
    82    78    77    1
    83    78    81    1
    84    73    74    1
    85    74    75    1
    86    74    76    1
    87    83    82   ar
    88   101   102    1
    89   101   103    1
    90   117   115    1
    91   111   112    1
    92    81    82    1
    93   116   115    1
    94    82    84   ar
    95   115   112    1
    96   125   123    1
    97   112   113    1
    98   124   123    1
    99    61    59   ar
   100   114   113    2
   101   139   137   ar
   102    60    59   ar
   103   123   122    1
   104   138   137   ar
   105    68    66    1
   106   137   136    1
   107    59    58    1
   108   122   119    1
   109   131   130    1
   110   136   133    1
   111   119   120    1
   112   119   118    1
   113   133   132    1
   114   133   134    1
   115   130   127    1
   116    58    57    1
   117   132   128   am
   118    66    67    1
   119    66    63    1
   120    57    54    1
   121   120   121    2
   122   134   135    2
   123    64    63    1
   124    64    65    2
   125   128   127    1
   126   128   129    2
   127    63    62    1
   128   127   126    1
   129    55    54    1
   130    55    56    2
   131    54    53    1
