@<TRIPOS>MOLECULE
tmp/4j1tE00.pdb
 183 173 0 0 0
SMALL
GASTEIGER

@<TRIPOS>ATOM
      1  N       -114.7010  -23.9760  -36.6940 N.3   122  ARG122     -0.1245
      2  CA      -115.0520  -23.1470  -35.5550 C.3   122  ARG122      0.1563
      3  C       -116.5760  -23.1390  -35.4070 C.2   122  ARG122      0.2260
      4  O       -117.2400  -22.1040  -35.5010 O.2   122  ARG122     -0.2867
      5  CB      -114.4260  -21.7540  -35.6620 C.3   122  ARG122      0.0307
      6  CG      -113.2710  -21.5580  -34.6870 C.3   122  ARG122      0.0489
      7  CD      -111.9270  -21.1900  -35.3620 C.3   122  ARG122      0.2205
      8  NE      -110.8080  -21.5470  -34.4710 N.pl3 122  ARG122     -0.0865
      9  CZ      -109.5870  -21.0080  -34.4930 C.cat 122  ARG122      0.5346
     10  NH1     -109.2700  -20.0670  -35.3740 N.pl3 122  ARG122      0.1354
     11  NH2     -108.6800  -21.4090  -33.6140 N.pl3 122  ARG122      0.1354
     12  N       -118.6480  -24.7460  -32.3410 N.3   124  THR124     -0.1218
     13  CA      -117.9290  -24.9540  -31.1290 C.3   124  THR124      0.1862
     14  C       -118.3710  -26.0290  -30.1140 C.2   124  THR124      0.2287
     15  O       -118.4340  -25.8300  -28.8920 O.2   124  THR124     -0.2866
     16  CB      -117.1330  -23.6670  -30.7350 C.3   124  THR124      0.1770
     17  OG1     -115.8550  -24.0440  -30.1990 O.3   124  THR124     -0.2211
     18  CG2     -117.9400  -22.7020  -29.8320 C.3   124  THR124      0.0375
     19  N       -114.4760  -27.2040  -29.9220 N.3   127  GLN127     -0.1245
     20  CA      -113.5360  -26.4840  -29.0500 C.3   127  GLN127      0.1566
     21  C       -112.4070  -27.3690  -28.5040 C.2   127  GLN127      0.2260
     22  O       -111.2300  -27.0130  -28.6080 O.2   127  GLN127     -0.2867
     23  CB      -114.2820  -25.8190  -27.8930 C.3   127  GLN127      0.0367
     24  CG      -114.2560  -24.2850  -27.8740 C.3   127  GLN127      0.0905
     25  CD      -115.5320  -23.7070  -27.2530 C.2   127  GLN127      0.2608
     26  OE1     -116.6130  -23.8220  -27.8330 O.2   127  GLN127     -0.2717
     27  NE2     -115.4150  -23.1080  -26.0600 N.am  127  GLN127     -0.0878
     28  N       -105.4900  -24.9210  -33.3880 N.3   132  LEU132     -0.1245
     29  CA      -105.1590  -23.5360  -33.6490 C.3   132  LEU132      0.1561
     30  C       -105.3070  -22.7070  -32.3960 C.2   132  LEU132      0.2260
     31  O       -104.4390  -21.9060  -32.0960 O.2   132  LEU132     -0.2867
     32  CB      -105.9720  -22.9390  -34.8150 C.3   132  LEU132      0.0270
     33  CG      -105.5590  -23.4530  -36.2070 C.3   132  LEU132      0.0019
     34  CD1     -106.5530  -23.0210  -37.3050 C.3   132  LEU132      0.0001
     35  CD2     -104.1160  -23.0670  -36.5590 C.3   132  LEU132      0.0001
     36  N       -102.3680  -21.0880  -30.3060 N.3   136  ALA136     -0.1245
     37  CA      -102.4060  -19.6200  -30.2740 C.3   136  ALA136      0.1562
     38  C       -102.3000  -19.1010  -28.8070 C.2   136  ALA136      0.2260
     39  O       -101.5820  -18.1510  -28.5210 O.2   136  ALA136     -0.2867
     40  CB      -103.6230  -19.0750  -31.0060 C.3   136  ALA136      0.0290
     41  N       -105.1070   -7.1100  -33.0770 N.3   174  GLY174     -0.1210
     42  CA      -105.6140   -8.4270  -33.4320 C.3   174  GLY174      0.1956
     43  C       -105.8950   -9.1900  -32.1510 C.2   174  GLY174      0.2612
     44  O       -104.9810   -9.7520  -31.5350 O.2   174  GLY174     -0.2717
     45  N       -107.1610   -9.1970  -31.7430 N.am  175  VAL175     -0.1965
     46  CA      -107.5750   -9.8070  -30.4840 C.3   175  VAL175      0.1727
     47  C       -108.3090  -11.1390  -30.7490 C.2   175  VAL175      0.2617
     48  O       -109.5190  -11.2080  -30.6400 O.2   175  VAL175     -0.2715
     49  CB      -108.5260   -8.8510  -29.7010 C.3   175  VAL175      0.0290
     50  CG1     -108.6230   -9.2460  -28.2560 C.3   175  VAL175      0.0023
     51  CG2     -108.0220   -7.4410  -29.7800 C.3   175  VAL175      0.0023
     52  N       -107.5600  -12.1770  -31.1050 N.am  176  GLY176     -0.1940
     53  CA      -108.1100  -13.5090  -31.2110 C.3   176  GLY176      0.2014
     54  C       -107.6530  -14.2590  -29.9800 C.2   176  GLY176      0.2639
     55  O       -107.3570  -13.6520  -28.9380 O.2   176  GLY176     -0.2714
     56  N       -107.5750  -15.5780  -30.0960 N.am  177  VAL177     -0.1963
     57  CA      -107.0490  -16.4150  -29.0170 C.3   177  VAL177      0.1727
     58  C       -105.6540  -15.9620  -28.5670 C.2   177  VAL177      0.2616
     59  O       -105.4080  -15.8180  -27.3630 O.2   177  VAL177     -0.2715
     60  CB      -107.0160  -17.9080  -29.4310 C.3   177  VAL177      0.0290
     61  CG1     -106.8010  -18.8010  -28.2100 C.3   177  VAL177      0.0023
     62  CG2     -108.2920  -18.2830  -30.1840 C.3   177  VAL177      0.0023
     63  N       -104.7510  -15.7280  -29.5200 N.am  178  ALA178     -0.1977
     64  CA      -103.3670  -15.3470  -29.1660 C.3   178  ALA178      0.1597
     65  C       -103.4040  -13.9980  -28.5090 C.2   178  ALA178      0.2287
     66  O       -102.8140  -13.8060  -27.4400 O.2   178  ALA178     -0.2864
     67  CB      -102.4400  -15.3260  -30.3750 C.3   178  ALA178      0.0319
     68  N       -105.7850  -12.4350  -27.0270 N.3   180  LEU180     -0.1245
     69  CA      -106.4410  -12.4580  -25.7130 C.3   180  LEU180      0.1561
     70  C       -105.4980  -12.9410  -24.6220 C.2   180  LEU180      0.2260
     71  O       -105.5200  -12.4240  -23.5170 O.2   180  LEU180     -0.2867
     72  CB      -107.7250  -13.2950  -25.7250 C.3   180  LEU180      0.0270
     73  CG      -108.9380  -12.6130  -26.3840 C.3   180  LEU180      0.0019
     74  CD1     -110.0770  -13.6320  -26.6090 C.3   180  LEU180      0.0001
     75  CD2     -109.4290  -11.3820  -25.6190 C.3   180  LEU180      0.0001
     76  N       -106.8410   -3.5530  -29.8880 N.3   196  TYR196     -0.1227
     77  CA      -107.3390   -3.1230  -31.1840 C.3   196  TYR196      0.1736
     78  C       -107.8200   -4.2970  -32.0480 C.2   196  TYR196      0.2595
     79  O       -107.0850   -5.2540  -32.2720 O.2   196  TYR196     -0.2718
     80  CB      -106.2970   -2.2650  -31.9360 C.3   196  TYR196      0.0548
     81  CG      -106.7100   -1.9620  -33.3650 C.ar  196  TYR196     -0.0200
     82  CD1     -107.8910   -1.2650  -33.6360 C.ar  196  TYR196     -0.0009
     83  CD2     -105.9290   -2.3840  -34.4440 C.ar  196  TYR196     -0.0009
     84  CE1     -108.2870   -1.0170  -34.9350 C.ar  196  TYR196      0.0417
     85  CE2     -106.3160   -2.1220  -35.7580 C.ar  196  TYR196      0.0417
     86  CZ      -107.4950   -1.4420  -35.9890 C.ar  196  TYR196      0.1957
     87  OH      -107.8920   -1.1820  -37.2770 O.3   196  TYR196     -0.2866
     88  N       -109.0560   -4.2040  -32.5260 N.am  197  ASP197     -0.1960
     89  CA      -109.6060   -5.1860  -33.4570 C.3   197  ASP197      0.1840
     90  C       -110.7430   -4.5540  -34.2100 C.2   197  ASP197      0.2622
     91  O       -111.4310   -3.7050  -33.6660 O.2   197  ASP197     -0.2715
     92  CB      -110.1270   -6.4160  -32.7180 C.3   197  ASP197      0.1450
     93  CG      -110.0990   -7.6610  -33.5730 C.2   197  ASP197      0.3671
     94  OD1     -110.9760   -7.8290  -34.4570 O.co2 197  ASP197     -0.2456
     95  OD2     -109.1890   -8.4800  -33.3530 O.co2 197  ASP197     -0.2456
     96  N       -110.9410   -4.9730  -35.4600 N.am  198  VAL198     -0.1963
     97  CA      -112.0930   -4.5270  -36.2750 C.3   198  VAL198      0.1727
     98  C       -113.4520   -4.9650  -35.6720 C.2   198  VAL198      0.2616
     99  O       -114.5070   -4.3640  -35.9690 O.2   198  VAL198     -0.2715
    100  CB      -111.9970   -5.0030  -37.7870 C.3   198  VAL198      0.0290
    101  CG1     -110.8430   -4.3140  -38.5260 C.3   198  VAL198      0.0023
    102  CG2     -111.8520   -6.5050  -37.9010 C.3   198  VAL198      0.0023
    103  N       -113.4140   -5.9910  -34.8200 N.am  199  ARG199     -0.1977
    104  CA      -114.6350   -6.6420  -34.3310 C.3   199  ARG199      0.1597
    105  C       -115.0710   -6.2640  -32.9140 C.2   199  ARG199      0.2287
    106  O       -114.3050   -6.3810  -31.9560 O.2   199  ARG199     -0.2864
    107  CB      -114.4970   -8.1670  -34.4610 C.3   199  ARG199      0.0334
    108  CG      -114.4710   -8.6580  -35.8980 C.3   199  ARG199      0.0492
    109  CD      -113.6840   -9.9430  -36.0200 C.3   199  ARG199      0.2205
    110  NE      -113.7100  -10.6660  -34.7570 N.pl3 199  ARG199     -0.0865
    111  CZ      -113.3810  -11.9380  -34.6030 C.cat 199  ARG199      0.5346
    112  NH1     -112.9990  -12.6520  -35.6520 N.pl3 199  ARG199      0.1354
    113  NH2     -113.4470  -12.4890  -33.3970 N.pl3 199  ARG199      0.1354
    114  N       -114.4300   -8.9270  -25.4400 N.3   205  GLN205     -0.1245
    115  CA      -113.6790   -9.9400  -24.7280 C.3   205  GLN205      0.1566
    116  C       -112.4440   -9.3160  -24.0990 C.2   205  GLN205      0.2260
    117  O       -112.0800   -9.6510  -22.9690 O.2   205  GLN205     -0.2867
    118  CB      -113.2810  -11.0870  -25.6520 C.3   205  GLN205      0.0367
    119  CG      -114.3850  -12.0630  -25.9460 C.3   205  GLN205      0.0905
    120  CD      -113.9790  -13.0420  -27.0230 C.2   205  GLN205      0.2608
    121  OE1     -114.0020  -12.7150  -28.2090 O.2   205  GLN205     -0.2717
    122  NE2     -113.5930  -14.2490  -26.6190 N.am  205  GLN205     -0.0878
    123  N       -101.0470   -9.6230  -33.9790 N.3   255  THR255     -0.1203
    124  CA      -101.3820  -11.0370  -34.1480 C.3   255  THR255      0.1994
    125  C       -102.2680  -11.3830  -35.3230 C.2   255  THR255      0.2618
    126  O       -102.6570  -12.5330  -35.4520 O.2   255  THR255     -0.2717
    127  CB      -102.1280  -11.5990  -32.9190 C.3   255  THR255      0.1784
    128  OG1     -103.4900  -11.1490  -32.9500 O.3   255  THR255     -0.2211
    129  CG2     -101.4610  -11.1920  -31.6160 C.3   255  THR255      0.0376
    130  N       -102.6020  -10.4090  -36.1640 N.am  256  ALA256     -0.1965
    131  CA      -103.6190  -10.6320  -37.1910 C.3   256  ALA256      0.1728
    132  C       -103.1340  -11.5670  -38.2820 C.2   256  ALA256      0.2616
    133  O       -102.0980  -11.3200  -38.9050 O.2   256  ALA256     -0.2715
    134  CB      -104.1080   -9.3450  -37.7820 C.3   256  ALA256      0.0334
    135  N       -103.8800  -12.6470  -38.5040 N.am  257  GLN257     -0.1963
    136  CA      -103.6320  -13.5300  -39.6420 C.3   257  GLN257      0.1733
    137  C       -104.9530  -13.9070  -40.3040 C.2   257  GLN257      0.2616
    138  O       -106.0020  -13.9050  -39.6660 O.2   257  GLN257     -0.2715
    139  CB      -102.8140  -14.7760  -39.2450 C.3   257  GLN257      0.0408
    140  CG      -101.5640  -14.4250  -38.4560 C.3   257  GLN257      0.0908
    141  CD      -100.4440  -15.4130  -38.6000 C.2   257  GLN257      0.2608
    142  OE1      -99.7050  -15.3900  -39.5730 O.2   257  GLN257     -0.2717
    143  NE2     -100.2860  -16.2710  -37.6040 N.am  257  GLN257     -0.0878
    144  N       -104.8890  -14.2000  -41.5970 N.am  258  VAL258     -0.1964
    145  CA      -106.0390  -14.6870  -42.3410 C.3   258  VAL258      0.1712
    146  C       -105.5730  -15.9950  -43.0010 C.2   258  VAL258      0.2458
    147  O       -104.5980  -15.9930  -43.7530 O.2   258  VAL258     -0.2730
    148  CB      -106.5380  -13.6430  -43.3800 C.3   258  VAL258      0.0289
    149  CG1     -107.7030  -14.1820  -44.2160 C.3   258  VAL258      0.0023
    150  CG2     -106.9580  -12.3530  -42.6860 C.3   258  VAL258      0.0023
    151  N       -106.2650  -17.1040  -42.7150 N.am  259  PRO259     -0.2727
    152  CA      -105.8060  -18.4290  -43.1500 C.3   259  PRO259      0.1402
    153  C       -105.8290  -18.4980  -44.6670 C.2   259  PRO259      0.2269
    154  O       -106.8570  -18.2030  -45.2940 O.2   259  PRO259     -0.2865
    155  CB      -106.8210  -19.3960  -42.5250 C.3   259  PRO259      0.0296
    156  CG      -107.6490  -18.5610  -41.5590 C.3   259  PRO259      0.0237
    157  CD      -107.6040  -17.1610  -42.0960 C.3   259  PRO259      0.0939
    158  N       -104.2270  -16.4750  -46.7050 N.3   261  ARG261     -0.1245
    159  CA      -103.7370  -15.1830  -47.1940 C.3   261  ARG261      0.1563
    160  C       -102.4030  -14.7590  -46.5520 C.2   261  ARG261      0.2260
    161  O       -101.9100  -15.4040  -45.6220 O.2   261  ARG261     -0.2867
    162  CB      -104.8170  -14.1140  -46.9330 C.3   261  ARG261      0.0307
    163  CG      -104.5770  -12.7340  -47.5680 C.3   261  ARG261      0.0489
    164  CD      -105.2550  -11.6180  -46.7680 C.3   261  ARG261      0.2205
    165  NE      -104.5630  -10.3380  -46.9500 N.pl3 261  ARG261     -0.0865
    166  CZ      -104.9070   -9.1920  -46.3580 C.cat 261  ARG261      0.5346
    167  NH1     -105.9460   -9.1410  -45.5280 N.pl3 261  ARG261      0.1354
    168  NH2     -104.2080   -8.0870  -46.6000 N.pl3 261  ARG261      0.1354
    169  N       -102.1110   -9.1480  -43.0330 N.3   264  PRO264     -0.2116
    170  CA      -102.4030   -7.7360  -43.2130 C.3   264  PRO264      0.1372
    171  C       -101.2950   -6.9300  -42.5600 C.2   264  PRO264      0.2244
    172  O       -100.6900   -7.3970  -41.5790 O.2   264  PRO264     -0.2868
    173  CB      -103.7320   -7.5420  -42.4660 C.3   264  PRO264      0.0268
    174  CG      -103.8530   -8.7290  -41.5810 C.3   264  PRO264      0.0207
    175  CD      -103.1910   -9.8420  -42.3170 C.3   264  PRO264      0.0892
    176  N       -100.6450   -4.0080  -40.2940 N.3   266  LEU266     -0.1245
    177  CA      -101.2470   -3.0980  -39.3150 C.3   266  LEU266      0.1561
    178  C       -100.3010   -1.9570  -38.9000 C.2   266  LEU266      0.2260
    179  O       -100.7500   -0.9350  -38.3860 O.2   266  LEU266     -0.2867
    180  CB      -101.7260   -3.8620  -38.0730 C.3   266  LEU266      0.0270
    181  CG      -102.5640   -5.1370  -38.2610 C.3   266  LEU266      0.0019
    182  CD1     -102.9690   -5.6590  -36.9130 C.3   266  LEU266      0.0001
    183  CD2     -103.7840   -4.8830  -39.1360 C.3   266  LEU266      0.0001
@<TRIPOS>BOND
     1   163   162    1
     2   163   164    1
     3   159   162    1
     4   159   158    1
     5   159   160    1
     6   165   164    1
     7   165   166    2
     8   168   166    1
     9   160   161    2
    10   166   167    1
    11   154   153    2
    12   153   152    1
    13   149   148    1
    14   147   146    2
    15   148   150    1
    16   148   145    1
    17   170   169    1
    18   170   171    1
    19   170   173    1
    20   152   151    1
    21   152   155    1
    22   169   175    1
    23   146   151   am
    24   146   145    1
    25   151   157    1
    26   171   172    2
    27   155   156    1
    28   173   174    1
    29   145   144    1
    30   175   174    1
    31   157   156    1
    32   144   137   am
    33   137   138    2
    34   137   136    1
    35   176   177    1
    36   136   139    1
    37   136   135    1
    38   142   141    2
    39   177   178    1
    40   177   180    1
    41   139   140    1
    42   183   181    1
    43   133   132    2
    44   178   179    2
    45   141   140    1
    46   141   143   am
    47   101   100    1
    48   135   132   am
    49   132   131    1
    50   181   180    1
    51   181   182    1
    52   102   100    1
    53   100    97    1
    54   134   131    1
    55    34    33    1
    56    87    86    1
    57   131   130    1
    58     1     2    1
    59    35    33    1
    60    97    98    1
    61    97    96    1
    62    33    32    1
    63   130   125   am
    64   109   108    1
    65   109   110    1
    66    86    85   ar
    67    86    84   ar
    68    99    98    2
    69   108   107    1
    70    85    83   ar
    71    98   103   am
    72     5     2    1
    73     5     6    1
    74   112   111    1
    75     2     3    1
    76     4     3    2
    77    96    90   am
    78   126   125    2
    79    10     9    1
    80     7     6    1
    81     7     8    1
    82   125   124    1
    83    84    82   ar
    84   103   104    1
    85    32    29    1
    86   110   111    2
    87   111   113    1
    88     9     8    2
    89     9    11    1
    90   107   104    1
    91    94    93   ar
    92    83    81   ar
    93   104   105    1
    94    90    91    2
    95    90    89    1
    96   124   123    1
    97   124   127    1
    98    29    28    1
    99    29    30    1
   100    82    81   ar
   101    93    95   ar
   102    93    92    1
   103    89    92    1
   104    89    88    1
   105    42    41    1
   106    42    43    1
   107    81    80    1
   108   128   127    1
   109   127   129    1
   110   105   106    2
   111    88    78   am
   112    30    31    2
   113    12    13    1
   114    79    78    2
   115    43    45   am
   116    43    44    2
   117    78    77    1
   118    80    77    1
   119    45    46    1
   120    53    52    1
   121    53    54    1
   122    77    76    1
   123    13    16    1
   124    13    14    1
   125    52    47   am
   126    40    37    1
   127    47    48    2
   128    47    46    1
   129    16    17    1
   130    16    18    1
   131    46    49    1
   132    67    64    1
   133    36    37    1
   134    37    38    1
   135    62    60    1
   136    14    15    2
   137    56    54   am
   138    56    57    1
   139    54    55    2
   140    19    20    1
   141    51    49    1
   142    49    50    1
   143    63    64    1
   144    63    58   am
   145    60    57    1
   146    60    61    1
   147    64    65    1
   148    20    21    1
   149    20    23    1
   150    57    58    1
   151    38    39    2
   152    22    21    2
   153    58    59    2
   154    65    66    2
   155   121   120    2
   156    23    24    1
   157    24    25    1
   158    26    25    2
   159    25    27   am
   160    68    69    1
   161   120   122   am
   162   120   119    1
   163    74    73    1
   164    73    72    1
   165    73    75    1
   166   119   118    1
   167    72    69    1
   168    69    70    1
   169   118   115    1
   170   114   115    1
   171   115   116    1
   172    70    71    2
   173   116   117    2
