@<TRIPOS>MOLECULE
tmp/4j1vB00.pdb
 203 204 0 0 0
SMALL
GASTEIGER

@<TRIPOS>ATOM
      1  N         11.1500   25.6380   42.9940 N.3    50  GLY50      -0.1210
      2  CA        12.3810   26.3790   42.8000 C.3    50  GLY50       0.1940
      3  C         12.6740   27.3060   43.9680 C.2    50  GLY50       0.2454
      4  O         11.8850   27.3790   44.9050 O.2    50  GLY50      -0.2732
      5  N         13.7970   28.0420   43.9300 N.am   51  PRO51      -0.2717
      6  CA        14.2110   28.9720   44.9870 C.3    51  PRO51       0.1535
      7  C         13.3270   30.2030   45.1950 C.2    51  PRO51       0.2598
      8  O         13.3910   30.8310   46.2490 O.2    51  PRO51      -0.2715
      9  CB        15.6240   29.3820   44.5580 C.3    51  PRO51       0.0310
     10  CG        16.0940   28.2350   43.7200 C.3    51  PRO51       0.0237
     11  CD        14.8560   27.9040   42.9180 C.3    51  PRO51       0.0939
     12  N         12.5000   30.5390   44.2070 N.am   52  ARG52      -0.1964
     13  CA        11.6610   31.7350   44.2980 C.3    52  ARG52       0.1729
     14  C         10.2000   31.5260   44.6930 C.2    52  ARG52       0.2616
     15  O          9.5000   32.4950   44.9890 O.2    52  ARG52      -0.2715
     16  CB        11.6820   32.4830   42.9580 C.3    52  ARG52       0.0348
     17  CG        13.0610   32.6300   42.3170 C.3    52  ARG52       0.0492
     18  CD        12.9740   33.4840   41.0550 C.3    52  ARG52       0.2205
     19  NE        12.8120   34.9030   41.3610 N.pl3  52  ARG52      -0.0865
     20  CZ        12.2370   35.7890   40.5530 C.cat  52  ARG52       0.5346
     21  NH1       11.7520   35.4080   39.3760 N.pl3  52  ARG52       0.1354
     22  NH2       12.1570   37.0620   40.9170 N.pl3  52  ARG52       0.1354
     23  N          9.7400   30.2790   44.7130 N.am   53  TYR53      -0.1960
     24  CA         8.3360   30.0050   45.0130 C.3    53  TYR53       0.1771
     25  C          8.1510   28.8080   45.9280 C.2    53  TYR53       0.2619
     26  O          8.6500   27.7180   45.6500 O.2    53  TYR53      -0.2715
     27  CB         7.5810   29.7440   43.7070 C.3    53  TYR53       0.0574
     28  CG         7.8840   30.7340   42.6030 C.ar   53  TYR53      -0.0198
     29  CD1        7.3670   32.0290   42.6380 C.ar   53  TYR53      -0.0009
     30  CD2        8.6830   30.3720   41.5190 C.ar   53  TYR53      -0.0009
     31  CE1        7.6370   32.9380   41.6180 C.ar   53  TYR53       0.0417
     32  CE2        8.9570   31.2730   40.4960 C.ar   53  TYR53       0.0417
     33  CZ         8.4300   32.5520   40.5510 C.ar   53  TYR53       0.1957
     34  OH         8.6780   33.4410   39.5290 O.3    53  TYR53      -0.2866
     35  N          7.3990   29.0140   47.0020 N.am   54  GLU54      -0.1963
     36  CA         7.1390   27.9640   47.9760 C.3    54  GLU54       0.1733
     37  C          5.6460   27.9380   48.2880 C.2    54  GLU54       0.2616
     38  O          4.9850   28.9700   48.2210 O.2    54  GLU54      -0.2715
     39  CB         7.9370   28.2610   49.2380 C.3    54  GLU54       0.0429
     40  CG         7.7940   27.2780   50.3580 C.3    54  GLU54       0.1163
     41  CD         8.5610   27.7430   51.5840 C.2    54  GLU54       0.3649
     42  OE1        9.7690   28.0140   51.4550 O.co2  54  GLU54      -0.2457
     43  OE2        7.9590   27.8450   52.6720 O.co2  54  GLU54      -0.2457
     44  N          5.1230   26.7660   48.6370 N.am   55  TYR55      -0.1960
     45  CA         3.6990   26.6240   48.9480 C.3    55  TYR55       0.1771
     46  C          3.5030   26.1750   50.3880 C.2    55  TYR55       0.2620
     47  O          3.8700   25.0620   50.7530 O.2    55  TYR55      -0.2715
     48  CB         3.0590   25.5990   48.0140 C.3    55  TYR55       0.0574
     49  CG         3.1900   25.9530   46.5550 C.ar   55  TYR55      -0.0198
     50  CD1        2.2220   26.7230   45.9110 C.ar   55  TYR55      -0.0009
     51  CD2        4.2840   25.5100   45.8160 C.ar   55  TYR55      -0.0009
     52  CE1        2.3400   27.0370   44.5500 C.ar   55  TYR55       0.0417
     53  CE2        4.4130   25.8150   44.4690 C.ar   55  TYR55       0.0417
     54  CZ         3.4390   26.5740   43.8420 C.ar   55  TYR55       0.1957
     55  OH         3.5640   26.8520   42.5020 O.3    55  TYR55      -0.2866
     56  N          2.9040   27.0410   51.1950 N.am   56  HIS56      -0.1959
     57  CA         2.6700   26.7370   52.5980 C.3    56  HIS56       0.1787
     58  C          1.4470   25.8520   52.8000 C.2    56  HIS56       0.2620
     59  O          0.5160   25.8520   51.9930 O.2    56  HIS56      -0.2715
     60  CB         2.4880   28.0380   53.3860 C.3    56  HIS56       0.0785
     61  CG         3.6800   28.9400   53.3460 C.ar   56  HIS56       0.0821
     62  ND1        3.6030   30.2900   53.6160 N.ar   56  HIS56      -0.2267
     63  CD2        4.9830   28.6820   53.0880 C.ar   56  HIS56       0.1154
     64  CE1        4.8070   30.8240   53.5230 C.ar   56  HIS56       0.1986
     65  NE2        5.6620   29.8690   53.2050 N.ar   56  HIS56      -0.2212
     66  N          1.4590   25.0830   53.8790 N.am   57  TRP57      -0.1960
     67  CA         0.3180   24.2400   54.1910 C.3    57  TRP57       0.1771
     68  C         -0.7820   25.1710   54.7050 C.2    57  TRP57       0.2620
     69  O         -1.9560   25.0080   54.3740 O.2    57  TRP57      -0.2715
     70  CB         0.6880   23.2110   55.2580 C.3    57  TRP57       0.0590
     71  CG        -0.4730   22.3940   55.7190 C.ar   57  TRP57       0.0006
     72  CD1       -1.1780   22.5510   56.8820 C.ar   57  TRP57       0.0946
     73  CD2       -1.0850   21.3020   55.0230 C.ar   57  TRP57       0.0152
     74  NE1       -2.1880   21.6220   56.9520 N.ar   57  TRP57      -0.2442
     75  CE2       -2.1550   20.8440   55.8240 C.ar   57  TRP57       0.0810
     76  CE3       -0.8340   20.6660   53.7990 C.ar   57  TRP57       0.0012
     77  CZ2       -2.9770   19.7760   55.4410 C.ar   57  TRP57       0.0191
     78  CZ3       -1.6500   19.6040   53.4180 C.ar   57  TRP57       0.0001
     79  CH2       -2.7090   19.1700   54.2390 C.ar   57  TRP57       0.0015
     80  N         -0.3850   26.1550   55.5070 N.am   58  ALA58      -0.1963
     81  CA        -1.3260   27.1270   56.0570 C.3    58  ALA58       0.1728
     82  C         -0.6220   28.4400   56.3930 C.2    58  ALA58       0.2616
     83  O          0.4890   28.4390   56.9240 O.2    58  ALA58      -0.2715
     84  CB        -2.0000   26.5580   57.3020 C.3    58  ALA58       0.0334
     85  N         -1.2680   29.5600   56.0740 N.am   59  ASP59      -0.1971
     86  CA        -0.6950   30.8740   56.3620 C.3    59  ASP59       0.1709
     87  C         -1.7660   31.9590   56.3460 C.2    59  ASP59       0.2293
     88  O         -2.9540   31.6660   56.1960 O.2    59  ASP59      -0.2864
     89  CB         0.4140   31.2180   55.3530 C.3    59  ASP59       0.1436
     90  CG        -0.1170   31.4670   53.9480 C.2    59  ASP59       0.3671
     91  OD1        0.7030   31.7260   53.0400 O.co2  59  ASP59      -0.2456
     92  OD2       -1.3480   31.4050   53.7470 O.co2  59  ASP59      -0.2456
     93  N          4.3660   30.7450   59.3170 N.3    60  PRO60      -0.2116
     94  CA         3.4790   29.8800   58.5350 C.3    60  PRO60       0.1372
     95  C          3.7940   28.3960   58.6950 C.2    60  PRO60       0.2244
     96  O          4.9190   28.0160   59.0200 O.2    60  PRO60      -0.2868
     97  CB         3.7000   30.3690   57.1080 C.3    60  PRO60       0.0268
     98  CG         5.1410   30.7600   57.1230 C.3    60  PRO60       0.0207
     99  CD         5.2410   31.5270   58.4260 C.3    60  PRO60       0.0892
    100  N          4.4250   24.8120   57.1850 N.3    62  LYS62      -0.1245
    101  CA         4.9060   24.1990   55.9510 C.3    62  LYS62       0.1561
    102  C          4.7880   22.6840   56.0340 C.2    62  LYS62       0.2260
    103  O          4.5270   22.1370   57.0990 O.2    62  LYS62      -0.2867
    104  CB         6.3700   24.5690   55.7290 C.3    62  LYS62       0.0271
    105  CG         6.6530   26.0560   55.8170 C.3    62  LYS62       0.0035
    106  CD         8.1380   26.3350   55.6910 C.3    62  LYS62       0.0206
    107  CE         8.4330   27.8160   55.8540 C.3    62  LYS62       0.1093
    108  NZ         9.8880   28.0970   55.7190 N.3    62  LYS62      -0.1314
    109  N          2.0680   17.2730   50.6970 N.3    68  TYR68      -0.1241
    110  CA         1.3090   18.3500   50.0700 C.3    68  TYR68       0.1605
    111  C          0.6170   17.8540   48.8020 C.2    68  TYR68       0.2264
    112  O         -0.5860   18.0250   48.6300 O.2    68  TYR68      -0.2867
    113  CB         2.2480   19.5140   49.7220 C.3    68  TYR68       0.0534
    114  CG         1.5630   20.7650   49.1890 C.ar   68  TYR68      -0.0201
    115  CD1        1.1160   20.8340   47.8650 C.ar   68  TYR68      -0.0009
    116  CD2        1.3820   21.8850   50.0040 C.ar   68  TYR68      -0.0009
    117  CE1        0.5070   21.9900   47.3660 C.ar   68  TYR68       0.0417
    118  CE2        0.7720   23.0470   49.5190 C.ar   68  TYR68       0.0417
    119  CZ         0.3390   23.0900   48.1960 C.ar   68  TYR68       0.1957
    120  OH        -0.2670   24.2260   47.7060 O.3    68  TYR68      -0.2866
    121  N         -2.1170   15.1630   49.4510 N.3    71  TYR71      -0.1227
    122  CA        -3.3470   15.7750   49.9450 C.3    71  TYR71       0.1736
    123  C         -4.0990   16.4900   48.8260 C.2    71  TYR71       0.2595
    124  O         -5.3170   16.3500   48.6870 O.2    71  TYR71      -0.2718
    125  CB        -3.0500   16.7720   51.0730 C.3    71  TYR71       0.0548
    126  CG        -4.2550   17.6030   51.4720 C.ar   71  TYR71      -0.0200
    127  CD1       -4.4760   18.8530   50.9000 C.ar   71  TYR71      -0.0009
    128  CD2       -5.2030   17.1150   52.3820 C.ar   71  TYR71      -0.0009
    129  CE1       -5.6080   19.6010   51.2140 C.ar   71  TYR71       0.0417
    130  CE2       -6.3420   17.8610   52.7060 C.ar   71  TYR71       0.0417
    131  CZ        -6.5340   19.1020   52.1140 C.ar   71  TYR71       0.1957
    132  OH        -7.6520   19.8510   52.4080 O.3    71  TYR71      -0.2866
    133  N         -3.3660   17.2690   48.0400 N.am   72  LEU72      -0.1980
    134  CA        -3.9510   18.0200   46.9420 C.3    72  LEU72       0.1596
    135  C         -4.5930   17.0980   45.8990 C.2    72  LEU72       0.2287
    136  O         -5.7090   17.3430   45.4380 O.2    72  LEU72      -0.2864
    137  CB        -2.8630   18.8820   46.2990 C.3    72  LEU72       0.0297
    138  CG        -3.1430   19.6580   45.0120 C.3    72  LEU72       0.0022
    139  CD1       -2.0300   20.6770   44.8240 C.3    72  LEU72       0.0001
    140  CD2       -3.2140   18.7180   43.8100 C.3    72  LEU72       0.0001
    141  N         -5.9230   25.3130   39.3740 N.3   107  LYS107     -0.1231
    142  CA        -4.8410   26.0640   40.0100 C.3   107  LYS107      0.1693
    143  C         -3.9700   25.0910   40.8100 C.2   107  LYS107      0.2591
    144  O         -2.7420   25.1960   40.8250 O.2   107  LYS107     -0.2718
    145  CB        -5.4080   27.1330   40.9560 C.3   107  LYS107      0.0285
    146  CG        -5.8920   28.4020   40.2670 C.3   107  LYS107      0.0035
    147  CD        -6.8270   29.2140   41.1700 C.3   107  LYS107      0.0206
    148  CE        -6.1790   29.5850   42.5060 C.3   107  LYS107      0.1093
    149  NZ        -4.9910   30.4810   42.3280 N.3   107  LYS107     -0.1314
    150  N         -4.6080   24.1330   41.4710 N.am  108  ARG108     -0.1980
    151  CA        -3.8580   23.1740   42.2730 C.3   108  ARG108      0.1597
    152  C         -3.0670   22.1670   41.4500 C.2   108  ARG108      0.2287
    153  O         -1.9260   21.8480   41.8000 O.2   108  ARG108     -0.2864
    154  CB        -4.7910   22.4760   43.2650 C.3   108  ARG108      0.0334
    155  CG        -5.2840   23.4440   44.3300 C.3   108  ARG108      0.0492
    156  CD        -6.3320   22.8760   45.2680 C.3   108  ARG108      0.2205
    157  NE        -6.6290   23.8510   46.3160 N.pl3 108  ARG108     -0.0865
    158  CZ        -7.3430   23.5950   47.4080 C.cat 108  ARG108      0.5346
    159  NH1       -7.8490   22.3870   47.6070 N.pl3 108  ARG108      0.1354
    160  NH2       -7.5360   24.5470   48.3120 N.pl3 108  ARG108      0.1354
    161  N          0.3170   23.3970   40.3960 N.3   111  ARG111     -0.1245
    162  CA         1.3900   23.3210   41.3880 C.3   111  ARG111      0.1563
    163  C          2.1450   21.9990   41.3220 C.2   111  ARG111      0.2260
    164  O          3.3280   21.9370   41.6620 O.2   111  ARG111     -0.2867
    165  CB         0.8180   23.5350   42.7890 C.3   111  ARG111      0.0307
    166  CG         0.0930   24.8680   42.9110 C.3   111  ARG111      0.0489
    167  CD        -0.5550   25.0880   44.2730 C.3   111  ARG111      0.2205
    168  NE        -1.3320   26.3260   44.2610 N.pl3 111  ARG111     -0.0865
    169  CZ        -2.1260   26.7310   45.2480 C.cat 111  ARG111      0.5346
    170  NH1       -2.2500   26.0000   46.3510 N.pl3 111  ARG111      0.1354
    171  NH2       -2.8310   27.8500   45.1150 N.pl3 111  ARG111      0.1354
    172  N         -0.9530   35.3140   38.7570 N.3   153  ARG153     -0.1231
    173  CA        -0.0600   35.0920   39.8950 C.3   153  ARG153      0.1694
    174  C          0.3060   33.6110   40.0480 C.2   153  ARG153      0.2591
    175  O          1.4820   33.2570   40.2040 O.2   153  ARG153     -0.2718
    176  CB        -0.7080   35.6110   41.1850 C.3   153  ARG153      0.0321
    177  CG        -1.1100   37.0850   41.1410 C.3   153  ARG153      0.0489
    178  CD         0.0980   37.9840   40.9150 C.3   153  ARG153      0.2205
    179  NE         1.0250   37.9350   42.0460 N.pl3 153  ARG153     -0.0865
    180  CZ         2.3490   38.0120   41.9340 C.cat 153  ARG153      0.5346
    181  NH1        2.9130   38.1380   40.7400 N.pl3 153  ARG153      0.1354
    182  NH2        3.1150   37.9540   43.0190 N.pl3 153  ARG153      0.1354
    183  N         -0.7000   32.7480   39.9910 N.am  154  GLU154     -0.1979
    184  CA        -0.4930   31.3080   40.1270 C.3   154  GLU154      0.1602
    185  C          0.4930   30.7710   39.0840 C.2   154  GLU154      0.2287
    186  O          1.3430   29.9300   39.3850 O.2   154  GLU154     -0.2864
    187  CB        -1.8330   30.5750   39.9760 C.3   154  GLU154      0.0415
    188  CG        -1.7620   29.0650   40.1930 C.3   154  GLU154      0.1163
    189  CD        -1.7640   28.6850   41.6600 C.2   154  GLU154      0.3649
    190  OE1       -2.7340   29.0460   42.3630 O.co2 154  GLU154     -0.2457
    191  OE2       -0.8000   28.0290   42.1100 O.co2 154  GLU154     -0.2457
    192  N          3.0220   32.1850   37.7080 N.3   156  ALA156     -0.1231
    193  CA         4.3820   32.7040   37.8310 C.3   156  ALA156      0.1679
    194  C          5.5420   31.6960   37.7940 C.2   156  ALA156      0.2434
    195  O          6.5390   31.9220   37.1040 O.2   156  ALA156     -0.2733
    196  CB         4.4850   33.5680   39.0920 C.3   156  ALA156      0.0304
    197  N          5.4320   30.5710   38.5230 N.am  157  PRO157     -0.2729
    198  CA         6.5110   29.5730   38.5370 C.3   157  PRO157      0.1401
    199  C          6.9420   28.9850   37.1880 C.2   157  PRO157      0.2269
    200  O          8.0910   28.5670   37.0310 O.2   157  PRO157     -0.2865
    201  CB         5.9770   28.5040   39.4950 C.3   157  PRO157      0.0296
    202  CG         5.0960   29.2840   40.4210 C.3   157  PRO157      0.0237
    203  CD         4.3580   30.1800   39.4520 C.3   157  PRO157      0.0939
@<TRIPOS>BOND
     1   200   199    2
     2   195   194    2
     3   199   198    1
     4   192   193    1
     5   194   193    1
     6   194   197   am
     7   193   196    1
     8   197   198    1
     9   197   203    1
    10   198   201    1
    11   172   173    1
    12   185   186    2
    13   185   184    1
    14   141   142    1
    15    21    20    1
    16   203   202    1
    17   201   202    1
    18    34    33    1
    19   173   174    1
    20   173   176    1
    21   187   184    1
    22   187   188    1
    23   183   174   am
    24   183   184    1
    25   142   143    1
    26   142   145    1
    27   174   175    2
    28   188   189    1
    29   146   145    1
    30   146   147    1
    31   161   162    1
    32    32    33   ar
    33    32    30   ar
    34    33    31   ar
    35    20    22    1
    36    20    19    2
    37   181   180    1
    38   143   144    2
    39   143   150   am
    40   178   177    1
    41   178   179    1
    42    18    19    1
    43    18    17    1
    44   177   176    1
    45   147   148    1
    46   163   162    1
    47   163   164    2
    48   162   165    1
    49   152   153    2
    50   152   151    1
    51   150   151    1
    52    30    28   ar
    53    31    29   ar
    54   189   191   ar
    55   189   190   ar
    56   180   179    2
    57   180   182    1
    58   151   154    1
    59    17    16    1
    60   149   148    1
    61    55    54    1
    62    28    29   ar
    63    28    27    1
    64   165   166    1
    65     2     1    1
    66     2     3    1
    67   166   167    1
    68    11    10    1
    69    11     5    1
    70    16    13    1
    71   154   155    1
    72    27    24    1
    73    10     9    1
    74   140   138    1
    75    54    53   ar
    76    54    52   ar
    77     5     3   am
    78     5     6    1
    79     3     4    2
    80    12    13    1
    81    12     7   am
    82   168   167    1
    83   168   169    2
    84    13    14    1
    85   155   156    1
    86    53    51   ar
    87    52    50   ar
    88     9     6    1
    89    14    23   am
    90    14    15    2
    91    23    24    1
    92   139   138    1
    93     6     7    1
    94   138   137    1
    95    24    25    1
    96   171   169    1
    97     7     8    2
    98   169   170    1
    99   156   157    1
   100   136   135    2
   101    26    25    2
   102    51    49   ar
   103   135   134    1
   104    50    49   ar
   105    25    35   am
   106   137   134    1
   107   157   158    2
   108    49    48    1
   109   134   133    1
   110    35    36    1
   111   117   115   ar
   112   117   119   ar
   113   158   159    1
   114   158   160    1
   115   120   119    1
   116   115   114   ar
   117    36    37    1
   118    36    39    1
   119    48    45    1
   120   133   123   am
   121   119   118   ar
   122    38    37    2
   123    37    44   am
   124   112   111    2
   125    44    45    1
   126   124   123    2
   127   111   110    1
   128   123   122    1
   129    45    46    1
   130   114   113    1
   131   114   116   ar
   132    39    40    1
   133   121   122    1
   134   118   116   ar
   135   113   110    1
   136   122   125    1
   137   110   109    1
   138    40    41    1
   139    46    47    2
   140    46    56   am
   141   127   129   ar
   142   127   126   ar
   143   125   126    1
   144    56    57    1
   145   129   131   ar
   146    42    41   ar
   147   126   128   ar
   148    41    43   ar
   149    59    58    2
   150   131   132    1
   151   131   130   ar
   152   128   130   ar
   153    57    58    1
   154    57    60    1
   155    58    66   am
   156    91    90   ar
   157    63    65   ar
   158    63    61   ar
   159    65    64   ar
   160    61    60    1
   161    61    62   ar
   162    78    76   ar
   163    78    79   ar
   164    64    62   ar
   165    92    90   ar
   166    76    73   ar
   167    66    67    1
   168    90    89    1
   169    67    68    1
   170    67    70    1
   171    79    77   ar
   172    69    68    2
   173    68    80   am
   174    73    71   ar
   175    73    75   ar
   176    70    71    1
   177    89    86    1
   178    77    75   ar
   179    80    81    1
   180   106   105    1
   181   106   107    1
   182    71    72   ar
   183   108   107    1
   184   104   105    1
   185   104   101    1
   186    75    74   ar
   187   101   102    1
   188   101   100    1
   189   102   103    2
   190    81    82    1
   191    81    84    1
   192    85    86    1
   193    85    82   am
   194    88    87    2
   195    87    86    1
   196    82    83    2
   197    72    74   ar
   198    97    98    1
   199    97    94    1
   200    98    99    1
   201    99    93    1
   202    94    95    1
   203    94    93    1
   204    95    96    2
