@<TRIPOS>MOLECULE
tmp/4j1xC00.pdb
 127 118 0 0 0
SMALL
GASTEIGER

@<TRIPOS>ATOM
      1  N         85.5580   63.1200  -17.7790 N.3    94  ARG94      -0.1245
      2  CA        84.6440   62.9630  -18.9070 C.3    94  ARG94       0.1563
      3  C         85.4300   63.2320  -20.1810 C.2    94  ARG94       0.2260
      4  O         85.8930   64.3510  -20.4120 O.2    94  ARG94      -0.2867
      5  CB        83.4600   63.9360  -18.7950 C.3    94  ARG94       0.0307
      6  CG        82.5560   63.6410  -17.6170 C.3    94  ARG94       0.0489
      7  CD        81.3450   64.5430  -17.5720 C.3    94  ARG94       0.2205
      8  NE        80.5640   64.2810  -16.3660 N.pl3  94  ARG94      -0.0865
      9  CZ        79.4600   64.9350  -16.0170 C.cat  94  ARG94       0.5346
     10  NH1       78.9810   65.9070  -16.7820 N.pl3  94  ARG94       0.1354
     11  NH2       78.8380   64.6150  -14.8940 N.pl3  94  ARG94       0.1354
     12  N         85.2700   67.7170  -13.4620 N.3   100  TYR100     -0.1241
     13  CA        84.8350   68.1070  -12.1270 C.3   100  TYR100      0.1605
     14  C         85.7740   67.5690  -11.0490 C.2   100  TYR100      0.2264
     15  O         86.6580   66.7590  -11.3110 O.2   100  TYR100     -0.2867
     16  CB        83.4380   67.5390  -11.8320 C.3   100  TYR100      0.0534
     17  CG        82.2680   68.0480  -12.6630 C.ar  100  TYR100     -0.0201
     18  CD1       81.1660   67.2170  -12.9080 C.ar  100  TYR100     -0.0009
     19  CD2       82.2180   69.3630  -13.1410 C.ar  100  TYR100     -0.0009
     20  CE1       80.0470   67.6720  -13.6000 C.ar  100  TYR100      0.0417
     21  CE2       81.0920   69.8330  -13.8350 C.ar  100  TYR100      0.0417
     22  CZ        80.0120   68.9770  -14.0570 C.ar  100  TYR100      0.1957
     23  OH        78.8920   69.4130  -14.7240 O.3   100  TYR100     -0.2866
     24  N         84.9360   66.3240   -7.1030 N.3   102  TYR102     -0.1241
     25  CA        83.9040   66.1680   -6.0980 C.3   102  TYR102      0.1605
     26  C         84.3930   66.1320   -4.6650 C.2   102  TYR102      0.2264
     27  O         85.1230   65.2280   -4.2610 O.2   102  TYR102     -0.2867
     28  CB        83.0900   64.9040   -6.3500 C.3   102  TYR102      0.0534
     29  CG        82.3810   64.8640   -7.6700 C.ar  102  TYR102     -0.0201
     30  CD1       82.9970   64.3190   -8.7890 C.ar  102  TYR102     -0.0009
     31  CD2       81.0700   65.3170   -7.7890 C.ar  102  TYR102     -0.0009
     32  CE1       82.3230   64.2090   -9.9960 C.ar  102  TYR102      0.0417
     33  CE2       80.3850   65.2150   -8.9910 C.ar  102  TYR102      0.0417
     34  CZ        81.0190   64.6530  -10.0910 C.ar  102  TYR102      0.1957
     35  OH        80.3410   64.4980  -11.2750 O.3   102  TYR102     -0.2866
     36  N         77.4760   67.7630   -2.1010 N.3   117  LEU117     -0.1245
     37  CA        78.8130   67.9330   -2.6400 C.3   117  LEU117      0.1561
     38  C         79.2130   69.3840   -2.8800 C.2   117  LEU117      0.2260
     39  O         78.3640   70.2430   -3.1290 O.2   117  LEU117     -0.2867
     40  CB        78.8920   67.2270   -3.9970 C.3   117  LEU117      0.0270
     41  CG        78.4720   65.7720   -4.1170 C.3   117  LEU117      0.0019
     42  CD1       78.0400   65.4890   -5.5520 C.3   117  LEU117      0.0001
     43  CD2       79.6280   64.8810   -3.6900 C.3   117  LEU117      0.0001
     44  N         81.2960   71.1130   -5.5600 N.3   119  VAL119     -0.1245
     45  CA        81.8740   70.7440   -6.8490 C.3   119  VAL119      0.1561
     46  C         82.7460   71.8180   -7.4870 C.2   119  VAL119      0.2260
     47  O         82.3530   72.9840   -7.5870 O.2   119  VAL119     -0.2867
     48  CB        80.7630   70.3600   -7.8560 C.3   119  VAL119      0.0252
     49  CG1       81.3750   69.9130   -9.1740 C.3   119  VAL119      0.0019
     50  CG2       79.8900   69.2660   -7.2620 C.3   119  VAL119      0.0019
     51  N         75.6300   64.3630  -18.6480 N.3   132  ASN132     -0.1240
     52  CA        75.5060   63.0870  -17.9780 C.3   132  ASN132      0.1653
     53  C         74.1570   62.6830  -18.5590 C.2   132  ASN132      0.2266
     54  O         73.4710   63.5140  -19.1550 O.2   132  ASN132     -0.2867
     55  CB        75.4160   63.2390  -16.4520 C.3   132  ASN132      0.1155
     56  CG        74.4200   64.3010  -16.0160 C.2   132  ASN132      0.2627
     57  OD1       73.3520   64.4680  -16.6120 O.2   132  ASN132     -0.2716
     58  ND2       74.7620   65.0180  -14.9560 N.am  132  ASN132     -0.0877
     59  N         69.9190   61.5750  -13.9870 N.3   135  HIS135     -0.1241
     60  CA        70.0370   60.5520  -12.9450 C.3   135  HIS135      0.1621
     61  C         68.8520   60.5450  -11.9870 C.2   135  HIS135      0.2264
     62  O         68.0520   61.4850  -11.9540 O.2   135  HIS135     -0.2867
     63  CB        71.3360   60.7460  -12.1560 C.3   135  HIS135      0.0745
     64  CG        71.5320   62.1380  -11.6430 C.ar  135  HIS135      0.0817
     65  ND1       70.7400   62.7300  -10.6830 N.ar  135  HIS135     -0.2268
     66  CD2       72.4530   63.0750  -11.9860 C.ar  135  HIS135      0.1154
     67  CE1       71.1960   63.9800  -10.4800 C.ar  135  HIS135      0.1986
     68  NE2       72.2360   64.2340  -11.2500 N.ar  135  HIS135     -0.2212
     69  N         67.9240   67.2950   -7.6210 N.3   139  GLU139     -0.1245
     70  CA        69.1720   67.9150   -7.2390 C.3   139  GLU139      0.1567
     71  C         69.0210   69.4020   -7.0400 C.2   139  GLU139      0.2260
     72  O         68.5010   70.1030   -7.9050 O.2   139  GLU139     -0.2867
     73  CB        70.2150   67.6600   -8.3170 C.3   139  GLU139      0.0388
     74  CG        71.6070   68.0610   -7.9410 C.3   139  GLU139      0.1160
     75  CD        72.5720   67.8450   -9.0780 C.2   139  GLU139      0.3649
     76  OE1       72.2900   66.9600   -9.9200 O.co2 139  GLU139     -0.2457
     77  OE2       73.6060   68.5540   -9.1220 O.co2 139  GLU139     -0.2457
     78  N         70.9670   72.9880   -6.4280 N.3   141  LEU141     -0.1245
     79  CA        72.2750   73.5840   -6.6730 C.3   141  LEU141      0.1561
     80  C         72.3480   75.0370   -6.2520 C.2   141  LEU141      0.2260
     81  O         71.3780   75.7810   -6.3360 O.2   141  LEU141     -0.2867
     82  CB        72.6590   73.4660   -8.1490 C.3   141  LEU141      0.0270
     83  CG        72.8420   72.0330   -8.6440 C.3   141  LEU141      0.0019
     84  CD1       71.8550   71.7740   -9.7610 C.3   141  LEU141      0.0001
     85  CD2       74.2870   71.8050   -9.0970 C.3   141  LEU141      0.0001
     86  N         72.0590   67.1570  -17.5490 N.3   177  HIS177     -0.1241
     87  CA        72.6420   68.4740  -17.3260 C.3   177  HIS177      0.1621
     88  C         74.1570   68.5020  -17.4540 C.2   177  HIS177      0.2264
     89  O         74.8090   67.4560  -17.4760 O.2   177  HIS177     -0.2867
     90  CB        72.2140   69.0220  -15.9550 C.3   177  HIS177      0.0745
     91  CG        72.2090   67.9960  -14.8660 C.ar  177  HIS177      0.0817
     92  ND1       71.3530   66.9220  -14.8300 N.ar  177  HIS177     -0.2268
     93  CD2       72.9740   67.8930  -13.7480 C.ar  177  HIS177      0.1154
     94  CE1       71.6140   66.2180  -13.7220 C.ar  177  HIS177      0.1986
     95  NE2       72.5900   66.7680  -13.0300 N.ar  177  HIS177     -0.2212
     96  N         77.6870   71.4470  -16.6520 N.3   179  PHE179     -0.1241
     97  CA        78.1460   72.7290  -16.1360 C.3   179  PHE179      0.1605
     98  C         79.5810   73.0080  -16.5450 C.2   179  PHE179      0.2264
     99  O         80.3550   72.0900  -16.7710 O.2   179  PHE179     -0.2867
    100  CB        78.0960   72.7370  -14.5980 C.3   179  PHE179      0.0534
    101  CG        76.7200   72.5670  -14.0250 C.ar  179  PHE179     -0.0203
    102  CD1       75.7820   73.6030  -14.0890 C.ar  179  PHE179     -0.0042
    103  CD2       76.3540   71.3730  -13.4160 C.ar  179  PHE179     -0.0042
    104  CE1       74.4980   73.4500  -13.5520 C.ar  179  PHE179     -0.0003
    105  CE2       75.0720   71.2130  -12.8780 C.ar  179  PHE179     -0.0003
    106  CZ        74.1430   72.2570  -12.9470 C.ar  179  PHE179     -0.0000
    107  N         80.2760   75.1850   -7.2120 N.3   190  LEU190     -0.1245
    108  CA        78.8850   75.1460   -6.8030 C.3   190  LEU190      0.1561
    109  C         78.6250   74.0260   -5.7980 C.2   190  LEU190      0.2260
    110  O         79.3500   73.0460   -5.7590 O.2   190  LEU190     -0.2867
    111  CB        77.9580   75.0250   -8.0310 C.3   190  LEU190      0.0270
    112  CG        78.2100   73.9460   -9.0760 C.3   190  LEU190      0.0019
    113  CD1       78.0810   72.6000   -8.4180 C.3   190  LEU190      0.0001
    114  CD2       77.2200   74.0780  -10.2260 C.3   190  LEU190      0.0001
    115  N         76.2470   71.1020   -4.6690 N.3   192  ALA192     -0.1245
    116  CA        75.2380   70.2720   -5.2860 C.3   192  ALA192      0.1562
    117  C         74.6820   69.3510   -4.2330 C.2   192  ALA192      0.2260
    118  O         75.4220   68.6440   -3.5670 O.2   192  ALA192     -0.2867
    119  CB        75.8400   69.4700   -6.4360 C.3   192  ALA192      0.0290
    120  N         72.0780   66.2520   -3.7690 N.3   194  ASN194     -0.1240
    121  CA        71.1620   65.2390   -4.2980 C.3   194  ASN194      0.1653
    122  C         70.3440   64.7120   -3.1190 C.2   194  ASN194      0.2266
    123  O         70.9010   64.3430   -2.0820 O.2   194  ASN194     -0.2867
    124  CB        71.9230   64.0760   -4.9260 C.3   194  ASN194      0.1155
    125  CG        72.7540   64.5000   -6.1010 C.2   194  ASN194      0.2627
    126  OD1       72.2300   64.8040   -7.1790 O.2   194  ASN194     -0.2716
    127  ND2       74.0730   64.5390   -5.9020 N.am  194  ASN194     -0.0877
@<TRIPOS>BOND
     1     4     3    2
     2     3     2    1
     3    54    53    2
     4     2     5    1
     5     2     1    1
     6     5     6    1
     7    51    52    1
     8    53    52    1
     9    52    55    1
    10     6     7    1
    11     7     8    1
    12    86    87    1
    13    89    88    2
    14    88    87    1
    15    87    90    1
    16    10     9    1
    17    99    98    2
    18    96    97    1
    19    57    56    2
    20    98    97    1
    21    55    56    1
    22     8     9    2
    23    97   100    1
    24     9    11    1
    25    56    58   am
    26    90    91    1
    27    91    92   ar
    28    91    93   ar
    29    92    94   ar
    30    23    22    1
    31   100   101    1
    32   102   101   ar
    33   102   104   ar
    34    22    21   ar
    35    22    20   ar
    36   101   103   ar
    37    59    60    1
    38    21    19   ar
    39    93    95   ar
    40    94    95   ar
    41    20    18   ar
    42   104   106   ar
    43    12    13    1
    44   103   105   ar
    45    19    17   ar
    46   106   105   ar
    47    60    63    1
    48    60    61    1
    49    18    17   ar
    50    17    16    1
    51    63    64    1
    52    13    16    1
    53    13    14    1
    54    61    62    2
    55    66    64   ar
    56    66    68   ar
    57    64    65   ar
    58    15    14    2
    59    35    34    1
    60    68    67   ar
    61    65    67   ar
    62   114   112    1
    63    34    32   ar
    64    34    33   ar
    65    32    30   ar
    66    76    75   ar
    67    84    83    1
    68    49    48    1
    69    77    75   ar
    70    85    83    1
    71    75    74    1
    72   112   113    1
    73   112   111    1
    74    33    31   ar
    75    30    29   ar
    76    83    82    1
    77    73    74    1
    78    73    70    1
    79    82    79    1
    80   111   108    1
    81    72    71    2
    82    48    50    1
    83    48    45    1
    84    31    29   ar
    85    29    28    1
    86    69    70    1
    87    47    46    2
    88    46    45    1
    89    70    71    1
    90   107   108    1
    91   126   125    2
    92    24    25    1
    93    45    44    1
    94   108   109    1
    95    79    78    1
    96    79    80    1
    97   119   116    1
    98    28    25    1
    99    81    80    2
   100   125   127   am
   101   125   124    1
   102    25    26    1
   103   109   110    2
   104    42    41    1
   105   116   115    1
   106   116   117    1
   107   124   121    1
   108    26    27    2
   109   121   120    1
   110   121   122    1
   111   117   118    2
   112    41    40    1
   113    41    43    1
   114    40    37    1
   115    39    38    2
   116   122   123    2
   117    38    37    1
   118    37    36    1
