@<TRIPOS>MOLECULE
tmp/4j1zA00.pdb
 119 118 0 0 0
SMALL
GASTEIGER

@<TRIPOS>ATOM
      1  N         -6.3480  -39.0720    8.4220 N.3    79  PHE79      -0.1227
      2  CA        -6.4800  -38.0940    9.4890 C.3    79  PHE79       0.1736
      3  C         -6.6540  -38.7670   10.8610 C.2    79  PHE79       0.2595
      4  O         -7.1780  -39.9400   10.9700 O.2    79  PHE79      -0.2718
      5  CB        -7.6770  -37.2230    9.1640 C.3    79  PHE79       0.0547
      6  CG        -7.4710  -36.4580    7.9320 C.ar   79  PHE79      -0.0202
      7  CD1       -6.6660  -35.2980    7.9490 C.ar   79  PHE79      -0.0042
      8  CD2       -7.9650  -36.9330    6.7160 C.ar   79  PHE79      -0.0042
      9  CE1       -6.4210  -34.5850    6.7520 C.ar   79  PHE79      -0.0003
     10  CE2       -7.7640  -36.2050    5.5020 C.ar   79  PHE79      -0.0003
     11  CZ        -6.9500  -35.0380    5.5160 C.ar   79  PHE79      -0.0000
     12  N         -6.2380  -38.0430   11.9010 N.am   80  HIS80      -0.1961
     13  CA        -6.4710  -38.4790   13.2660 C.3    80  HIS80       0.1787
     14  C         -6.7740  -37.2320   14.0770 C.2    80  HIS80       0.2620
     15  O         -5.9150  -36.3470   14.1610 O.2    80  HIS80      -0.2715
     16  CB        -5.2270  -39.1400   13.8580 C.3    80  HIS80       0.0785
     17  CG        -5.4660  -39.6280   15.2520 C.ar   80  HIS80       0.0821
     18  ND1       -6.1720  -40.7860   15.5090 N.ar   80  HIS80      -0.2267
     19  CD2       -5.1280  -39.1170   16.4610 C.ar   80  HIS80       0.1154
     20  CE1       -6.2550  -40.9710   16.8170 C.ar   80  HIS80       0.1986
     21  NE2       -5.6340  -39.9790   17.4200 N.ar   80  HIS80      -0.2212
     22  N         -7.9420  -37.1920   14.7440 N.am   81  GLY81      -0.1954
     23  CA        -8.2590  -36.0530   15.6540 C.3    81  GLY81       0.1869
     24  C         -8.2070  -36.5860   17.0840 C.2    81  GLY81       0.2309
     25  O         -8.5990  -37.7610   17.3590 O.2    81  GLY81      -0.2863
     26  N         -3.8360  -43.7640   23.4770 N.3    97  HIS97      -0.1241
     27  CA        -4.5470  -43.1630   22.3040 C.3    97  HIS97       0.1621
     28  C         -5.5400  -44.1550   21.6500 C.2    97  HIS97       0.2264
     29  O         -6.1620  -43.8370   20.6100 O.2    97  HIS97      -0.2867
     30  CB        -3.5500  -42.5340   21.3090 C.3    97  HIS97       0.0745
     31  CG        -2.5410  -41.6890   22.0130 C.ar   97  HIS97       0.0817
     32  ND1       -1.1940  -41.9840   22.0220 N.ar   97  HIS97      -0.2268
     33  CD2       -2.7050  -40.6420   22.8670 C.ar   97  HIS97       0.1154
     34  CE1       -0.5620  -41.1170   22.7980 C.ar   97  HIS97       0.1986
     35  NE2       -1.4550  -40.2950   23.3240 N.ar   97  HIS97      -0.2212
     36  N         -8.9950  -46.1330   21.3880 N.3    99  TYR99      -0.1241
     37  CA       -10.3700  -45.8630   21.6070 C.3    99  TYR99       0.1605
     38  C        -10.9590  -47.2010   22.0830 C.2    99  TYR99       0.2264
     39  O        -11.3420  -48.0420   21.2840 O.2    99  TYR99      -0.2867
     40  CB       -10.9630  -45.3910   20.2800 C.3    99  TYR99       0.0534
     41  CG       -12.4310  -45.1070   20.3220 C.ar   99  TYR99      -0.0201
     42  CD1      -13.0390  -44.7360   21.5280 C.ar   99  TYR99      -0.0009
     43  CD2      -13.2250  -45.1880   19.1550 C.ar   99  TYR99      -0.0009
     44  CE1      -14.4100  -44.4750   21.5970 C.ar   99  TYR99       0.0417
     45  CE2      -14.6020  -44.8840   19.2100 C.ar   99  TYR99       0.0417
     46  CZ       -15.1720  -44.5630   20.4540 C.ar   99  TYR99       0.1957
     47  OH       -16.4860  -44.2740   20.5690 O.3    99  TYR99      -0.2866
     48  N         -7.6480  -45.3020   15.9240 N.3   109  TYR109     -0.1227
     49  CA        -8.5490  -45.0710   14.7900 C.3   109  TYR109      0.1736
     50  C         -8.1280  -43.8960   13.9400 C.2   109  TYR109      0.2595
     51  O         -7.7070  -42.8380   14.5020 O.2   109  TYR109     -0.2718
     52  CB        -9.9460  -44.7620   15.3520 C.3   109  TYR109      0.0548
     53  CG       -10.6810  -46.0300   15.8300 C.ar  109  TYR109     -0.0200
     54  CD1      -10.1740  -46.7940   16.8910 C.ar  109  TYR109     -0.0009
     55  CD2      -11.8940  -46.4430   15.2280 C.ar  109  TYR109     -0.0009
     56  CE1      -10.8240  -47.9630   17.3260 C.ar  109  TYR109      0.0417
     57  CE2      -12.5500  -47.5740   15.6710 C.ar  109  TYR109      0.0417
     58  CZ       -11.9900  -48.3540   16.7010 C.ar  109  TYR109      0.1957
     59  OH       -12.6400  -49.5230   17.1440 O.3   109  TYR109     -0.2866
     60  N         -8.2510  -44.0500   12.6170 N.am  110  PHE110     -0.1962
     61  CA        -7.8860  -43.0280   11.6270 C.3   110  PHE110      0.1771
     62  C         -8.9830  -42.9560   10.6050 C.2   110  PHE110      0.2619
     63  O         -9.7310  -43.9660   10.3860 O.2   110  PHE110     -0.2715
     64  CB        -6.5500  -43.3630   10.9140 C.3   110  PHE110      0.0574
     65  CG        -5.3540  -43.4260   11.8540 C.ar  110  PHE110     -0.0200
     66  CD1       -5.0530  -44.6210   12.5370 C.ar  110  PHE110     -0.0042
     67  CD2       -4.5180  -42.3020   12.0210 C.ar  110  PHE110     -0.0042
     68  CE1       -4.0090  -44.7180   13.4440 C.ar  110  PHE110     -0.0003
     69  CE2       -3.4140  -42.3310   12.8960 C.ar  110  PHE110     -0.0003
     70  CZ        -3.1380  -43.5360   13.6450 C.ar  110  PHE110     -0.0000
     71  N         -9.0970  -41.8340    9.9060 N.am  111  ALA111     -0.1977
     72  CA       -10.1790  -41.7220    8.9370 C.3   111  ALA111      0.1597
     73  C         -9.6800  -41.1500    7.6210 C.2   111  ALA111      0.2287
     74  O         -8.7970  -40.2670    7.6120 O.2   111  ALA111     -0.2864
     75  CB       -11.3170  -40.7910    9.4660 C.3   111  ALA111      0.0319
     76  N        -14.6430  -36.5500    9.6710 N.3   116  LYS116     -0.1231
     77  CA       -14.8270  -37.6420   10.6610 C.3   116  LYS116      0.1693
     78  C        -13.7740  -37.4090   11.8030 C.2   116  LYS116      0.2592
     79  O        -14.1060  -37.4460   12.9890 O.2   116  LYS116     -0.2718
     80  CB       -14.5760  -39.0400    9.9930 C.3   116  LYS116      0.0285
     81  CG       -14.4700  -40.2070   10.9690 C.3   116  LYS116      0.0035
     82  CD       -15.5790  -40.2440   12.0310 C.3   116  LYS116      0.0206
     83  CE       -16.9040  -40.6630   11.4840 C.3   116  LYS116      0.1093
     84  NZ       -17.8630  -40.9950   12.6190 N.3   116  LYS116     -0.1314
     85  N        -12.4880  -37.1750   11.4420 N.am  117  SER117     -0.1952
     86  CA       -11.4900  -36.9790   12.5030 C.3   117  SER117      0.1924
     87  C        -11.7570  -35.6990   13.3060 C.2   117  SER117      0.2314
     88  O        -11.4840  -35.6410   14.5210 O.2   117  SER117     -0.2863
     89  CB       -10.0760  -36.9930   11.9340 C.3   117  SER117      0.2116
     90  OG        -9.7160  -38.2810   11.4850 O.3   117  SER117     -0.2180
     91  N        -13.5070  -35.7880   16.6670 N.3   120  TYR120     -0.1241
     92  CA       -12.7820  -36.3060   17.8580 C.3   120  TYR120      0.1605
     93  C        -11.7640  -35.3290   18.4790 C.2   120  TYR120      0.2264
     94  O        -11.1360  -35.6200   19.4970 O.2   120  TYR120     -0.2867
     95  CB       -12.0260  -37.5900   17.4660 C.3   120  TYR120      0.0534
     96  CG       -13.0180  -38.6870   17.1870 C.ar  120  TYR120     -0.0201
     97  CD1      -13.6180  -38.8390   15.9030 C.ar  120  TYR120     -0.0009
     98  CD2      -13.4150  -39.5360   18.2060 C.ar  120  TYR120     -0.0009
     99  CE1      -14.5850  -39.8700   15.6760 C.ar  120  TYR120      0.0417
    100  CE2      -14.3550  -40.5390   17.9860 C.ar  120  TYR120      0.0417
    101  CZ       -14.9350  -40.6910   16.7310 C.ar  120  TYR120      0.1957
    102  OH       -15.8520  -41.7060   16.5830 O.3   120  TYR120     -0.2866
    103  N        -14.2560  -37.8350   22.5200 N.3   124  ILE124     -0.1245
    104  CA       -15.2270  -38.7370   21.8960 C.3   124  ILE124      0.1561
    105  C        -16.5730  -38.0260   21.7150 C.2   124  ILE124      0.2260
    106  O        -17.0860  -37.3550   22.6410 O.2   124  ILE124     -0.2867
    107  CB       -15.4190  -40.0070   22.7480 C.3   124  ILE124      0.0252
    108  CG1      -14.0690  -40.6580   23.1070 C.3   124  ILE124      0.0019
    109  CG2      -16.3930  -40.9880   22.0720 C.3   124  ILE124      0.0019
    110  CD1      -13.1410  -41.1560   21.9360 C.3   124  ILE124      0.0001
    111  N        -12.7590  -45.9660    7.7300 N.3   186  GLU186     -0.1245
    112  CA       -11.8650  -45.7740    8.8560 C.3   186  GLU186      0.1567
    113  C        -10.9660  -46.9660    8.9960 C.2   186  GLU186      0.2260
    114  O        -11.2550  -48.0650    8.4310 O.2   186  GLU186     -0.2867
    115  CB       -12.6530  -45.6470   10.1550 C.3   186  GLU186      0.0388
    116  CG       -13.6570  -44.5540   10.1960 C.3   186  GLU186      0.1160
    117  CD       -14.6280  -44.7210   11.3830 C.2   186  GLU186      0.3649
    118  OE1      -15.5300  -43.9170   11.4310 O.co2 186  GLU186     -0.2457
    119  OE2      -14.5360  -45.6970   12.2080 O.co2 186  GLU186     -0.2457
@<TRIPOS>BOND
     1    10    11   ar
     2    10     8   ar
     3    11     9   ar
     4     8     6   ar
     5     9     7   ar
     6    74    73    2
     7    73    72    1
     8   111   112    1
     9     6     7   ar
    10     6     5    1
    11     1     2    1
    12   114   113    2
    13   112   113    1
    14   112   115    1
    15    72    75    1
    16    72    71    1
    17     5     2    1
    18     2     3    1
    19    76    77    1
    20    71    62   am
    21    80    77    1
    22    80    81    1
    23   115   116    1
    24   116   117    1
    25    63    62    2
    26    62    61    1
    27    77    78    1
    28     3     4    2
    29     3    12   am
    30    64    61    1
    31    64    65    1
    32    81    82    1
    33   117   118   ar
    34   117   119   ar
    35    85    78   am
    36    85    86    1
    37    83    82    1
    38    83    84    1
    39    90    89    1
    40    61    60    1
    41    78    79    2
    42    65    67   ar
    43    65    66   ar
    44    12    13    1
    45    89    86    1
    46    67    69   ar
    47    86    87    1
    48    66    68   ar
    49    60    50   am
    50    69    70   ar
    51    13    16    1
    52    13    14    1
    53    87    88    2
    54    68    70   ar
    55    16    17    1
    56    50    51    2
    57    50    49    1
    58    14    15    2
    59    14    22   am
    60    22    23    1
    61    49    52    1
    62    49    48    1
    63    55    57   ar
    64    55    53   ar
    65    17    18   ar
    66    17    19   ar
    67    52    53    1
    68    18    20   ar
    69    23    24    1
    70    57    58   ar
    71    99    97   ar
    72    99   101   ar
    73    53    54   ar
    74    97    96   ar
    75    19    21   ar
    76   102   101    1
    77    91    92    1
    78    58    59    1
    79    58    56   ar
    80   101   100   ar
    81    20    21   ar
    82    54    56   ar
    83    24    25    2
    84    96    95    1
    85    96    98   ar
    86    95    92    1
    87    92    93    1
    88   100    98   ar
    89    93    94    2
    90    43    45   ar
    91    43    41   ar
    92    45    46   ar
    93    40    41    1
    94    40    37    1
    95    41    42   ar
    96    46    47    1
    97    46    44   ar
    98    29    28    2
    99    39    38    2
   100    30    31    1
   101    30    27    1
   102    36    37    1
   103    42    44   ar
   104    37    38    1
   105    28    27    1
   106   105   104    1
   107   105   106    2
   108   104   103    1
   109   104   107    1
   110   110   108    1
   111    31    32   ar
   112    31    33   ar
   113    32    34   ar
   114   109   107    1
   115    27    26    1
   116   107   108    1
   117    34    35   ar
   118    33    35   ar
