@<TRIPOS>MOLECULE
tmp/4j21A00.pdb
 163 165 0 0 0
SMALL
GASTEIGER

@<TRIPOS>ATOM
      1  N        -10.3520   -1.5860   20.6570 N.3    79  PHE79      -0.1227
      2  CA       -11.1870   -2.1460   19.5680 C.3    79  PHE79       0.1736
      3  C        -10.8830   -1.6010   18.1740 C.2    79  PHE79       0.2595
      4  O        -10.4340   -0.4480   18.0370 O.2    79  PHE79      -0.2718
      5  CB       -12.6740   -1.9920   19.9200 C.3    79  PHE79       0.0547
      6  CG       -13.0520   -2.6820   21.1730 C.ar   79  PHE79      -0.0202
      7  CD1      -13.3160   -4.0680   21.1690 C.ar   79  PHE79      -0.0042
      8  CD2      -13.1200   -1.9800   22.3810 C.ar   79  PHE79      -0.0042
      9  CE1      -13.6360   -4.7220   22.3210 C.ar   79  PHE79      -0.0003
     10  CE2      -13.4950   -2.6140   23.5540 C.ar   79  PHE79      -0.0003
     11  CZ       -13.7320   -4.0560   23.5340 C.ar   79  PHE79      -0.0000
     12  N        -11.1210   -2.4150   17.1340 N.am   80  HIS80      -0.1961
     13  CA       -11.0090   -1.9840   15.7380 C.3    80  HIS80       0.1787
     14  C        -12.0710   -2.6950   14.9240 C.2    80  HIS80       0.2621
     15  O        -12.0360   -3.9220   14.8150 O.2    80  HIS80      -0.2715
     16  CB        -9.6030   -2.2320   15.0770 C.3    80  HIS80       0.0785
     17  CG        -9.4730   -1.6480   13.7020 C.ar   80  HIS80       0.0821
     18  ND1       -9.1530   -0.3160   13.4820 N.ar   80  HIS80      -0.2267
     19  CD2       -9.5800   -2.2240   12.4640 C.ar   80  HIS80       0.1154
     20  CE1       -9.0800   -0.1020   12.1730 C.ar   80  HIS80       0.1986
     21  NE2       -9.3690   -1.2330   11.5410 N.ar   80  HIS80      -0.2212
     22  N        -12.9520   -1.9250   14.2850 N.am   81  GLY81      -0.1940
     23  CA       -13.9460   -2.4970   13.3250 C.3    81  GLY81       0.2014
     24  C        -13.6550   -1.9970   11.9130 C.2    81  GLY81       0.2640
     25  O        -13.2110   -0.8290   11.6780 O.2    81  GLY81      -0.2714
     26  N        -13.9310   -2.8430   10.9190 N.am   82  SER82      -0.1936
     27  CA       -13.5470   -2.5240    9.5190 C.3    82  SER82       0.2040
     28  C        -14.1010   -3.6070    8.6190 C.2    82  SER82       0.2485
     29  O        -14.1580   -4.7960    9.0460 O.2    82  SER82      -0.2729
     30  CB       -11.9860   -2.5050    9.3260 C.3    82  SER82       0.2129
     31  OG       -11.6040   -2.6820    7.9720 O.3    82  SER82      -0.2179
     32  N        -14.4370   -3.2410    7.3390 N.am   83  PRO83      -0.2715
     33  CA       -14.7670   -4.2860    6.3540 C.3    83  PRO83       0.1536
     34  C        -13.6090   -5.2520    6.1220 C.2    83  PRO83       0.2598
     35  O        -13.8190   -6.3050    5.5120 O.2    83  PRO83      -0.2715
     36  CB       -14.9700   -3.4890    5.0590 C.3    83  PRO83       0.0310
     37  CG       -15.5240   -2.1800    5.5380 C.3    83  PRO83       0.0237
     38  CD       -14.7530   -1.8900    6.8070 C.3    83  PRO83       0.0939
     39  N        -12.4010   -4.9040    6.5560 N.am   84  PHE84      -0.1974
     40  CA       -11.2250   -5.6690    6.1330 C.3    84  PHE84       0.1639
     41  C        -10.6740   -6.5890    7.2330 C.2    84  PHE84       0.2290
     42  O         -9.5100   -6.9670    7.1980 O.2    84  PHE84      -0.2864
     43  CB       -10.1590   -4.7330    5.5560 C.3    84  PHE84       0.0560
     44  CG       -10.7160   -3.8240    4.4830 C.ar   84  PHE84      -0.0200
     45  CD1      -11.1380   -4.3540    3.2480 C.ar   84  PHE84      -0.0042
     46  CD2      -10.9320   -2.4670    4.7470 C.ar   84  PHE84      -0.0042
     47  CE1      -11.7170   -3.5260    2.2620 C.ar   84  PHE84      -0.0003
     48  CE2      -11.5120   -1.6210    3.7880 C.ar   84  PHE84      -0.0003
     49  CZ       -11.9060   -2.1530    2.5360 C.ar   84  PHE84      -0.0000
     50  N         -3.2660    0.5740    3.9890 N.3    96  ARG96      -0.1231
     51  CA        -4.5560    0.5070    3.3740 C.3    96  ARG96       0.1694
     52  C         -5.6780    0.4420    4.3870 C.2    96  ARG96       0.2592
     53  O         -6.8470    0.4600    3.9930 O.2    96  ARG96      -0.2718
     54  CB        -4.6140   -0.7080    2.4670 C.3    96  ARG96       0.0321
     55  CG        -3.3680   -0.8160    1.6030 C.3    96  ARG96       0.0489
     56  CD        -3.6840   -1.5150    0.2860 C.3    96  ARG96       0.2205
     57  NE        -4.4160   -0.6560   -0.6460 N.pl3  96  ARG96      -0.0865
     58  CZ        -4.9910   -1.0940   -1.7670 C.cat  96  ARG96       0.5346
     59  NH1       -5.6470   -0.2410   -2.5570 N.pl3  96  ARG96       0.1354
     60  NH2       -4.9050   -2.3850   -2.1000 N.pl3  96  ARG96       0.1354
     61  N         -5.3240    0.2930    5.6710 N.am   97  HIS97      -0.1962
     62  CA        -6.3080    0.3790    6.7610 C.3    97  HIS97       0.1787
     63  C         -6.3490    1.7990    7.3740 C.2    97  HIS97       0.2620
     64  O         -7.0920    2.0520    8.3600 O.2    97  HIS97      -0.2715
     65  CB        -6.1000   -0.7720    7.7810 C.3    97  HIS97       0.0785
     66  CG        -5.9560   -2.1100    7.1000 C.ar   97  HIS97       0.0821
     67  ND1       -4.7930   -2.8450    7.1380 N.ar   97  HIS97      -0.2267
     68  CD2       -6.7890   -2.7750    6.2580 C.ar   97  HIS97       0.1154
     69  CE1       -4.9200   -3.9240    6.3760 C.ar   97  HIS97       0.1986
     70  NE2       -6.1230   -3.9010    5.8220 N.ar   97  HIS97      -0.2212
     71  N         -5.5490    2.7010    6.7690 N.am   98  ALA98      -0.1963
     72  CA        -5.4770    4.0930    7.2230 C.3    98  ALA98       0.1728
     73  C         -6.7130    4.8860    6.8150 C.2    98  ALA98       0.2616
     74  O         -7.2900    4.7010    5.7470 O.2    98  ALA98      -0.2715
     75  CB        -4.1440    4.7980    6.7730 C.3    98  ALA98       0.0334
     76  N         -7.1320    5.7630    7.7170 N.am   99  TYR99      -0.1974
     77  CA        -8.2830    6.5800    7.5040 C.3    99  TYR99       0.1639
     78  C         -7.7320    7.9320    6.9660 C.2    99  TYR99       0.2290
     79  O         -7.3260    8.8010    7.7530 O.2    99  TYR99      -0.2864
     80  CB        -8.9930    6.7560    8.8490 C.3    99  TYR99       0.0560
     81  CG       -10.2880    7.5250    8.8170 C.ar   99  TYR99      -0.0198
     82  CD1      -10.9070    7.8380    7.6120 C.ar   99  TYR99      -0.0009
     83  CD2      -10.9000    7.9480   10.0070 C.ar   99  TYR99      -0.0009
     84  CE1      -12.1330    8.5720    7.5880 C.ar   99  TYR99       0.0417
     85  CE2      -12.1340    8.6350    9.9850 C.ar   99  TYR99       0.0417
     86  CZ       -12.7020    8.9590    8.7710 C.ar   99  TYR99       0.1957
     87  OH       -13.8960    9.6260    8.7330 O.3    99  TYR99      -0.2866
     88  N         -6.9070    3.9300   13.1100 N.3   109  TYR109     -0.1227
     89  CA        -7.7110    4.3170   14.2790 C.3   109  TYR109      0.1736
     90  C         -8.2280    3.1080   15.1100 C.2   109  TYR109      0.2595
     91  O         -8.7740    2.1660   14.5210 O.2   109  TYR109     -0.2718
     92  CB        -8.9280    5.1140   13.8210 C.3   109  TYR109      0.0548
     93  CG        -8.5450    6.5610   13.3670 C.ar  109  TYR109     -0.0200
     94  CD1       -7.6500    6.7780   12.3050 C.ar  109  TYR109     -0.0009
     95  CD2       -9.0390    7.6640   14.0430 C.ar  109  TYR109     -0.0009
     96  CE1       -7.2400    8.1280   11.9220 C.ar  109  TYR109      0.0417
     97  CE2       -8.6960    8.9650   13.6600 C.ar  109  TYR109      0.0417
     98  CZ        -7.7920    9.1770   12.5990 C.ar  109  TYR109      0.1957
     99  OH        -7.4240   10.5030   12.2790 O.3   109  TYR109     -0.2866
    100  N         -8.1320    3.2410   16.4370 N.am  110  PHE110     -0.1962
    101  CA        -8.6010    2.2680   17.4590 C.3   110  PHE110      0.1771
    102  C         -9.4330    2.9980   18.4450 C.2   110  PHE110      0.2619
    103  O         -9.2200    4.2010   18.6890 O.2   110  PHE110     -0.2715
    104  CB        -7.4030    1.5830   18.1420 C.3   110  PHE110      0.0574
    105  CG        -6.5760    0.8060   17.1960 C.ar  110  PHE110     -0.0200
    106  CD1       -5.4980    1.4460   16.5000 C.ar  110  PHE110     -0.0042
    107  CD2       -6.8450   -0.5750   16.9730 C.ar  110  PHE110     -0.0042
    108  CE1       -4.7620    0.7600   15.5390 C.ar  110  PHE110     -0.0003
    109  CE2       -6.0800   -1.3390   16.0160 C.ar  110  PHE110     -0.0003
    110  CZ        -5.0370   -0.6880   15.2900 C.ar  110  PHE110     -0.0000
    111  N        -10.3950    2.2980   19.0620 N.am  111  ALA111     -0.1977
    112  CA       -11.3000    2.9260   20.0210 C.3   111  ALA111      0.1597
    113  C        -11.3360    2.2250   21.3820 C.2   111  ALA111      0.2287
    114  O        -11.3110    1.0090   21.4560 O.2   111  ALA111     -0.2864
    115  CB       -12.7630    3.0210   19.4470 C.3   111  ALA111      0.0319
    116  N        -18.1010    2.5670   19.3640 N.3   116  LYS116     -0.1231
    117  CA       -17.4260    3.4330   18.3600 C.3   116  LYS116      0.1693
    118  C        -16.8630    2.5410   17.2080 C.2   116  LYS116      0.2592
    119  O        -17.0820    2.8480   16.0010 O.2   116  LYS116     -0.2718
    120  CB       -16.3380    4.3060   19.0460 C.3   116  LYS116      0.0285
    121  CG       -15.3540    5.0880   18.0990 C.3   116  LYS116      0.0035
    122  CD       -16.0730    5.9160   17.0280 C.3   116  LYS116      0.0206
    123  CE       -16.9230    7.0490   17.7050 C.3   116  LYS116      0.1093
    124  NZ       -17.3650    8.0330   16.6670 N.3   116  LYS116     -0.1314
    125  N        -16.1750    1.4310   17.5520 N.am  117  SER117     -0.1952
    126  CA       -15.6630    0.5320   16.5100 C.3   117  SER117      0.1924
    127  C        -16.7750   -0.1060   15.7010 C.2   117  SER117      0.2314
    128  O        -16.6240   -0.2970   14.4660 O.2   117  SER117     -0.2863
    129  CB       -14.6930   -0.5420   17.0640 C.3   117  SER117      0.2116
    130  OG       -13.4570    0.0490   17.5350 O.3   117  SER117     -0.2180
    131  N        -17.9180    1.3330   12.3280 N.3   120  TYR120     -0.1241
    132  CA       -17.0560    1.2180   11.1250 C.3   120  TYR120      0.1605
    133  C        -17.0230   -0.1940   10.5470 C.2   120  TYR120      0.2264
    134  O        -16.4070   -0.4360    9.5130 O.2   120  TYR120     -0.2867
    135  CB       -15.6300    1.6460   11.4670 C.3   120  TYR120      0.0534
    136  CG       -15.5720    3.1500   11.7490 C.ar  120  TYR120     -0.0201
    137  CD1      -15.8490    3.6500   13.0250 C.ar  120  TYR120     -0.0009
    138  CD2      -15.2500    4.0480   10.7200 C.ar  120  TYR120     -0.0009
    139  CE1      -15.8040    5.0620   13.2590 C.ar  120  TYR120      0.0417
    140  CE2      -15.2080    5.4500   10.9440 C.ar  120  TYR120      0.0417
    141  CZ       -15.4550    5.9100   12.2140 C.ar  120  TYR120      0.1957
    142  OH       -15.4360    7.2950   12.4230 O.3   120  TYR120     -0.2866
    143  N        -18.0850    0.0180    7.1160 N.3   123  GLY123     -0.1210
    144  CA       -17.3730    1.0680    6.3220 C.3   123  GLY123      0.1956
    145  C        -17.4340    2.3830    7.0770 C.2   123  GLY123      0.2611
    146  O        -18.1190    2.4520    8.1070 O.2   123  GLY123     -0.2717
    147  N        -16.7270    3.4100    6.5950 N.am  124  ILE124     -0.1979
    148  CA       -16.8550    4.7930    7.1540 C.3   124  ILE124      0.1595
    149  C        -18.3150    5.2410    7.1850 C.2   124  ILE124      0.2287
    150  O        -19.0470    5.1400    6.1710 O.2   124  ILE124     -0.2864
    151  CB       -16.1160    5.8420    6.2810 C.3   124  ILE124      0.0276
    152  CG1      -14.7150    5.4200    5.9040 C.3   124  ILE124      0.0022
    153  CG2      -16.1730    7.2460    6.9720 C.3   124  ILE124      0.0022
    154  CD1      -13.6690    5.4640    6.9620 C.3   124  ILE124      0.0001
    155  N        -10.0540    7.8070   21.2680 N.3   186  GLU186     -0.1245
    156  CA        -9.5310    7.0490   20.1540 C.3   186  GLU186      0.1567
    157  C         -8.0530    7.2830   20.1110 C.2   186  GLU186      0.2260
    158  O         -7.5630    8.3010   20.6680 O.2   186  GLU186     -0.2867
    159  CB       -10.1250    7.5500   18.8510 C.3   186  GLU186      0.0388
    160  CG       -11.6090    7.3540   18.7530 C.3   186  GLU186      0.1160
    161  CD       -12.2030    7.9420   17.4650 C.2   186  GLU186      0.3649
    162  OE1      -13.3910    8.2370   17.4890 O.co2 186  GLU186     -0.2457
    163  OE2      -11.5040    8.1020   16.4290 O.co2 186  GLU186     -0.2457
@<TRIPOS>BOND
     1    59    58    1
     2    60    58    1
     3    58    57    2
     4    57    56    1
     5    56    55    1
     6    55    54    1
     7    47    49   ar
     8    47    45   ar
     9    54    51    1
    10    49    48   ar
    11    45    44   ar
    12    51    50    1
    13    51    52    1
    14    48    46   ar
    15    53    52    2
    16    52    61   am
    17    44    46   ar
    18    44    43    1
    19    36    37    1
    20    36    33    1
    21    35    34    2
    22    37    38    1
    23    43    40    1
    24    61    62    1
    25    74    73    2
    26    70    68   ar
    27    70    69   ar
    28   152   151    1
    29   152   154    1
    30    34    33    1
    31    34    39   am
    32    40    39    1
    33    40    41    1
    34   150   149    2
    35    68    66   ar
    36   151   153    1
    37   151   148    1
    38   144   145    1
    39   144   143    1
    40    33    32    1
    41    69    67   ar
    42   147   145   am
    43   147   148    1
    44    62    63    1
    45    62    65    1
    46    71    72    1
    47    71    63   am
    48    75    72    1
    49    38    32    1
    50    73    72    1
    51    73    76   am
    52    78    77    1
    53    78    79    2
    54   145   146    2
    55    66    67   ar
    56    66    65    1
    57   148   149    1
    58    42    41    2
    59    32    28   am
    60    63    64    2
    61    77    76    1
    62    77    80    1
    63    84    82   ar
    64    84    86   ar
    65    82    81   ar
    66    31    30    1
    67    28    29    2
    68    28    27    1
    69    87    86    1
    70    86    85   ar
    71    81    80    1
    72    81    83   ar
    73    30    27    1
    74   134   133    2
    75    27    26    1
    76    85    83   ar
    77   133   132    1
    78   138   140   ar
    79   138   136   ar
    80    26    24   am
    81   140   141   ar
    82   132   135    1
    83   132   131    1
    84   135   136    1
    85    21    20   ar
    86    21    19   ar
    87    25    24    2
    88   136   137   ar
    89    24    23    1
    90    96    94   ar
    91    96    98   ar
    92    20    18   ar
    93   141   142    1
    94   141   139   ar
    95    99    98    1
    96    94    93   ar
    97    19    17   ar
    98    98    97   ar
    99   137   139   ar
   100    88    89    1
   101    23    22    1
   102    93    92    1
   103    93    95   ar
   104    18    17   ar
   105    97    95   ar
   106    17    16    1
   107    92    89    1
   108    89    90    1
   109    22    14   am
   110   128   127    2
   111    91    90    2
   112    15    14    2
   113    14    13    1
   114    16    13    1
   115    90   100   am
   116   110   108   ar
   117   110   109   ar
   118   108   106   ar
   119   127   126    1
   120    13    12    1
   121   119   118    2
   122   109   107   ar
   123   163   161   ar
   124   100   101    1
   125   106   105   ar
   126   126   129    1
   127   126   125    1
   128   124   123    1
   129   107   105   ar
   130   122   123    1
   131   122   121    1
   132   129   130    1
   133    12     3   am
   134   105   104    1
   135   118   125   am
   136   118   117    1
   137   101   104    1
   138   101   102    1
   139   161   162   ar
   140   161   160    1
   141     4     3    2
   142   121   120    1
   143     3     2    1
   144   117   120    1
   145   117   116    1
   146   102   103    2
   147   102   111   am
   148   160   159    1
   149   159   156    1
   150   111   112    1
   151   115   112    1
   152     2     5    1
   153     2     1    1
   154     5     6    1
   155   112   113    1
   156   157   156    1
   157   157   158    2
   158   156   155    1
   159     7     6   ar
   160     7     9   ar
   161     6     8   ar
   162   113   114    2
   163     9    11   ar
   164     8    10   ar
   165    11    10   ar
