@<TRIPOS>MOLECULE
tmp/4j22A00.pdb
 160 161 0 0 0
SMALL
GASTEIGER

@<TRIPOS>ATOM
      1  N          9.4780    6.4190  -17.0940 N.3    80  HIS80      -0.1226
      2  CA         9.1040    6.6600  -15.7260 C.3    80  HIS80       0.1752
      3  C         10.3480    6.8800  -14.9050 C.2    80  HIS80       0.2597
      4  O         11.2160    5.9860  -14.8450 O.2    80  HIS80      -0.2718
      5  CB         8.2790    5.5240  -15.1130 C.3    80  HIS80       0.0759
      6  CG         7.8080    5.8160  -13.7060 C.ar   80  HIS80       0.0818
      7  ND1        6.6410    6.4980  -13.4290 N.ar   80  HIS80      -0.2268
      8  CD2        8.3240    5.4510  -12.4910 C.ar   80  HIS80       0.1154
      9  CE1        6.4620    6.5550  -12.1110 C.ar   80  HIS80       0.1986
     10  NE2        7.4520    5.8960  -11.5220 N.ar   80  HIS80      -0.2212
     11  N         10.4050    8.0360  -14.2490 N.am   81  GLY81      -0.1942
     12  CA        11.5250    8.3980  -13.3190 C.3    81  GLY81       0.2014
     13  C         10.9620    8.5160  -11.8970 C.2    81  GLY81       0.2640
     14  O          9.8050    9.0060  -11.6840 O.2    81  GLY81      -0.2714
     15  N         11.7440    8.0750  -10.9230 N.am   82  SER82      -0.1936
     16  CA        11.2420    7.9120   -9.5570 C.3    82  SER82       0.2040
     17  C         12.4010    7.5590   -8.6160 C.2    82  SER82       0.2485
     18  O         13.2920    6.8010   -9.0370 O.2    82  SER82      -0.2729
     19  CB        10.3000    6.6910   -9.5650 C.3    82  SER82       0.2129
     20  OG         9.5590    6.6220   -8.3800 O.3    82  SER82      -0.2179
     21  N         12.3560    8.0050   -7.3310 N.am   83  PRO83      -0.2715
     22  CA        13.4190    7.5260   -6.4440 C.3    83  PRO83       0.1536
     23  C         13.2080    6.0650   -6.0400 C.2    83  PRO83       0.2598
     24  O         14.0020    5.5440   -5.3400 O.2    83  PRO83      -0.2715
     25  CB        13.2880    8.4370   -5.2070 C.3    83  PRO83       0.0310
     26  CG        12.5480    9.6790   -5.7330 C.3    83  PRO83       0.0237
     27  CD        11.5410    9.0460   -6.6770 C.3    83  PRO83       0.0939
     28  N         12.1270    5.4350   -6.4660 N.am   84  PHE84      -0.1974
     29  CA        11.7850    4.0910   -6.0540 C.3    84  PHE84       0.1639
     30  C         12.0190    3.0720   -7.1920 C.2    84  PHE84       0.2290
     31  O         11.3910    2.0160   -7.2040 O.2    84  PHE84      -0.2864
     32  CB        10.3040    4.0440   -5.6550 C.3    84  PHE84       0.0560
     33  CG         9.8250    5.2630   -4.8400 C.ar   84  PHE84      -0.0200
     34  CD1       10.5200    5.6970   -3.7000 C.ar   84  PHE84      -0.0042
     35  CD2        8.6470    5.9370   -5.2010 C.ar   84  PHE84      -0.0042
     36  CE1       10.0730    6.8320   -2.9550 C.ar   84  PHE84      -0.0003
     37  CE2        8.1770    7.0380   -4.4500 C.ar   84  PHE84      -0.0003
     38  CZ         8.8980    7.4970   -3.3350 C.ar   84  PHE84      -0.0000
     39  N          1.8650    2.9230   -4.1300 N.3    96  ARG96      -0.1231
     40  CA         2.9050    3.6460   -3.4850 C.3    96  ARG96       0.1694
     41  C          3.7460    4.4140   -4.4380 C.2    96  ARG96       0.2592
     42  O          4.5560    5.2160   -3.9930 O.2    96  ARG96      -0.2718
     43  CB         3.8190    2.6460   -2.7680 C.3    96  ARG96       0.0321
     44  CG         3.1210    1.9910   -1.5500 C.3    96  ARG96       0.0489
     45  CD         4.1720    1.3580   -0.6090 C.3    96  ARG96       0.2205
     46  NE         4.6610    2.2770    0.4460 N.pl3  96  ARG96      -0.0865
     47  CZ         5.2520    1.9200    1.5970 C.cat  96  ARG96       0.5346
     48  NH1        5.6290    2.8720    2.4470 N.pl3  96  ARG96       0.1354
     49  NH2        5.4730    0.6390    1.9070 N.pl3  96  ARG96       0.1354
     50  N          3.6080    4.1120   -5.7380 N.am   97  HIS97      -0.1962
     51  CA         4.2440    4.8930   -6.8210 C.3    97  HIS97       0.1787
     52  C          3.2980    5.9570   -7.4290 C.2    97  HIS97       0.2620
     53  O          3.7270    6.7530   -8.2850 O.2    97  HIS97      -0.2715
     54  CB         4.8150    3.9040   -7.8850 C.3    97  HIS97       0.0785
     55  CG         5.6220    2.8310   -7.2380 C.ar   97  HIS97       0.0821
     56  ND1        5.2700    1.4940   -7.2770 N.ar   97  HIS97      -0.2267
     57  CD2        6.6720    2.9180   -6.3880 C.ar   97  HIS97       0.1154
     58  CE1        6.1310    0.7960   -6.5530 C.ar   97  HIS97       0.1986
     59  NE2        6.9560    1.6390   -5.9580 N.ar   97  HIS97      -0.2212
     60  N          2.0420    5.9740   -6.9580 N.am   98  ALA98      -0.1963
     61  CA         1.0370    6.9370   -7.4370 C.3    98  ALA98       0.1728
     62  C          1.4550    8.3350   -7.0680 C.2    98  ALA98       0.2616
     63  O          2.1400    8.5200   -6.0840 O.2    98  ALA98      -0.2715
     64  CB        -0.4070    6.6200   -6.8610 C.3    98  ALA98       0.0334
     65  N          1.0280    9.3160   -7.8800 N.am   99  TYR99      -0.1960
     66  CA         1.2430   10.7100   -7.5910 C.3    99  TYR99       0.1771
     67  C         -0.0700   11.2880   -7.0100 C.2    99  TYR99       0.2619
     68  O         -0.9840   11.6440   -7.7780 O.2    99  TYR99      -0.2715
     69  CB         1.5720   11.3980   -8.9080 C.3    99  TYR99       0.0574
     70  CG         1.9750   12.8410   -8.8110 C.ar   99  TYR99      -0.0198
     71  CD1        2.1620   13.6050   -9.9710 C.ar   99  TYR99      -0.0009
     72  CD2        2.1820   13.4430   -7.5560 C.ar   99  TYR99      -0.0009
     73  CE1        2.5830   14.9180   -9.8840 C.ar   99  TYR99       0.0417
     74  CE2        2.5670   14.7670   -7.4350 C.ar   99  TYR99       0.0417
     75  CZ         2.7660   15.4840   -8.6010 C.ar   99  TYR99       0.1957
     76  OH         3.1790   16.7600   -8.4660 O.3    99  TYR99      -0.2866
     77  N         -0.1760   11.3830   -5.6810 N.am  100  ILE100     -0.1977
     78  CA        -1.4650   11.7550   -5.0610 C.3   100  ILE100      0.1596
     79  C         -1.9360   13.1060   -5.5500 C.2   100  ILE100      0.2287
     80  O         -3.1040   13.2570   -5.8150 O.2   100  ILE100     -0.2864
     81  CB        -1.4720   11.7800   -3.5100 C.3   100  ILE100      0.0276
     82  CG1       -0.9620   10.4510   -2.9150 C.3   100  ILE100      0.0022
     83  CG2       -2.9100   12.1400   -2.9760 C.3   100  ILE100      0.0022
     84  CD1       -1.5430    9.2460   -3.5290 C.3   100  ILE100      0.0001
     85  N          2.1620    8.0100  -13.1110 N.3   109  TYR109     -0.1227
     86  CA         2.4080    8.8870  -14.2540 C.3   109  TYR109      0.1736
     87  C          3.5670    8.3910  -15.0510 C.2   109  TYR109      0.2595
     88  O          4.5920    7.9550  -14.4790 O.2   109  TYR109     -0.2718
     89  CB         2.7250   10.2910  -13.7530 C.3   109  TYR109      0.0548
     90  CG         1.4580   10.9880  -13.3050 C.ar  109  TYR109     -0.0200
     91  CD1        0.9800   12.0820  -14.0200 C.ar  109  TYR109     -0.0009
     92  CD2        0.7160   10.5470  -12.1840 C.ar  109  TYR109     -0.0009
     93  CE1       -0.1600   12.7590  -13.6260 C.ar  109  TYR109      0.0417
     94  CE2       -0.4690   11.2100  -11.8060 C.ar  109  TYR109      0.0417
     95  CZ        -0.8910   12.3050  -12.5440 C.ar  109  TYR109      0.1957
     96  OH        -2.0440   13.0070  -12.2360 O.3   109  TYR109     -0.2866
     97  N          3.3710    8.4530  -16.3690 N.am  110  PHE110     -0.1962
     98  CA         4.3440    8.0410  -17.3820 C.3   110  PHE110      0.1771
     99  C          4.4470    9.1480  -18.4200 C.2   110  PHE110      0.2619
    100  O          3.4550    9.8870  -18.6840 O.2   110  PHE110     -0.2715
    101  CB         3.9250    6.7400  -18.0500 C.3   110  PHE110      0.0574
    102  CG         3.9500    5.5540  -17.1380 C.ar  110  PHE110     -0.0200
    103  CD1        5.1190    4.7800  -17.0310 C.ar  110  PHE110     -0.0042
    104  CD2        2.8270    5.2520  -16.3140 C.ar  110  PHE110     -0.0042
    105  CE1        5.1930    3.6930  -16.1360 C.ar  110  PHE110     -0.0003
    106  CE2        2.8570    4.1850  -15.3850 C.ar  110  PHE110     -0.0003
    107  CZ         4.0460    3.3670  -15.3070 C.ar  110  PHE110     -0.0000
    108  N          5.6170    9.2680  -19.0450 N.am  111  ALA111     -0.1977
    109  CA         5.8490   10.3680  -19.9630 C.3   111  ALA111      0.1597
    110  C          6.4280    9.8840  -21.3090 C.2   111  ALA111      0.2287
    111  O          7.2230    8.9460  -21.3480 O.2   111  ALA111     -0.2864
    112  CB         6.7860   11.3680  -19.3340 C.3   111  ALA111      0.0319
    113  N         11.0620   14.7620  -19.2440 N.3   116  LYS116     -0.1231
    114  CA         9.9390   14.9050  -18.2680 C.3   116  LYS116      0.1693
    115  C         10.1570   13.8820  -17.1360 C.2   116  LYS116      0.2592
    116  O         10.1220   14.2310  -15.9510 O.2   116  LYS116     -0.2718
    117  CB         8.5880   14.6510  -18.9690 C.3   116  LYS116      0.0285
    118  CG         7.3430   14.5510  -18.0980 C.3   116  LYS116      0.0035
    119  CD         7.2810   15.6530  -17.0240 C.3   116  LYS116      0.0206
    120  CE         6.8450   16.9550  -17.6270 C.3   116  LYS116      0.1093
    121  NZ         6.8310   18.1360  -16.7260 N.3   116  LYS116     -0.1314
    122  N         10.4240   12.6260  -17.5160 N.am  117  SER117     -0.1952
    123  CA        10.6590   11.6080  -16.4780 C.3   117  SER117      0.1924
    124  C         11.9160   11.9490  -15.7010 C.2   117  SER117      0.2314
    125  O         11.9440   11.7230  -14.5120 O.2   117  SER117     -0.2863
    126  CB        10.7320   10.2120  -17.0750 C.3   117  SER117      0.2116
    127  OG         9.4130    9.8310  -17.5130 O.3   117  SER117     -0.2180
    128  N         11.7910   13.7590  -12.3030 N.3   120  TYR120     -0.1241
    129  CA        11.2520   13.0650  -11.1100 C.3   120  TYR120      0.1605
    130  C         12.1910   12.0250  -10.4980 C.2   120  TYR120      0.2264
    131  O         11.8270   11.3080   -9.5570 O.2   120  TYR120     -0.2867
    132  CB         9.9040   12.3740  -11.4670 C.3   120  TYR120      0.0534
    133  CG         8.8270   13.4080  -11.6960 C.ar  120  TYR120     -0.0201
    134  CD1        8.0490   13.8640  -10.6240 C.ar  120  TYR120     -0.0009
    135  CD2        8.6340   13.9910  -12.9550 C.ar  120  TYR120     -0.0009
    136  CE1        7.1020   14.8090  -10.8010 C.ar  120  TYR120      0.0417
    137  CE2        7.6830   14.9460  -13.1370 C.ar  120  TYR120      0.0417
    138  CZ         6.9140   15.3400  -12.0560 C.ar  120  TYR120      0.1957
    139  OH         5.9400   16.2870  -12.1930 O.3   120  TYR120     -0.2866
    140  N         12.7340   12.8990   -7.1100 N.3   123  GLY123     -0.1210
    141  CA        11.4640   13.0270   -6.3260 C.3   123  GLY123      0.1956
    142  C         10.6030   14.1090   -6.9990 C.2   123  GLY123      0.2611
    143  O         11.0190   14.6580   -8.0110 O.2   123  GLY123     -0.2717
    144  N          9.4590   14.4570   -6.4170 N.am  124  ILE124     -0.1979
    145  CA         8.4800   15.3900   -7.0250 C.3   124  ILE124      0.1595
    146  C          9.2490   16.6810   -7.1500 C.2   124  ILE124      0.2287
    147  O          9.9210   17.0830   -6.1920 O.2   124  ILE124     -0.2864
    148  CB         7.3030   15.6510   -6.0870 C.3   124  ILE124      0.0276
    149  CG1        6.5100   14.3810   -5.7270 C.3   124  ILE124      0.0022
    150  CG2        6.3070   16.7540   -6.6270 C.3   124  ILE124      0.0022
    151  CD1        5.8870   13.7150   -6.8270 C.3   124  ILE124      0.0001
    152  N          1.5760   12.9450  -21.3190 N.3   186  GLU186     -0.1245
    153  CA         1.7580   12.1350  -20.1580 C.3   186  GLU186      0.1567
    154  C          0.5390   11.2740  -20.0430 C.2   186  GLU186      0.2260
    155  O         -0.5250   11.6480  -20.5300 O.2   186  GLU186     -0.2867
    156  CB         1.9170   12.9970  -18.9000 C.3   186  GLU186      0.0388
    157  CG         3.1630   13.8540  -18.8490 C.3   186  GLU186      0.1160
    158  CD         3.1830   14.7530  -17.5410 C.2   186  GLU186      0.3649
    159  OE1        3.8110   15.7910  -17.5840 O.co2 186  GLU186     -0.2457
    160  OE2        2.5520   14.4490  -16.4900 O.co2 186  GLU186     -0.2457
@<TRIPOS>BOND
     1   111   110    2
     2   152   153    1
     3   110   109    1
     4   155   154    2
     5   153   154    1
     6   153   156    1
     7   109   112    1
     8   109   108    1
     9   113   114    1
    10   108    99   am
    11   117   114    1
    12   117   118    1
    13   156   157    1
    14   157   158    1
    15   100    99    2
    16    99    98    1
    17   114   115    1
    18   118   119    1
    19   101    98    1
    20   101   102    1
    21   120   119    1
    22   120   121    1
    23   159   158   ar
    24   158   160   ar
    25   122   115   am
    26   122   123    1
    27   127   126    1
    28    98    97    1
    29   102   103   ar
    30   102   104   ar
    31   115   116    2
    32     1     2    1
    33   126   123    1
    34   103   105   ar
    35   123   124    1
    36    97    87   am
    37   104   106   ar
    38   105   107   ar
    39     2     5    1
    40     2     3    1
    41   124   125    2
    42   106   107   ar
    43     5     6    1
    44    87    88    2
    45    87    86    1
    46     3     4    2
    47     3    11   am
    48    86    89    1
    49    86    85    1
    50    11    12    1
    51    91    93   ar
    52    91    90   ar
    53    89    90    1
    54     6     7   ar
    55     6     8   ar
    56    93    95   ar
    57     7     9   ar
    58    12    13    1
    59    90    92   ar
    60   137   135   ar
    61   137   138   ar
    62   135   133   ar
    63    95    96    1
    64    95    94   ar
    65     8    10   ar
    66   128   129    1
    67   139   138    1
    68    92    94   ar
    69     9    10   ar
    70   138   136   ar
    71    13    14    2
    72    13    15   am
    73   133   132    1
    74   133   134   ar
    75   132   129    1
    76   129   130    1
    77    15    16    1
    78   136   134   ar
    79   130   131    2
    80    71    73   ar
    81    71    70   ar
    82    73    75   ar
    83    19    16    1
    84    19    20    1
    85    16    17    1
    86    18    17    2
    87    69    70    1
    88    69    66    1
    89    70    72   ar
    90    17    21   am
    91    75    76    1
    92    75    74   ar
    93    53    52    2
    94   143   142    2
    95    54    55    1
    96    54    51    1
    97    65    66    1
    98    65    62   am
    99    68    67    2
   100    66    67    1
   101    72    74   ar
   102    61    62    1
   103    61    60    1
   104    61    64    1
   105    52    60   am
   106    52    51    1
   107    21    27    1
   108    21    22    1
   109    56    55   ar
   110    56    58   ar
   111    55    57   ar
   112    31    30    2
   113    30    29    1
   114   146   145    1
   115   146   147    2
   116   140   141    1
   117    62    63    2
   118   145   144    1
   119   145   148    1
   120    67    77   am
   121   142   144   am
   122   142   141    1
   123   151   149    1
   124    51    50    1
   125    27    26    1
   126   150   148    1
   127    58    59   ar
   128    28    29    1
   129    28    23   am
   130    22    23    1
   131    22    25    1
   132    57    59   ar
   133   148   149    1
   134    29    32    1
   135    23    24    2
   136    80    79    2
   137    50    41   am
   138    26    25    1
   139    77    78    1
   140    32    33    1
   141    79    78    1
   142    35    33   ar
   143    35    37   ar
   144    78    81    1
   145    33    34   ar
   146    37    38   ar
   147    41    42    2
   148    41    40    1
   149    39    40    1
   150    34    36   ar
   151    84    82    1
   152    81    83    1
   153    81    82    1
   154    40    43    1
   155    38    36   ar
   156    43    44    1
   157    44    45    1
   158    45    46    1
   159    46    47    2
   160    47    49    1
   161    47    48    1
