@<TRIPOS>MOLECULE
tmp/4j25C00.pdb
 150 143 0 0 0
SMALL
GASTEIGER

@<TRIPOS>ATOM
      1  N         -7.0690  -58.2580    7.1880 N.3    88  HIS88      -0.1241
      2  CA        -8.2660  -58.9970    7.5090 C.3    88  HIS88       0.1621
      3  C         -8.9710  -59.4510    6.2450 C.2    88  HIS88       0.2264
      4  O         -8.8490  -58.8370    5.1820 O.2    88  HIS88      -0.2867
      5  CB        -9.2130  -58.1690    8.4030 C.3    88  HIS88       0.0745
      6  CG        -9.9400  -57.0640    7.6930 C.ar   88  HIS88       0.0817
      7  ND1      -11.1500  -57.2530    7.0620 N.ar   88  HIS88      -0.2268
      8  CD2       -9.6450  -55.7500    7.5470 C.ar   88  HIS88       0.1154
      9  CE1      -11.5600  -56.1120    6.5400 C.ar   88  HIS88       0.1986
     10  NE2      -10.6660  -55.1820    6.8220 N.ar   88  HIS88      -0.2212
     11  N        -12.1350  -60.1210    3.8350 N.3    90  ALA90      -0.1245
     12  CA       -13.3720  -59.4470    3.4890 C.3    90  ALA90       0.1562
     13  C        -14.1420  -60.3340    2.5330 C.2    90  ALA90       0.2260
     14  O        -13.5680  -60.8840    1.5970 O.2    90  ALA90      -0.2867
     15  CB       -13.0850  -58.1150    2.8470 C.3    90  ALA90       0.0290
     16  N        -17.6730  -59.9890    0.3550 N.3    92  TYR92      -0.1241
     17  CA       -18.8150  -59.1950   -0.0580 C.3    92  TYR92       0.1605
     18  C        -19.8630  -60.1520   -0.5980 C.2    92  TYR92       0.2264
     19  O        -19.5970  -60.8860   -1.5540 O.2    92  TYR92      -0.2867
     20  CB       -18.4230  -58.2050   -1.1600 C.3    92  TYR92       0.0534
     21  CG       -17.5420  -57.0480   -0.7190 C.ar   92  TYR92      -0.0201
     22  CD1      -17.9730  -55.7300   -0.8250 C.ar   92  TYR92      -0.0009
     23  CD2      -16.2770  -57.2720   -0.2150 C.ar   92  TYR92      -0.0009
     24  CE1      -17.1550  -54.6680   -0.4300 C.ar   92  TYR92       0.0417
     25  CE2      -15.4610  -56.2240    0.1870 C.ar   92  TYR92       0.0417
     26  CZ       -15.8970  -54.9360    0.0770 C.ar   92  TYR92       0.1957
     27  OH       -15.0620  -53.9280    0.4790 O.3    92  TYR92      -0.2866
     28  N        -18.6030  -50.9070   -1.6970 N.3    98  TYR98      -0.1241
     29  CA       -17.9270  -49.9910   -0.8040 C.3    98  TYR98       0.1605
     30  C        -17.8090  -48.6610   -1.5280 C.2    98  TYR98       0.2264
     31  O        -17.0260  -48.5310   -2.4580 O.2    98  TYR98      -0.2867
     32  CB       -16.5500  -50.5520   -0.4300 C.3    98  TYR98       0.0534
     33  CG       -15.9520  -49.9940    0.8570 C.ar   98  TYR98      -0.0201
     34  CD1      -16.3040  -48.7300    1.3400 C.ar   98  TYR98      -0.0009
     35  CD2      -15.0240  -50.7280    1.5710 C.ar   98  TYR98      -0.0009
     36  CE1      -15.7530  -48.2290    2.5130 C.ar   98  TYR98       0.0417
     37  CE2      -14.4650  -50.2430    2.7310 C.ar   98  TYR98       0.0417
     38  CZ       -14.8350  -48.9960    3.2010 C.ar   98  TYR98       0.1957
     39  OH       -14.2720  -48.5340    4.3600 O.3    98  TYR98      -0.2866
     40  N        -13.9200  -43.9040   -1.2520 N.3   101  HIS101     -0.1241
     41  CA       -13.2960  -43.3850   -0.0390 C.3   101  HIS101      0.1621
     42  C        -11.7810  -43.3370   -0.1080 C.2   101  HIS101      0.2264
     43  O        -11.1610  -43.8100   -1.0610 O.2   101  HIS101     -0.2867
     44  CB       -13.6830  -44.2470    1.1500 C.3   101  HIS101      0.0745
     45  CG       -13.0840  -45.6200    1.0990 C.ar  101  HIS101      0.0817
     46  ND1      -13.5970  -46.6170    0.3040 N.ar  101  HIS101     -0.2268
     47  CD2      -11.9870  -46.1400    1.6970 C.ar  101  HIS101      0.1154
     48  CE1      -12.8650  -47.7060    0.4420 C.ar  101  HIS101      0.1986
     49  NE2      -11.8780  -47.4390    1.2750 N.ar  101  HIS101     -0.2212
     50  N         -8.5260  -44.4380    2.4150 N.3   103  ASP103     -0.1239
     51  CA        -8.2460  -45.2890    3.5640 C.3   103  ASP103      0.1674
     52  C         -7.6940  -44.4750    4.7160 C.2   103  ASP103      0.2266
     53  O         -8.0950  -44.6760    5.8390 O.2   103  ASP103     -0.2867
     54  CB        -7.2530  -46.3890    3.2020 C.3   103  ASP103      0.1410
     55  CG        -7.8700  -47.4730    2.3720 C.2   103  ASP103      0.3668
     56  OD1       -9.1100  -47.5740    2.3120 O.co2 103  ASP103     -0.2456
     57  OD2       -7.0960  -48.2500    1.7900 O.co2 103  ASP103     -0.2456
     58  N         -4.2490  -54.9310   -1.1140 N.3   116  VAL116     -0.1245
     59  CA        -5.3590  -55.8820   -1.1980 C.3   116  VAL116      0.1561
     60  C         -4.9990  -57.0510   -2.1310 C.2   116  VAL116      0.2260
     61  O         -4.4910  -56.8470   -3.2360 O.2   116  VAL116     -0.2867
     62  CB        -6.6520  -55.2230   -1.6850 C.3   116  VAL116      0.0252
     63  CG1       -6.4750  -54.6530   -3.0520 C.3   116  VAL116      0.0019
     64  CG2       -7.7860  -56.2250   -1.6880 C.3   116  VAL116      0.0019
     65  N         -6.6130  -60.3080   -4.0400 N.3   118  TYR118     -0.1241
     66  CA        -7.8850  -60.9050   -4.3780 C.3   118  TYR118      0.1605
     67  C         -7.7740  -62.4370   -4.4150 C.2   118  TYR118      0.2264
     68  O         -6.7050  -62.9850   -4.6570 O.2   118  TYR118     -0.2867
     69  CB        -8.4310  -60.3090   -5.6860 C.3   118  TYR118      0.0534
     70  CG        -8.6680  -58.8210   -5.5160 C.ar  118  TYR118     -0.0201
     71  CD1       -9.7170  -58.3560   -4.7400 C.ar  118  TYR118     -0.0009
     72  CD2       -7.8120  -57.8890   -6.0730 C.ar  118  TYR118     -0.0009
     73  CE1       -9.9240  -57.0050   -4.5510 C.ar  118  TYR118      0.0417
     74  CE2       -8.0210  -56.5220   -5.8770 C.ar  118  TYR118      0.0417
     75  CZ        -9.0660  -56.0980   -5.1090 C.ar  118  TYR118      0.1957
     76  OH        -9.2850  -54.7350   -4.9090 O.3   118  TYR118     -0.2866
     77  N        -12.3990  -53.1750   -8.1830 N.3   131  LEU131     -0.1245
     78  CA       -11.8700  -52.0420   -7.4390 C.3   131  LEU131      0.1561
     79  C        -11.6650  -50.9110   -8.4460 C.2   131  LEU131      0.2260
     80  O        -10.9740  -51.0840   -9.4340 O.2   131  LEU131     -0.2867
     81  CB       -10.5260  -52.3810   -6.8080 C.3   131  LEU131      0.0270
     82  CG        -9.7570  -51.2780   -6.0770 C.3   131  LEU131      0.0019
     83  CD1      -10.4440  -50.9400   -4.7880 C.3   131  LEU131      0.0001
     84  CD2       -8.3020  -51.7050   -5.8100 C.3   131  LEU131      0.0001
     85  N         -1.2970  -49.3890   -2.7940 N.3   153  PHE153     -0.1241
     86  CA        -1.3790  -47.9500   -3.0800 C.3   153  PHE153      0.1605
     87  C         -1.1930  -47.0650   -1.8520 C.2   153  PHE153      0.2264
     88  O         -1.3870  -47.4980   -0.6990 O.2   153  PHE153     -0.2867
     89  CB        -2.6950  -47.6020   -3.7870 C.3   153  PHE153      0.0534
     90  CG        -3.9380  -48.0230   -3.0410 C.ar  153  PHE153     -0.0203
     91  CD1       -4.5230  -49.2640   -3.2830 C.ar  153  PHE153     -0.0042
     92  CD2       -4.5400  -47.1700   -2.1290 C.ar  153  PHE153     -0.0042
     93  CE1       -5.6640  -49.6500   -2.6300 C.ar  153  PHE153     -0.0003
     94  CE2       -5.6850  -47.5470   -1.4630 C.ar  153  PHE153     -0.0003
     95  CZ        -6.2470  -48.8000   -1.7090 C.ar  153  PHE153     -0.0000
     96  N        -10.7690  -44.6790   -3.9420 N.3   160  HIS160     -0.1241
     97  CA       -11.1630  -45.9140   -4.5990 C.3   160  HIS160      0.1621
     98  C        -12.4880  -46.4110   -4.0560 C.2   160  HIS160      0.2264
     99  O        -12.8900  -46.0470   -2.9520 O.2   160  HIS160     -0.2867
    100  CB       -10.0780  -46.9880   -4.3710 C.3   160  HIS160      0.0745
    101  CG        -9.8080  -47.2630   -2.9230 C.ar  160  HIS160      0.0817
    102  ND1       -8.9900  -46.4670   -2.1570 N.ar  160  HIS160     -0.2268
    103  CD2      -10.2870  -48.2200   -2.0920 C.ar  160  HIS160      0.1154
    104  CE1       -8.9490  -46.9360   -0.9210 C.ar  160  HIS160      0.1986
    105  NE2       -9.7320  -47.9970   -0.8520 N.ar  160  HIS160     -0.2212
    106  N        -15.4080  -50.0500   -4.3670 N.3   162  VAL162     -0.1245
    107  CA       -15.6970  -51.4100   -4.8170 C.3   162  VAL162      0.1561
    108  C        -17.0900  -51.3950   -5.4090 C.2   162  VAL162      0.2260
    109  O        -18.0560  -50.9580   -4.7810 O.2   162  VAL162     -0.2867
    110  CB       -15.6180  -52.4430   -3.6730 C.3   162  VAL162      0.0252
    111  CG1      -15.9880  -53.8440   -4.1720 C.3   162  VAL162      0.0019
    112  CG2      -14.2140  -52.4510   -3.0820 C.3   162  VAL162      0.0019
    113  N        -17.5390  -62.0990   -3.3270 N.3   169  ARG169     -0.1245
    114  CA       -16.2480  -61.5210   -3.6630 C.3   169  ARG169      0.1563
    115  C        -15.3320  -61.5400   -2.4370 C.2   169  ARG169      0.2260
    116  O        -15.5850  -60.8590   -1.4320 O.2   169  ARG169     -0.2867
    117  CB       -16.4660  -60.0910   -4.1710 C.3   169  ARG169      0.0307
    118  CG       -15.2180  -59.3310   -4.5570 C.3   169  ARG169      0.0489
    119  CD       -15.5620  -57.8910   -4.6540 C.3   169  ARG169      0.2205
    120  NE       -14.5400  -57.0060   -5.2190 N.pl3 169  ARG169     -0.0865
    121  CZ       -13.6140  -56.3590   -4.5120 C.cat 169  ARG169      0.5346
    122  NH1      -13.4910  -56.5480   -3.1960 N.pl3 169  ARG169      0.1354
    123  NH2      -12.7800  -55.5330   -5.1260 N.pl3 169  ARG169      0.1354
    124  N        -11.4850  -61.3300   -0.5800 N.3   171  SER171     -0.1217
    125  CA       -10.2280  -60.6110   -0.6510 C.3   171  SER171      0.1889
    126  C         -9.5830  -60.5770    0.7260 C.2   171  SER171      0.2288
    127  O        -10.1880  -60.9340    1.7460 O.2   171  SER171     -0.2866
    128  CB       -10.4620  -59.1850   -1.1410 C.3   171  SER171      0.2089
    129  OG       -11.1950  -58.4470   -0.1750 O.3   171  SER171     -0.2183
    130  N         -7.5290  -57.7500    2.7870 N.3   173  THR173     -0.1218
    131  CA        -7.2410  -56.3240    2.7290 C.3   173  THR173      0.1862
    132  C         -6.4800  -55.8930    3.9720 C.2   173  THR173      0.2287
    133  O         -6.7690  -56.3440    5.0740 O.2   173  THR173     -0.2866
    134  CB        -8.5400  -55.5030    2.5290 C.3   173  THR173      0.1770
    135  OG1       -8.2430  -54.0970    2.4870 O.3   173  THR173     -0.2211
    136  CG2       -9.5250  -55.7910    3.6250 C.3   173  THR173      0.0375
    137  N         -3.1670  -52.8830    5.6540 N.3   175  TRP175     -0.1241
    138  CA        -2.5190  -51.5680    5.6910 C.3   175  TRP175      0.1605
    139  C         -1.1940  -51.6500    6.4270 C.2   175  TRP175      0.2264
    140  O         -1.1120  -52.2480    7.5040 O.2   175  TRP175     -0.2867
    141  CB        -3.4170  -50.5410    6.3990 C.3   175  TRP175      0.0550
    142  CG        -4.6960  -50.3500    5.6780 C.ar  175  TRP175      0.0003
    143  CD1       -4.9220  -49.5300    4.6160 C.ar  175  TRP175      0.0946
    144  CD2       -5.9220  -51.0370    5.9240 C.ar  175  TRP175      0.0152
    145  NE1       -6.2190  -49.6590    4.1850 N.ar  175  TRP175     -0.2442
    146  CE2       -6.8550  -50.5770    4.9750 C.ar  175  TRP175      0.0810
    147  CE3       -6.3210  -51.9990    6.8500 C.ar  175  TRP175      0.0012
    148  CZ2       -8.1650  -51.0520    4.9280 C.ar  175  TRP175      0.0191
    149  CZ3       -7.6180  -52.4650    6.8060 C.ar  175  TRP175      0.0001
    150  CH2       -8.5250  -51.9950    5.8460 C.ar  175  TRP175      0.0015
@<TRIPOS>BOND
     1    80    79    2
     2    79    78    1
     3    77    78    1
     4    78    81    1
     5    81    82    1
     6    82    84    1
     7    82    83    1
     8    72    74   ar
     9    72    70   ar
    10    74    75   ar
    11    69    70    1
    12    69    66    1
    13    70    71   ar
    14   108   107    1
    15   108   109    2
    16   120   119    1
    17   120   121    2
    18   123   121    1
    19    75    76    1
    20    75    73   ar
    21   107   106    1
    22   107   110    1
    23    71    73   ar
    24    68    67    2
    25   119   118    1
    26    97   100    1
    27    97    98    1
    28    97    96    1
    29   118   117    1
    30   121   122    1
    31    67    66    1
    32    66    65    1
    33   100   101    1
    34   111   110    1
    35   117   114    1
    36    98    99    2
    37    89    86    1
    38    89    90    1
    39   110   112    1
    40   114   113    1
    41   114   115    1
    42    91    90   ar
    43    91    93   ar
    44    61    60    2
    45    86    85    1
    46    86    87    1
    47    63    62    1
    48    90    92   ar
    49   101   102   ar
    50   101   103   ar
    51    93    95   ar
    52    31    30    2
    53   115   116    2
    54   102   104   ar
    55    60    59    1
    56    92    94   ar
    57   103   105   ar
    58    87    88    2
    59    95    94   ar
    60    28    29    1
    61    64    62    1
    62    62    59    1
    63    19    18    2
    64    30    29    1
    65    40    41    1
    66    59    58    1
    67    20    21    1
    68    20    17    1
    69   128   125    1
    70   128   129    1
    71    43    42    2
    72   104   105   ar
    73    22    21   ar
    74    22    24   ar
    75    29    32    1
    76    21    23   ar
    77   125   124    1
    78   125   126    1
    79    18    17    1
    80    24    26   ar
    81    32    33    1
    82    23    25   ar
    83    42    41    1
    84    17    16    1
    85    41    44    1
    86    26    25   ar
    87    26    27    1
    88    46    48   ar
    89    46    45   ar
    90    48    49   ar
    91   126   127    2
    92    33    34   ar
    93    33    35   ar
    94    45    44    1
    95    45    47   ar
    96    49    47   ar
    97    34    36   ar
    98    35    37   ar
    99    14    13    2
   100    57    55   ar
   101    56    55   ar
   102    55    54    1
   103    50    51    1
   104   135   134    1
   105    36    38   ar
   106   134   131    1
   107   134   136    1
   108    13    12    1
   109   131   130    1
   110   131   132    1
   111    37    38   ar
   112    15    12    1
   113    38    39    1
   114    54    51    1
   115    12    11    1
   116    51    52    1
   117   132   133    2
   118   145   143   ar
   119   145   146   ar
   120   143   142   ar
   121    52    53    2
   122   148   146   ar
   123   148   150   ar
   124   146   144   ar
   125     4     3    2
   126   137   138    1
   127   142   144   ar
   128   142   141    1
   129   138   141    1
   130   138   139    1
   131   150   149   ar
   132   144   147   ar
   133     3     2    1
   134   139   140    2
   135     9    10   ar
   136     9     7   ar
   137   149   147   ar
   138    10     8   ar
   139     7     6   ar
   140     1     2    1
   141     2     5    1
   142     8     6   ar
   143     6     5    1
