@<TRIPOS>MOLECULE
tmp/4j26C00.pdb
 133 126 0 0 0
SMALL
GASTEIGER

@<TRIPOS>ATOM
      1  N         25.5740   40.4810   -5.0840 N.3    47  VAL47      -0.1245
      2  CA        26.6150   40.8430   -6.0710 C.3    47  VAL47       0.1561
      3  C         27.6650   39.7270   -6.1670 C.2    47  VAL47       0.2260
      4  O         27.9790   39.2570   -7.2650 O.2    47  VAL47      -0.2867
      5  CB        27.2880   42.2110   -5.7310 C.3    47  VAL47       0.0252
      6  CG1       28.5420   42.4780   -6.5630 C.3    47  VAL47       0.0019
      7  CG2       26.3030   43.3570   -5.9230 C.3    47  VAL47       0.0019
      8  N         26.5790   36.1040   -7.6450 N.3    50  ILE50      -0.1231
      9  CA        26.5580   35.9950   -9.1140 C.3    50  ILE50       0.1692
     10  C         27.9600   35.6730   -9.6410 C.2    50  ILE50       0.2592
     11  O         28.1040   34.8040  -10.5000 O.2    50  ILE50      -0.2718
     12  CB        25.9730   37.2510   -9.8050 C.3    50  ILE50       0.0266
     13  CG1       24.5150   37.4570   -9.3750 C.3    50  ILE50       0.0019
     14  CG2       26.0130   37.1080  -11.3290 C.3    50  ILE50       0.0020
     15  CD1       23.9570   38.8070   -9.7430 C.3    50  ILE50       0.0001
     16  N         28.9730   36.3650   -9.1150 N.am   51  SER51      -0.1952
     17  CA        30.3800   36.0830   -9.4410 C.3    51  SER51       0.1924
     18  C         30.7900   34.6590   -9.0470 C.2    51  SER51       0.2314
     19  O         31.4750   33.9800   -9.8160 O.2    51  SER51      -0.2863
     20  CB        31.3180   37.0950   -8.7670 C.3    51  SER51       0.2116
     21  OG        31.1150   38.4000   -9.2790 O.3    51  SER51      -0.2180
     22  N         29.2190   32.1670  -11.5360 N.3    54  LYS54      -0.1245
     23  CA        29.9660   32.2140  -12.8080 C.3    54  LYS54       0.1561
     24  C         31.2870   31.4210  -12.8030 C.2    54  LYS54       0.2260
     25  O         31.7810   31.0600  -13.8680 O.2    54  LYS54      -0.2867
     26  CB        30.2490   33.6650  -13.2130 C.3    54  LYS54       0.0271
     27  CG        29.0070   34.4620  -13.5760 C.3    54  LYS54       0.0035
     28  CD        29.2820   35.9570  -13.5830 C.3    54  LYS54       0.0206
     29  CE        30.0900   36.3650  -14.8020 C.3    54  LYS54       0.1093
     30  NZ        30.2700   37.8390  -14.8650 N.3    54  LYS54      -0.1314
     31  N         28.6060   26.6050  -15.5950 N.3    59  PHE59      -0.1227
     32  CA        27.4380   27.4590  -15.2860 C.3    59  PHE59       0.1736
     33  C         27.1950   28.5230  -16.3600 C.2    59  PHE59       0.2595
     34  O         26.0530   28.7350  -16.7690 O.2    59  PHE59      -0.2718
     35  CB        27.5680   28.1350  -13.9120 C.3    59  PHE59       0.0547
     36  CG        26.3520   28.9390  -13.5130 C.ar   59  PHE59      -0.0202
     37  CD1       25.2550   28.3210  -12.9100 C.ar   59  PHE59      -0.0042
     38  CD2       26.2920   30.3150  -13.7540 C.ar   59  PHE59      -0.0042
     39  CE1       24.1290   29.0580  -12.5510 C.ar   59  PHE59      -0.0003
     40  CE2       25.1700   31.0570  -13.3970 C.ar   59  PHE59      -0.0003
     41  CZ        24.0880   30.4270  -12.7950 C.ar   59  PHE59      -0.0000
     42  N         28.2620   29.1920  -16.7990 N.am   60  VAL60      -0.1980
     43  CA        28.1660   30.1830  -17.8930 C.3    60  VAL60       0.1595
     44  C         27.8130   29.5420  -19.2540 C.2    60  VAL60       0.2287
     45  O         27.2800   30.2130  -20.1360 O.2    60  VAL60      -0.2864
     46  CB        29.4330   31.0800  -18.0200 C.3    60  VAL60       0.0276
     47  CG1       29.6830   31.8500  -16.7260 C.3    60  VAL60       0.0022
     48  CG2       30.6730   30.2890  -18.4370 C.3    60  VAL60       0.0022
     49  N         21.2370   31.3670  -20.8710 N.3    64  LEU64      -0.1231
     50  CA        21.0580   32.5910  -20.0840 C.3    64  LEU64       0.1693
     51  C         19.7610   32.5580  -19.2600 C.2    64  LEU64       0.2592
     52  O         19.7400   32.9980  -18.1090 O.2    64  LEU64      -0.2718
     53  CB        21.0570   33.8080  -21.0140 C.3    64  LEU64       0.0284
     54  CG        21.2080   35.1890  -20.3910 C.3    64  LEU64       0.0019
     55  CD1       22.5800   35.3530  -19.7530 C.3    64  LEU64       0.0001
     56  CD2       20.9780   36.2260  -21.4810 C.3    64  LEU64       0.0001
     57  N         18.6990   32.0290  -19.8730 N.am   65  PHE65      -0.1976
     58  CA        17.4110   31.7660  -19.2140 C.3    65  PHE65       0.1639
     59  C         17.5570   30.9050  -17.9450 C.2    65  PHE65       0.2290
     60  O         16.9570   31.2200  -16.9130 O.2    65  PHE65      -0.2864
     61  CB        16.4450   31.0970  -20.2130 C.3    65  PHE65       0.0560
     62  CG        15.0810   30.8010  -19.6500 C.ar   65  PHE65      -0.0200
     63  CD1       14.0980   31.7900  -19.6080 C.ar   65  PHE65      -0.0042
     64  CD2       14.7700   29.5280  -19.1690 C.ar   65  PHE65      -0.0042
     65  CE1       12.8350   31.5190  -19.0880 C.ar   65  PHE65      -0.0003
     66  CE2       13.5100   29.2500  -18.6490 C.ar   65  PHE65      -0.0003
     67  CZ        12.5410   30.2470  -18.6070 C.ar   65  PHE65      -0.0000
     68  N         20.4930   30.3190  -16.1980 N.3    67  GLN67      -0.1231
     69  CA        21.3510   31.0520  -15.2460 C.3    67  GLN67       0.1698
     70  C         20.5540   32.0430  -14.3940 C.2    67  GLN67       0.2592
     71  O         20.7700   32.1390  -13.1820 O.2    67  GLN67      -0.2718
     72  CB        22.4620   31.8090  -15.9750 C.3    67  GLN67       0.0381
     73  CG        23.4780   30.9240  -16.6780 C.3    67  GLN67       0.0905
     74  CD        24.5190   31.7380  -17.4190 C.2    67  GLN67       0.2608
     75  OE1       25.0720   32.6820  -16.8620 O.2    67  GLN67      -0.2717
     76  NE2       24.7970   31.3790  -18.6780 N.am   67  GLN67      -0.0878
     77  N         19.6350   32.7640  -15.0400 N.am   68  VAL68      -0.1980
     78  CA        18.7450   33.7260  -14.3660 C.3    68  VAL68       0.1595
     79  C         17.8100   33.0370  -13.3700 C.2    68  VAL68       0.2287
     80  O         17.7690   33.4110  -12.1940 O.2    68  VAL68      -0.2864
     81  CB        17.9160   34.5460  -15.3940 C.3    68  VAL68       0.0276
     82  CG1       16.7210   35.2660  -14.7580 C.3    68  VAL68       0.0022
     83  CG2       18.8140   35.5560  -16.0920 C.3    68  VAL68       0.0022
     84  N         19.4500   31.3530  -10.1390 N.3    71  LEU71      -0.1231
     85  CA        19.8520   32.3650   -9.1440 C.3    71  LEU71       0.1693
     86  C         18.6430   33.0260   -8.4830 C.2    71  LEU71       0.2591
     87  O         18.6150   33.1860   -7.2640 O.2    71  LEU71      -0.2718
     88  CB        20.7770   33.4290   -9.7600 C.3    71  LEU71       0.0284
     89  CG        22.2360   32.9800   -9.9350 C.3    71  LEU71       0.0019
     90  CD1       22.9550   33.8180  -10.9830 C.3    71  LEU71       0.0001
     91  CD2       22.9890   33.0170   -8.6110 C.3    71  LEU71       0.0001
     92  N         17.6530   33.3970   -9.2970 N.am   72  GLU72      -0.1979
     93  CA        16.3560   33.9160   -8.8160 C.3    72  GLU72       0.1602
     94  C         15.6520   32.9810   -7.8160 C.2    72  GLU72       0.2287
     95  O         15.0570   33.4510   -6.8410 O.2    72  GLU72      -0.2864
     96  CB        15.4280   34.2020  -10.0140 C.3    72  GLU72       0.0415
     97  CG        13.9720   34.5150   -9.6690 C.3    72  GLU72       0.1163
     98  CD        13.1140   34.8550  -10.8790 C.2    72  GLU72       0.3649
     99  OE1       13.5460   34.6300  -12.0340 O.co2  72  GLU72      -0.2457
    100  OE2       11.9850   35.3420  -10.6650 O.co2  72  GLU72      -0.2457
    101  N         18.7270   48.2140   -5.6820 N.3   220  ASP220     -0.1225
    102  CA        19.7250   47.5560   -6.5240 C.3   220  ASP220      0.1805
    103  C         19.2950   46.1090   -6.8640 C.2   220  ASP220      0.2597
    104  O         18.2050   45.9030   -7.4000 O.2   220  ASP220     -0.2718
    105  CB        21.1190   47.6830   -5.8510 C.3   220  ASP220      0.1424
    106  CG        22.2680   47.2270   -6.7490 C.2   220  ASP220      0.3668
    107  OD1       22.3590   47.6940   -7.9050 O.co2 220  ASP220     -0.2456
    108  OD2       23.0780   46.3910   -6.2840 O.co2 220  ASP220     -0.2456
    109  N         20.1000   45.1210   -6.4910 N.am  221  LEU221     -0.1979
    110  CA        19.9540   43.7530   -6.9580 C.3   221  LEU221      0.1596
    111  C         18.9450   43.0190   -6.0810 C.2   221  LEU221      0.2287
    112  O         18.1630   42.2080   -6.5800 O.2   221  LEU221     -0.2864
    113  CB        21.3220   43.0710   -6.9130 C.3   221  LEU221      0.0297
    114  CG        21.6140   41.7790   -7.6720 C.3   221  LEU221      0.0022
    115  CD1       21.0560   41.7420   -9.0900 C.3   221  LEU221      0.0001
    116  CD2       23.1270   41.6250   -7.6730 C.3   221  LEU221      0.0001
    117  N         15.4910   44.0810   -7.2090 N.3   224  GLU224     -0.1231
    118  CA        15.1680   43.4350   -8.4880 C.3   224  GLU224      0.1699
    119  C         14.7770   41.9670   -8.3050 C.2   224  GLU224      0.2592
    120  O         13.7450   41.5320   -8.8170 O.2   224  GLU224     -0.2718
    121  CB        16.3470   43.5460   -9.4600 C.3   224  GLU224      0.0402
    122  CG        16.1150   42.8990  -10.8190 C.3   224  GLU224      0.1161
    123  CD        17.2970   43.0720  -11.7440 C.2   224  GLU224      0.3649
    124  OE1       17.5490   44.2150  -12.1640 O.co2 224  GLU224     -0.2457
    125  OE2       17.9760   42.0710  -12.0530 O.co2 224  GLU224     -0.2457
    126  N         15.6190   41.2170   -7.5940 N.am  225  MET225     -0.1979
    127  CA        15.3250   39.8200   -7.2150 C.3   225  MET225      0.1605
    128  C         13.9860   39.6800   -6.4890 C.2   225  MET225      0.2287
    129  O         13.2440   38.7240   -6.7160 O.2   225  MET225     -0.2864
    130  CB        16.4320   39.2590   -6.3100 C.3   225  MET225      0.0413
    131  CG        17.7390   38.9450   -7.0190 C.3   225  MET225      0.0598
    132  SD        17.5700   37.5910   -8.1980 S.3   225  MET225     -0.1393
    133  CE        19.2800   37.1130   -8.4060 C.3   225  MET225      0.0692
@<TRIPOS>BOND
     1    56    54    1
     2    53    54    1
     3    53    50    1
     4    49    50    1
     5    54    55    1
     6    61    62    1
     7    61    58    1
     8    45    44    2
     9    50    51    1
    10    57    51   am
    11    57    58    1
    12    62    63   ar
    13    62    64   ar
    14    63    65   ar
    15    51    52    2
    16    44    43    1
    17    58    59    1
    18    64    66   ar
    19    65    67   ar
    20    76    74   am
    21    66    67   ar
    22    48    46    1
    23    46    43    1
    24    46    47    1
    25    59    60    2
    26    43    42    1
    27    74    75    2
    28    74    73    1
    29    42    33   am
    30    34    33    2
    31    73    72    1
    32    33    32    1
    33    68    69    1
    34    83    81    1
    35    72    69    1
    36    31    32    1
    37    81    82    1
    38    81    78    1
    39    32    35    1
    40    69    70    1
    41    77    70   am
    42    77    78    1
    43    30    29    1
    44    29    28    1
    45    70    71    2
    46    78    79    1
    47    35    36    1
    48    25    24    2
    49    38    36   ar
    50    38    40   ar
    51    28    27    1
    52    27    26    1
    53    36    37   ar
    54    40    41   ar
    55    79    80    2
    56    26    23    1
    57    37    39   ar
    58    23    24    1
    59    23    22    1
    60    41    39   ar
    61   124   123   ar
    62   125   123   ar
    63    99    98   ar
    64   123   122    1
    65    14    12    1
    66    90    89    1
    67    98   100   ar
    68    98    97    1
    69   122   121    1
    70    11    10    2
    71    84    85    1
    72    96    97    1
    73    96    93    1
    74    89    88    1
    75    89    91    1
    76    19    18    2
    77    12    13    1
    78    12     9    1
    79    88    85    1
    80    15    13    1
    81    10    16   am
    82    10     9    1
    83   121   118    1
    84    17    16    1
    85    17    18    1
    86    17    20    1
    87    92    93    1
    88    92    86   am
    89    21    20    1
    90    85    86    1
    91     9     8    1
    92   115   114    1
    93   120   119    2
    94    93    94    1
    95   118   119    1
    96   118   117    1
    97    86    87    2
    98   133   132    1
    99   119   126   am
   100   132   131    1
   101   107   106   ar
   102    94    95    2
   103   116   114    1
   104   114   113    1
   105   126   127    1
   106   104   103    2
   107     4     3    2
   108   127   128    1
   109   127   130    1
   110   131   130    1
   111   110   113    1
   112   110   109    1
   113   110   111    1
   114   103   102    1
   115   103   109   am
   116   106   108   ar
   117   106   105    1
   118   129   128    2
   119   112   111    2
   120     6     5    1
   121   102   105    1
   122   102   101    1
   123     3     2    1
   124     2     5    1
   125     2     1    1
   126     7     5    1
