@<TRIPOS>MOLECULE
tmp/4j28A00.pdb
 135 138 0 0 0
SMALL
GASTEIGER

@<TRIPOS>ATOM
      1  N        -12.5050   -1.0330   29.2150 N.3    30  PHE30      -0.1241
      2  CA       -12.9380    0.1940   28.5950 C.3    30  PHE30       0.1605
      3  C        -11.7260    0.7540   27.8450 C.2    30  PHE30       0.2264
      4  O        -10.6170    0.6220   28.3320 O.2    30  PHE30      -0.2867
      5  CB       -13.3480    1.2030   29.6740 C.3    30  PHE30       0.0534
      6  CG       -14.5930    1.9270   29.3460 C.ar   30  PHE30      -0.0203
      7  CD1      -14.6720    2.6800   28.2000 C.ar   30  PHE30      -0.0042
      8  CD2      -15.6650    1.9100   30.2080 C.ar   30  PHE30      -0.0042
      9  CE1      -15.8430    3.3620   27.8780 C.ar   30  PHE30      -0.0003
     10  CE2      -16.8590    2.5820   29.8800 C.ar   30  PHE30      -0.0003
     11  CZ       -16.9230    3.2950   28.7050 C.ar   30  PHE30      -0.0000
     12  N        -10.5470    4.3840   26.2760 N.3    32  HIS32      -0.1241
     13  CA       -10.7030    5.8580   26.0190 C.3    32  HIS32       0.1621
     14  C         -9.5600    6.2770   25.1480 C.2    32  HIS32       0.2264
     15  O         -8.4050    6.2480   25.5740 O.2    32  HIS32      -0.2867
     16  CB       -10.6680    6.6780   27.3040 C.3    32  HIS32       0.0745
     17  CG       -11.9940    6.7990   27.9710 C.ar   32  HIS32       0.0817
     18  ND1      -12.6030    5.7480   28.6380 N.ar   32  HIS32      -0.2268
     19  CD2      -12.8340    7.8570   28.0780 C.ar   32  HIS32       0.1154
     20  CE1      -13.7870    6.1500   29.0710 C.ar   32  HIS32       0.1986
     21  NE2      -13.9580    7.4110   28.7170 N.ar   32  HIS32      -0.2212
     22  N         -8.6970   13.6640   29.1490 N.3    53  GLU53      -0.1231
     23  CA        -9.6650   13.7290   28.0670 C.3    53  GLU53       0.1699
     24  C        -10.4790   15.0180   28.0930 C.2    53  GLU53       0.2592
     25  O        -11.1810   15.3030   27.1290 O.2    53  GLU53      -0.2718
     26  CB       -10.5580   12.4850   27.9980 C.3    53  GLU53       0.0402
     27  CG       -11.5890   12.3390   29.0990 C.3    53  GLU53       0.1161
     28  CD       -11.0620   11.8850   30.4600 C.2    53  GLU53       0.3649
     29  OE1       -9.8590   11.5350   30.6280 O.co2  53  GLU53      -0.2457
     30  OE2      -11.9080   11.8640   31.3600 O.co2  53  GLU53      -0.2457
     31  N        -10.3820   15.7680   29.1970 N.am   54  TRP54      -0.1976
     32  CA       -10.9770   17.0980   29.3840 C.3    54  TRP54       0.1640
     33  C         -9.9830   18.2550   29.2160 C.2    54  TRP54       0.2290
     34  O        -10.2990   19.4000   29.5660 O.2    54  TRP54      -0.2864
     35  CB       -11.6040   17.2000   30.7870 C.3    54  TRP54       0.0576
     36  CG       -12.9860   16.6440   30.8690 C.ar   54  TRP54       0.0006
     37  CD1      -13.3610   15.3130   30.9040 C.ar   54  TRP54       0.0946
     38  CD2      -14.1800   17.4000   30.9470 C.ar   54  TRP54       0.0152
     39  NE1      -14.7410   15.2170   30.9670 N.ar   54  TRP54      -0.2442
     40  CE2      -15.2600   16.4820   30.9780 C.ar   54  TRP54       0.0810
     41  CE3      -14.4610   18.7840   30.9480 C.ar   54  TRP54       0.0012
     42  CZ2      -16.5830   16.8970   31.0060 C.ar   54  TRP54       0.0191
     43  CZ3      -15.7690   19.1850   31.0120 C.ar   54  TRP54       0.0001
     44  CH2      -16.8140   18.2520   31.0540 C.ar   54  TRP54       0.0015
     45  N        -15.8260   10.9330   21.9610 N.3   101  HIS101     -0.1226
     46  CA       -15.8830   11.5580   23.2870 C.3   101  HIS101      0.1752
     47  C        -16.4060   13.0210   23.1460 C.2   101  HIS101      0.2596
     48  O        -16.9270   13.4090   22.0850 O.2   101  HIS101     -0.2718
     49  CB       -14.5250   11.4470   24.0130 C.3   101  HIS101      0.0759
     50  CG       -14.6500   11.4340   25.5190 C.ar  101  HIS101      0.0818
     51  ND1      -14.4860   12.5750   26.2820 N.ar  101  HIS101     -0.2268
     52  CD2      -14.9190   10.4340   26.3950 C.ar  101  HIS101      0.1154
     53  CE1      -14.7130   12.2900   27.5530 C.ar  101  HIS101      0.1986
     54  NE2      -14.9620   10.9870   27.6550 N.ar  101  HIS101     -0.2212
     55  N        -16.3500   13.8040   24.2430 N.am  102  HIS102     -0.1975
     56  CA       -16.9320   15.1490   24.2390 C.3   102  HIS102      0.1656
     57  C        -16.2970   15.9980   23.1510 C.2   102  HIS102      0.2291
     58  O        -16.9690   16.7850   22.5010 O.2   102  HIS102     -0.2864
     59  CB       -16.8050   15.8710   25.6020 C.3   102  HIS102      0.0771
     60  CG       -17.2350   15.0690   26.7910 C.ar  102  HIS102      0.0820
     61  ND1      -18.3180   14.2150   26.7820 N.ar  102  HIS102     -0.2267
     62  CD2      -16.7800   15.0690   28.0690 C.ar  102  HIS102      0.1154
     63  CE1      -18.4720   13.6820   27.9790 C.ar  102  HIS102      0.1986
     64  NE2      -17.5750   14.2110   28.7870 N.ar  102  HIS102     -0.2212
     65  N        -19.2740    3.2840   23.5790 N.3   144  TYR144     -0.1241
     66  CA       -19.4420    4.5110   24.3360 C.3   144  TYR144      0.1605
     67  C        -19.7640    5.6090   23.3160 C.2   144  TYR144      0.2264
     68  O        -19.1290    5.7000   22.2640 O.2   144  TYR144     -0.2867
     69  CB       -18.1070    4.8530   25.0660 C.3   144  TYR144      0.0534
     70  CG       -18.0280    6.2570   25.6310 C.ar  144  TYR144     -0.0201
     71  CD1      -17.9690    7.3750   24.7840 C.ar  144  TYR144     -0.0009
     72  CD2      -18.0140    6.4850   26.9860 C.ar  144  TYR144     -0.0009
     73  CE1      -17.8710    8.6480   25.2950 C.ar  144  TYR144      0.0417
     74  CE2      -17.9360    7.7820   27.5070 C.ar  144  TYR144      0.0417
     75  CZ       -17.9250    8.8450   26.6650 C.ar  144  TYR144      0.1957
     76  OH       -17.8730   10.1330   27.1370 O.3   144  TYR144     -0.2866
     77  N        -23.4660    2.7970   25.3650 N.3   193  TRP193     -0.1241
     78  CA       -23.2170    3.3740   26.6770 C.3   193  TRP193      0.1605
     79  C        -23.0830    4.8880   26.4700 C.2   193  TRP193      0.2264
     80  O        -22.0870    5.3990   26.0020 O.2   193  TRP193     -0.2867
     81  CB       -21.9660    2.7230   27.2910 C.3   193  TRP193      0.0550
     82  CG       -21.8000    2.9650   28.7670 C.ar  193  TRP193      0.0003
     83  CD1      -22.1580    2.1050   29.7920 C.ar  193  TRP193      0.0946
     84  CD2      -21.1760    4.1010   29.4070 C.ar  193  TRP193      0.0152
     85  NE1      -21.8300    2.6580   31.0090 N.ar  193  TRP193     -0.2442
     86  CE2      -21.2180    3.8660   30.8150 C.ar  193  TRP193      0.0810
     87  CE3      -20.5990    5.2970   28.9440 C.ar  193  TRP193      0.0012
     88  CZ2      -20.7000    4.7900   31.7550 C.ar  193  TRP193      0.0191
     89  CZ3      -20.0820    6.2150   29.8860 C.ar  193  TRP193      0.0001
     90  CH2      -20.1570    5.9530   31.2700 C.ar  193  TRP193      0.0015
     91  N        -22.9590    8.9120   27.3170 N.3   195  ASP195     -0.1239
     92  CA       -22.3950    9.8660   28.2320 C.3   195  ASP195      0.1674
     93  C        -22.7690   11.2680   27.7830 C.2   195  ASP195      0.2266
     94  O        -23.2070   11.4680   26.6630 O.2   195  ASP195     -0.2867
     95  CB       -20.8680    9.6940   28.2610 C.3   195  ASP195      0.1410
     96  CG       -20.2210   10.1470   29.5650 C.2   195  ASP195      0.3668
     97  OD1      -20.9510   10.4250   30.5540 O.co2 195  ASP195     -0.2456
     98  OD2      -18.9770   10.2400   29.5640 O.co2 195  ASP195     -0.2456
     99  N        -26.2380   15.0440   30.6370 N.3   198  TRP198     -0.1241
    100  CA       -26.6640   15.6950   31.9170 C.3   198  TRP198      0.1605
    101  C        -27.1230   17.1670   31.7510 C.2   198  TRP198      0.2264
    102  O        -27.6680   17.7470   32.6770 O.2   198  TRP198     -0.2867
    103  CB       -25.5380   15.6440   32.9770 C.3   198  TRP198      0.0550
    104  CG       -24.2940   16.1940   32.4510 C.ar  198  TRP198      0.0003
    105  CD1      -24.0470   17.4960   32.1700 C.ar  198  TRP198      0.0946
    106  CD2      -23.1420   15.4610   32.0260 C.ar  198  TRP198      0.0152
    107  NE1      -22.7990   17.6380   31.6500 N.ar  198  TRP198     -0.2442
    108  CE2      -22.2210   16.4030   31.5280 C.ar  198  TRP198      0.0810
    109  CE3      -22.7950   14.0990   32.0360 C.ar  198  TRP198      0.0012
    110  CZ2      -20.9630   16.0380   31.0510 C.ar  198  TRP198      0.0191
    111  CZ3      -21.5250   13.7330   31.5810 C.ar  198  TRP198      0.0001
    112  CH2      -20.6410   14.6900   31.0800 C.ar  198  TRP198      0.0015
    113  N        -18.8540    4.7170   39.4940 N.3   254  GLU254     -0.1245
    114  CA       -17.5300    4.9670   38.8870 C.3   254  GLU254      0.1567
    115  C        -16.4300    5.1190   39.9410 C.2   254  GLU254      0.2260
    116  O        -15.3820    4.4850   39.8670 O.2   254  GLU254     -0.2867
    117  CB       -17.5430    6.2180   38.0230 C.3   254  GLU254      0.0388
    118  CG       -18.4260    6.2230   36.7650 C.3   254  GLU254      0.1160
    119  CD       -18.2090    7.4870   35.8820 C.2   254  GLU254      0.3649
    120  OE1      -17.3520    8.3160   36.2290 O.co2 254  GLU254     -0.2457
    121  OE2      -18.8550    7.7000   34.8250 O.co2 254  GLU254     -0.2457
    122  N         -9.1280    8.9900   32.4680 N.3   282  TRP282     -0.1241
    123  CA        -9.6800    8.0260   31.5380 C.3   282  TRP282      0.1605
    124  C         -8.8630    7.9780   30.2550 C.2   282  TRP282      0.2264
    125  O         -8.3520    6.9040   29.8710 O.2   282  TRP282     -0.2867
    126  CB       -11.1610    8.3230   31.2740 C.3   282  TRP282      0.0550
    127  CG       -12.0350    8.2780   32.4280 C.ar  282  TRP282      0.0003
    128  CD1      -12.3310    9.3130   33.2870 C.ar  282  TRP282      0.0946
    129  CD2      -12.8500    7.1600   32.8610 C.ar  282  TRP282      0.0152
    130  NE1      -13.2510    8.9070   34.1910 N.ar  282  TRP282     -0.2442
    131  CE2      -13.5740    7.5920   33.9790 C.ar  282  TRP282      0.0810
    132  CE3      -13.0200    5.8470   32.4130 C.ar  282  TRP282      0.0012
    133  CZ2      -14.5020    6.7620   34.6470 C.ar  282  TRP282      0.0191
    134  CZ3      -13.8830    4.9970   33.1190 C.ar  282  TRP282      0.0001
    135  CH2      -14.6010    5.4500   34.2240 C.ar  282  TRP282      0.0015
@<TRIPOS>BOND
     1    45    46    1
     2    48    47    2
     3    68    67    2
     4    58    57    2
     5    47    46    1
     6    47    55   am
     7    57    56    1
     8    46    49    1
     9    67    66    1
    10    65    66    1
    11    49    50    1
    12    56    55    1
    13    56    59    1
    14    66    69    1
    15    71    73   ar
    16    71    70   ar
    17    69    70    1
    18    14    15    2
    19    14    13    1
    20    73    75   ar
    21    77    78    1
    22    50    51   ar
    23    50    52   ar
    24    59    60    1
    25    70    72   ar
    26    80    79    2
    27    13    12    1
    28    13    16    1
    29    51    53   ar
    30    52    54   ar
    31    79    78    1
    32    94    93    2
    33    75    76    1
    34    75    74   ar
    35    78    81    1
    36    61    60   ar
    37    61    63   ar
    38    60    62   ar
    39    72    74   ar
    40    25    24    2
    41    81    82    1
    42    16    17    1
    43    91    92    1
    44    53    54   ar
    45    93    92    1
    46     3     4    2
    47     3     2    1
    48     9     7   ar
    49     9    11   ar
    50    17    19   ar
    51    17    18   ar
    52    63    64   ar
    53    26    23    1
    54    26    27    1
    55    23    24    1
    56    23    22    1
    57    62    64   ar
    58    19    21   ar
    59    24    31   am
    60     7     6   ar
    61    92    95    1
    62    95    96    1
    63     2     1    1
    64     2     5    1
    65    18    20   ar
    66    11    10   ar
    67    21    20   ar
    68    82    84   ar
    69    82    83   ar
    70    87    84   ar
    71    87    89   ar
    72    27    28    1
    73    31    32    1
    74    33    32    1
    75    33    34    2
    76     6     5    1
    77     6     8   ar
    78    32    35    1
    79    84    86   ar
    80    98    96   ar
    81    96    97   ar
    82    83    85   ar
    83   125   124    2
    84    10     8   ar
    85    89    90   ar
    86   124   123    1
    87    28    29   ar
    88    28    30   ar
    89    99   100    1
    90    35    36    1
    91    86    85   ar
    92    86    88   ar
    93    36    37   ar
    94    36    38   ar
    95    37    39   ar
    96    38    41   ar
    97    38    40   ar
    98    41    43   ar
    99    39    40   ar
   100    40    42   ar
   101    42    44   ar
   102    43    44   ar
   103   110   112   ar
   104   110   108   ar
   105   112   111   ar
   106    90    88   ar
   107   126   123    1
   108   126   127    1
   109   108   107   ar
   110   108   106   ar
   111   123   122    1
   112   111   109   ar
   113   107   105   ar
   114   101   100    1
   115   101   102    2
   116   100   103    1
   117   106   109   ar
   118   106   104   ar
   119   105   104   ar
   120   132   129   ar
   121   132   134   ar
   122   127   129   ar
   123   127   128   ar
   124   104   103    1
   125   129   131   ar
   126   134   135   ar
   127   128   130   ar
   128   131   130   ar
   129   131   133   ar
   130   135   133   ar
   131   121   119   ar
   132   119   120   ar
   133   119   118    1
   134   118   117    1
   135   117   114    1
   136   114   113    1
   137   114   115    1
   138   116   115    2
