@<TRIPOS>MOLECULE
tmp/4j2cA00.pdb
 166 162 0 0 0
SMALL
GASTEIGER

@<TRIPOS>ATOM
      1  N        -16.5180   18.0920   28.3670 N.3     3  MET3       -0.1230
      2  CA       -16.2190   18.5870   27.0310 C.3     3  MET3        0.1702
      3  C        -16.8640   17.6790   25.9820 C.2     3  MET3        0.2592
      4  O        -17.1090   16.4990   26.2360 O.2     3  MET3       -0.2718
      5  CB       -14.7050   18.6300   26.8210 C.3     3  MET3        0.0401
      6  CG       -14.1970   19.8640   26.1140 C.3     3  MET3        0.0596
      7  SD       -12.4440   19.7350   25.6950 S.3     3  MET3       -0.1393
      8  CE       -11.7580   19.2740   27.2810 C.3     3  MET3        0.0692
      9  N        -17.1370   18.2380   24.8080 N.am    4  GLU4       -0.1966
     10  CA       -17.6980   17.4790   23.6980 C.3     4  GLU4        0.1733
     11  C        -16.5620   16.8060   22.9230 C.2     4  GLU4        0.2616
     12  O        -15.5190   17.4150   22.7020 O.2     4  GLU4       -0.2715
     13  CB       -18.5080   18.4190   22.7920 C.3     4  GLU4        0.0429
     14  CG       -19.0660   17.7860   21.5230 C.3     4  GLU4        0.1163
     15  CD       -19.7330   18.7990   20.5870 C.2     4  GLU4        0.3649
     16  OE1      -20.1750   19.8780   21.0600 O.co2   4  GLU4       -0.2457
     17  OE2      -19.8120   18.5070   19.3670 O.co2   4  GLU4       -0.2457
     18  N        -16.7630   15.5510   22.5240 N.am    5  ASP5       -0.1958
     19  CA       -15.7420   14.7950   21.7970 C.3     5  ASP5        0.1825
     20  C        -15.6800   15.2350   20.3350 C.2     5  ASP5        0.2464
     21  O        -16.6320   15.0290   19.5780 O.2     5  ASP5       -0.2730
     22  CB       -16.0270   13.2990   21.8800 C.3     5  ASP5        0.1450
     23  CG       -14.8380   12.4510   21.4720 C.2     5  ASP5        0.3671
     24  OD1      -13.9350   12.9660   20.7770 O.co2   5  ASP5       -0.2456
     25  OD2      -14.8090   11.2600   21.8500 O.co2   5  ASP5       -0.2456
     26  N        -14.5510   15.8360   19.9270 N.am    6  PRO6       -0.2715
     27  CA       -14.5150   16.3870   18.5720 C.3     6  PRO6        0.1536
     28  C        -14.0590   15.3670   17.5280 C.2     6  PRO6        0.2598
     29  O        -13.9470   15.7340   16.3610 O.2     6  PRO6       -0.2715
     30  CB       -13.4920   17.5140   18.6940 C.3     6  PRO6        0.0310
     31  CG       -12.5130   16.9980   19.7250 C.3     6  PRO6        0.0237
     32  CD       -13.3140   16.1230   20.6760 C.3     6  PRO6        0.0939
     33  N        -13.8080   14.1180   17.9200 N.am    7  PHE7       -0.1974
     34  CA       -13.3240   13.1370   16.9460 C.3     7  PHE7        0.1639
     35  C        -14.2230   13.1480   15.7150 C.2     7  PHE7        0.2290
     36  O        -13.7560   13.3720   14.5950 O.2     7  PHE7       -0.2864
     37  CB       -13.2550   11.7310   17.5410 C.3     7  PHE7        0.0560
     38  CG       -12.6330   10.6930   16.6160 C.ar    7  PHE7       -0.0200
     39  CD1      -13.3390   10.1830   15.5320 C.ar    7  PHE7       -0.0042
     40  CD2      -11.3520   10.2120   16.8560 C.ar    7  PHE7       -0.0042
     41  CE1      -12.7690    9.2240   14.6980 C.ar    7  PHE7       -0.0003
     42  CE2      -10.7830    9.2590   16.0290 C.ar    7  PHE7       -0.0003
     43  CZ       -11.4990    8.7600   14.9470 C.ar    7  PHE7       -0.0000
     44  N        -16.0470   15.2260   14.5340 N.3     9  VAL9       -0.1231
     45  CA       -15.9480   16.4630   13.7660 C.3     9  VAL9        0.1692
     46  C        -14.8010   16.3500   12.7670 C.2     9  VAL9        0.2591
     47  O        -14.9950   16.5280   11.5690 O.2     9  VAL9       -0.2718
     48  CB       -15.7470   17.6930   14.6560 C.3     9  VAL9        0.0266
     49  CG1      -15.6690   18.9590   13.8070 C.3     9  VAL9        0.0020
     50  CG2      -16.8770   17.7990   15.6540 C.3     9  VAL9        0.0020
     51  N        -13.6130   16.0300   13.2600 N.am   10  VAL10      -0.1980
     52  CA       -12.4520   15.9000   12.3890 C.3    10  VAL10       0.1595
     53  C        -12.6370   14.7810   11.3660 C.2    10  VAL10       0.2287
     54  O        -12.2630   14.9340   10.2090 O.2    10  VAL10      -0.2864
     55  CB       -11.1590   15.6970   13.2080 C.3    10  VAL10       0.0276
     56  CG1       -9.9510   15.5950   12.2930 C.3    10  VAL10       0.0022
     57  CG2      -10.9890   16.8380   14.1980 C.3    10  VAL10       0.0022
     58  N        -14.3590   16.0650    8.3990 N.3    13  GLU13      -0.1245
     59  CA       -13.4850   16.9320    7.6140 C.3    13  GLU13       0.1567
     60  C        -12.5170   16.1180    6.7620 C.2    13  GLU13       0.2260
     61  O        -12.2210   16.4760    5.6270 O.2    13  GLU13      -0.2867
     62  CB       -12.7060   17.8710    8.5300 C.3    13  GLU13       0.0388
     63  CG       -13.5970   18.7870    9.3600 C.3    13  GLU13       0.1160
     64  CD       -12.8060   19.7760   10.2070 C.2    13  GLU13       0.3649
     65  OE1      -11.5560   19.7220   10.1920 O.co2  13  GLU13      -0.2457
     66  OE2      -13.4380   20.6120   10.8860 O.co2  13  GLU13      -0.2457
     67  N         -1.8030   14.3030    7.9570 N.3    59  TRP59      -0.1227
     68  CA        -1.6530   14.9000    9.2760 C.3    59  TRP59       0.1737
     69  C         -2.8790   14.5290   10.0990 C.2    59  TRP59       0.2595
     70  O         -2.7700   13.9770   11.1950 O.2    59  TRP59      -0.2718
     71  CB        -1.5320   16.4250    9.1460 C.3    59  TRP59       0.0564
     72  CG        -1.1930   17.1680   10.4290 C.ar   59  TRP59       0.0003
     73  CD1       -0.6340   16.6510   11.5650 C.ar   59  TRP59       0.0946
     74  CD2       -1.3990   18.5640   10.6860 C.ar   59  TRP59       0.0152
     75  NE1       -0.4800   17.6410   12.5120 N.ar   59  TRP59      -0.2442
     76  CE2       -0.9410   18.8230   11.9950 C.ar   59  TRP59       0.0810
     77  CE3       -1.9260   19.6180    9.9350 C.ar   59  TRP59       0.0012
     78  CZ2       -1.0000   20.0930   12.5690 C.ar   59  TRP59       0.0191
     79  CZ3       -1.9830   20.8830   10.5070 C.ar   59  TRP59       0.0001
     80  CH2       -1.5240   21.1090   11.8120 C.ar   59  TRP59       0.0015
     81  N         -4.0510   14.8220    9.5510 N.am   60  ASP60      -0.1974
     82  CA        -5.3130   14.4980   10.2080 C.3    60  ASP60       0.1709
     83  C         -5.3740   13.0720   10.7280 C.2    60  ASP60       0.2293
     84  O         -5.7760   12.8470   11.8640 O.2    60  ASP60      -0.2864
     85  CB        -6.4800   14.7370    9.2560 C.3    60  ASP60       0.1436
     86  CG        -6.8460   16.1990    9.1500 C.2    60  ASP60       0.3671
     87  OD1       -6.0940   17.0490    9.6820 O.co2  60  ASP60      -0.2456
     88  OD2       -7.8860   16.4970    8.5320 O.co2  60  ASP60      -0.2456
     89  N         -3.0870   12.4000   13.7440 N.3    63  ASP63      -0.1225
     90  CA        -3.6500   12.9020   14.9830 C.3    63  ASP63       0.1805
     91  C         -4.7820   12.0070   15.4340 C.2    63  ASP63       0.2597
     92  O         -4.8660   11.6520   16.6020 O.2    63  ASP63      -0.2718
     93  CB        -4.1700   14.3300   14.8130 C.3    63  ASP63       0.1424
     94  CG        -3.0580   15.3440   14.6780 C.2    63  ASP63       0.3668
     95  OD1       -1.8870   14.9920   14.9330 O.co2  63  ASP63      -0.2456
     96  OD2       -3.3610   16.5000   14.3270 O.co2  63  ASP63      -0.2456
     97  N         -5.6610   11.6590   14.5040 N.am   64  LEU64      -0.1979
     98  CA        -6.7970   10.8160   14.8240 C.3    64  LEU64       0.1596
     99  C         -6.3500    9.4700   15.3720 C.2    64  LEU64       0.2287
    100  O         -6.8800    8.9960   16.3830 O.2    64  LEU64      -0.2864
    101  CB        -7.6790   10.6150   13.5950 C.3    64  LEU64       0.0297
    102  CG        -8.6370   11.7500   13.2550 C.3    64  LEU64       0.0022
    103  CD1       -9.2880   11.5070   11.8970 C.3    64  LEU64       0.0001
    104  CD2       -9.6830   11.8910   14.3420 C.3    64  LEU64       0.0001
    105  N         -3.6260    8.7870   16.8810 N.3    66  GLU66      -0.1231
    106  CA        -3.0790    9.0050   18.2160 C.3    66  GLU66       0.1699
    107  C         -4.1550    9.0830   19.2830 C.2    66  GLU66       0.2592
    108  O         -3.9800    8.5440   20.3780 O.2    66  GLU66      -0.2718
    109  CB        -2.2440   10.2760   18.2730 C.3    66  GLU66       0.0402
    110  CG        -0.8790   10.1320   17.6600 C.3    66  GLU66       0.1161
    111  CD        -0.0380   11.3720   17.8670 C.2    66  GLU66       0.3649
    112  OE1        1.0600   11.4410   17.2740 O.co2  66  GLU66      -0.2457
    113  OE2       -0.4810   12.2690   18.6240 O.co2  66  GLU66      -0.2457
    114  N         -5.2600    9.7600   18.9780 N.am   67  THR67      -0.1953
    115  CA        -6.3360    9.8780   19.9580 C.3    67  THR67       0.1897
    116  C         -6.8450    8.4920   20.3460 C.2    67  THR67       0.2313
    117  O         -7.2640    8.2760   21.4810 O.2    67  THR67      -0.2863
    118  CB        -7.5000   10.7720   19.4760 C.3    67  THR67       0.1794
    119  OG1       -8.3030   10.0640   18.5220 O.3    67  THR67      -0.2208
    120  CG2       -6.9670   12.0660   18.8600 C.3    67  THR67       0.0378
    121  N         -4.6350    7.1860   22.9550 N.3    70  ILE70      -0.1231
    122  CA        -4.9280    7.9350   24.1780 C.3    70  ILE70       0.1692
    123  C         -6.1540    7.3880   24.9130 C.2    70  ILE70       0.2591
    124  O         -6.1280    7.2100   26.1320 O.2    70  ILE70      -0.2718
    125  CB        -5.0720    9.4460   23.8800 C.3    70  ILE70       0.0266
    126  CG1       -3.7120   10.0350   23.5020 C.3    70  ILE70       0.0019
    127  CG2       -5.6560   10.1890   25.0660 C.3    70  ILE70       0.0020
    128  CD1       -3.7180   11.5390   23.3530 C.3    70  ILE70       0.0001
    129  N         -7.2200    7.1000   24.1720 N.am   71  VAL71      -0.1980
    130  CA        -8.3990    6.4500   24.7510 C.3    71  VAL71       0.1595
    131  C         -8.1020    5.0330   25.2730 C.2    71  VAL71       0.2287
    132  O         -8.5670    4.6360   26.3440 O.2    71  VAL71      -0.2864
    133  CB        -9.5650    6.3830   23.7450 C.3    71  VAL71       0.0276
    134  CG1      -10.6410    5.4210   24.2380 C.3    71  VAL71       0.0022
    135  CG2      -10.1360    7.7710   23.5090 C.3    71  VAL71       0.0022
    136  N        -11.5010    7.3020   31.6800 N.3    77  LYS77      -0.1231
    137  CA       -11.6940    8.7360   31.4820 C.3    77  LYS77       0.1693
    138  C        -12.5950    9.0700   30.2960 C.2    77  LYS77       0.2592
    139  O        -13.3790   10.0240   30.3400 O.2    77  LYS77      -0.2718
    140  CB       -10.3420    9.4290   31.2930 C.3    77  LYS77       0.0285
    141  CG       -10.4220   10.7880   30.6140 C.3    77  LYS77       0.0035
    142  CD        -9.0350   11.3730   30.4470 C.3    77  LYS77       0.0206
    143  CE        -9.0770   12.7890   29.9160 C.3    77  LYS77       0.1093
    144  NZ        -7.7090   13.3740   29.9080 N.3    77  LYS77      -0.1314
    145  N        -12.4710    8.2970   29.2250 N.am   78  PHE78      -0.1976
    146  CA       -13.1520    8.6570   27.9890 C.3    78  PHE78       0.1639
    147  C        -14.5180    7.9990   27.8430 C.2    78  PHE78       0.2290
    148  O        -15.4090    8.5610   27.2130 O.2    78  PHE78      -0.2864
    149  CB       -12.2440    8.4150   26.7750 C.3    78  PHE78       0.0560
    150  CG       -11.0670    9.3520   26.7220 C.ar   78  PHE78      -0.0200
    151  CD1      -11.2310   10.6680   26.3020 C.ar   78  PHE78      -0.0042
    152  CD2       -9.8110    8.9350   27.1180 C.ar   78  PHE78      -0.0042
    153  CE1      -10.1570   11.5480   26.2680 C.ar   78  PHE78      -0.0003
    154  CE2       -8.7350    9.8010   27.0830 C.ar   78  PHE78      -0.0003
    155  CZ        -8.9080   11.1140   26.6600 C.ar   78  PHE78      -0.0000
    156  N        -14.0450    3.8190   14.6500 N.3    88  ARG88      -0.1245
    157  CA       -12.9670    4.8020   14.5530 C.3    88  ARG88       0.1563
    158  C        -11.7080    4.1630   13.9740 C.2    88  ARG88       0.2260
    159  O        -11.0690    4.7320   13.0940 O.2    88  ARG88      -0.2867
    160  CB       -12.6610    5.4340   15.9160 C.3    88  ARG88       0.0307
    161  CG       -13.7830    6.3150   16.4460 C.3    88  ARG88       0.0489
    162  CD       -13.4180    7.0160   17.7380 C.3    88  ARG88       0.2205
    163  NE       -14.5070    7.8890   18.1690 N.pl3  88  ARG88      -0.0865
    164  CZ       -14.4050    8.7950   19.1340 C.cat  88  ARG88       0.5346
    165  NH1      -13.2610    8.9480   19.7870 N.pl3  88  ARG88       0.1354
    166  NH2      -15.4500    9.5460   19.4450 N.pl3  88  ARG88       0.1354
@<TRIPOS>BOND
     1    61    60    2
     2    60    59    1
     3    59    58    1
     4    59    62    1
     5    67    68    1
     6    62    63    1
     7    88    86   ar
     8    71    68    1
     9    71    72    1
    10    86    85    1
    11    86    87   ar
    12    85    82    1
    13    68    69    1
    14    63    64    1
    15    81    69   am
    16    81    82    1
    17    77    79   ar
    18    77    74   ar
    19    69    70    2
    20    65    64   ar
    21    64    66   ar
    22    82    83    1
    23    54    53    2
    24    72    74   ar
    25    72    73   ar
    26    79    80   ar
    27    74    76   ar
    28    83    84    2
    29    53    52    1
    30    73    75   ar
    31    47    46    2
    32    80    78   ar
    33   103   102    1
    34    76    75   ar
    35    76    78   ar
    36    56    55    1
    37    52    55    1
    38    52    51    1
    39    46    51   am
    40    46    45    1
    41   159   158    2
    42    55    57    1
    43   102   101    1
    44   102   104    1
    45   101    98    1
    46    89    90    1
    47    45    44    1
    48    45    48    1
    49    49    48    1
    50   158   157    1
    51    96    94   ar
    52    97    98    1
    53    97    91   am
    54   157   156    1
    55   157   160    1
    56    36    35    2
    57    48    50    1
    58    94    93    1
    59    94    95   ar
    60    41    43   ar
    61    41    39   ar
    62    93    90    1
    63    98    99    1
    64    43    42   ar
    65    90    91    1
    66    99   100    2
    67    91    92    2
    68    39    38   ar
    69    35    34    1
    70   160   161    1
    71    42    40   ar
    72    29    28    2
    73   161   162    1
    74    38    40   ar
    75    38    37    1
    76   105   106    1
    77    34    37    1
    78    34    33    1
    79   112   111   ar
    80    28    33   am
    81    28    27    1
    82   110   111    1
    83   110   109    1
    84   162   163    1
    85   111   113   ar
    86   163   164    2
    87   106   109    1
    88   106   107    1
    89   119   118    1
    90    27    30    1
    91    27    26    1
    92    30    31    1
    93   120   118    1
    94   114   107   am
    95   114   115    1
    96   164   166    1
    97   164   165    1
    98   107   108    2
    99    17    15   ar
   100   118   115    1
   101    21    20    2
   102    31    32    1
   103    26    20   am
   104    26    32    1
   105   115   116    1
   106    20    19    1
   107   116   117    2
   108    15    16   ar
   109    15    14    1
   110    24    23   ar
   111    23    25   ar
   112    23    22    1
   113    14    13    1
   114    19    22    1
   115    19    18    1
   116    18    11   am
   117    12    11    2
   118    13    10    1
   119    11    10    1
   120   121   122    1
   121   128   126    1
   122   126   125    1
   123   135   133    1
   124    10     9    1
   125   133   134    1
   126   133   130    1
   127   125   122    1
   128   125   127    1
   129   129   130    1
   130   129   123   am
   131   122   123    1
   132   130   131    1
   133     9     3   am
   134   123   124    2
   135   131   132    2
   136     7     6    1
   137     7     8    1
   138     3     4    2
   139     3     2    1
   140     6     5    1
   141   153   151   ar
   142   153   155   ar
   143   151   150   ar
   144   155   154   ar
   145   150   149    1
   146   150   152   ar
   147   149   146    1
   148     5     2    1
   149     2     1    1
   150   154   152   ar
   151   148   147    2
   152   147   146    1
   153   146   145    1
   154   145   138   am
   155   144   143    1
   156   143   142    1
   157   138   139    2
   158   138   137    1
   159   142   141    1
   160   141   140    1
   161   140   137    1
   162   137   136    1
