@<TRIPOS>MOLECULE
tmp/4j2hA00.pdb
 132 129 0 0 0
SMALL
GASTEIGER

@<TRIPOS>ATOM
      1  N         31.4560  -11.8410    7.9610 N.3    95  GLU95      -0.1231
      2  CA        32.4680  -12.5060    7.1430 C.3    95  GLU95       0.1699
      3  C         31.7620  -13.3850    6.1280 C.2    95  GLU95       0.2592
      4  O         30.6950  -13.9030    6.4140 O.2    95  GLU95      -0.2718
      5  CB        33.3720  -13.3690    8.0120 C.3    95  GLU95       0.0402
      6  CG        34.4500  -12.6040    8.7550 C.3    95  GLU95       0.1161
      7  CD        35.7830  -13.3200    8.6820 C.2    95  GLU95       0.3649
      8  OE1       36.2790  -13.5300    7.5580 O.co2  95  GLU95      -0.2457
      9  OE2       36.3280  -13.6940    9.7410 O.co2  95  GLU95      -0.2457
     10  N         32.3200  -13.5390    4.9330 N.am   96  ASN96      -0.1960
     11  CA        31.6500  -14.3850    3.9360 C.3    96  ASN96       0.1819
     12  C         32.5640  -14.7650    2.7830 C.2    96  ASN96       0.2621
     13  O         33.4050  -13.9710    2.3560 O.2    96  ASN96      -0.2715
     14  CB        30.3880  -13.6870    3.4030 C.3    96  ASN96       0.1195
     15  CG        29.6550  -14.5050    2.3570 C.2    96  ASN96       0.2630
     16  OD1       30.0340  -14.5430    1.1860 O.2    96  ASN96      -0.2716
     17  ND2       28.5830  -15.1390    2.7680 N.am   96  ASN96      -0.0877
     18  N         32.4000  -15.9920    2.3050 N.am   97  VAL97      -0.1977
     19  CA        32.9870  -16.4350    1.0540 C.3    97  VAL97       0.1596
     20  C         31.8750  -16.9330    0.1350 C.2    97  VAL97       0.2287
     21  O         30.9480  -17.5900    0.5820 O.2    97  VAL97      -0.2864
     22  CB        34.0760  -17.5060    1.2670 C.3    97  VAL97       0.0276
     23  CG1       35.2830  -16.8850    1.9530 C.3    97  VAL97       0.0022
     24  CG2       33.5530  -18.7090    2.0490 C.3    97  VAL97       0.0022
     25  N         42.6740   -8.6020    3.7880 N.3   144  THR144     -0.1218
     26  CA        42.0090   -8.2490    2.5450 C.3   144  THR144      0.1862
     27  C         42.0250   -6.7270    2.2420 C.2   144  THR144      0.2287
     28  O         41.5630   -6.3190    1.1580 O.2   144  THR144     -0.2866
     29  CB        40.5640   -8.7430    2.5130 C.3   144  THR144      0.1770
     30  OG1       39.8130   -8.0960    3.5350 O.3   144  THR144     -0.2211
     31  CG2       40.4820  -10.2670    2.7170 C.3   144  THR144      0.0375
     32  N         41.5080  -12.1020   -1.3930 N.3   149  ILE149     -0.1231
     33  CA        41.0950  -13.4990   -1.1920 C.3   149  ILE149      0.1678
     34  C         40.0190  -13.8530   -2.1910 C.2   149  ILE149      0.2434
     35  O         38.9600  -13.2390   -2.1690 O.2   149  ILE149     -0.2733
     36  CB        40.5870  -13.7350    0.2520 C.3   149  ILE149      0.0265
     37  CG1       41.7740  -13.6040    1.1960 C.3   149  ILE149      0.0019
     38  CG2       39.9160  -15.1380    0.3920 C.3   149  ILE149      0.0020
     39  CD1       41.4310  -13.5270    2.6800 C.3   149  ILE149      0.0001
     40  N         40.2640  -14.8790   -3.0460 N.am  150  PRO150     -0.2729
     41  CA        39.2400  -15.3050   -3.9940 C.3   150  PRO150      0.1401
     42  C         37.9520  -15.7340   -3.2710 C.2   150  PRO150      0.2269
     43  O         38.0070  -16.2880   -2.1770 O.2   150  PRO150     -0.2865
     44  CB        39.9010  -16.4650   -4.7600 C.3   150  PRO150      0.0296
     45  CG        41.0010  -16.9570   -3.8790 C.3   150  PRO150      0.0237
     46  CD        41.4000  -15.8220   -2.9770 C.3   150  PRO150      0.0939
     47  N         36.0800  -13.8800   -1.6160 N.3   152  ALA152     -0.1245
     48  CA        35.7950  -12.9210   -0.5600 C.3   152  ALA152      0.1562
     49  C         35.8520  -11.4880   -1.1280 C.2   152  ALA152      0.2260
     50  O         36.4840  -10.5930   -0.5500 O.2   152  ALA152     -0.2867
     51  CB        36.7690  -13.0980    0.5930 C.3   152  ALA152      0.0290
     52  N         33.6170   -8.8340    0.8460 N.3   155  TYR155     -0.1241
     53  CA        34.2890   -8.6340    2.1460 C.3   155  TYR155      0.1605
     54  C         35.5520   -7.7780    1.9840 C.2   155  TYR155      0.2264
     55  O         35.8240   -6.8960    2.7880 O.2   155  TYR155     -0.2867
     56  CB        34.6400   -9.9560    2.8120 C.3   155  TYR155      0.0534
     57  CG        35.3090   -9.8200    4.1780 C.ar  155  TYR155     -0.0201
     58  CD1       34.5520   -9.6640    5.3440 C.ar  155  TYR155     -0.0009
     59  CD2       36.6800   -9.8980    4.3100 C.ar  155  TYR155     -0.0009
     60  CE1       35.1610   -9.5540    6.5980 C.ar  155  TYR155      0.0417
     61  CE2       37.2950   -9.7920    5.5510 C.ar  155  TYR155      0.0417
     62  CZ        36.5320   -9.6200    6.6880 C.ar  155  TYR155      0.1957
     63  OH        37.1570   -9.5390    7.9030 O.3   155  TYR155     -0.2866
     64  N         45.2940  -14.1640   10.7000 N.3   187  TYR187     -0.1241
     65  CA        44.4270  -15.2960   11.0470 C.3   187  TYR187      0.1605
     66  C         44.5070  -15.5830   12.5410 C.2   187  TYR187      0.2264
     67  O         45.5550  -15.9990   13.0290 O.2   187  TYR187     -0.2867
     68  CB        44.8010  -16.5250   10.2290 C.3   187  TYR187      0.0534
     69  CG        44.2270  -16.3820    8.8610 C.ar  187  TYR187     -0.0201
     70  CD1       42.8640  -16.5190    8.6620 C.ar  187  TYR187     -0.0009
     71  CD2       45.0220  -16.0050    7.7890 C.ar  187  TYR187     -0.0009
     72  CE1       42.3090  -16.3270    7.4280 C.ar  187  TYR187      0.0417
     73  CE2       44.4830  -15.8190    6.5460 C.ar  187  TYR187      0.0417
     74  CZ        43.1350  -15.9700    6.3700 C.ar  187  TYR187      0.1957
     75  OH        42.6020  -15.8120    5.1400 O.3   187  TYR187     -0.2866
     76  N         34.8370  -23.6980    7.0030 N.3   195  PHE195     -0.1227
     77  CA        35.9700  -23.4740    6.0850 C.3   195  PHE195      0.1736
     78  C         37.3510  -23.8240    6.6730 C.2   195  PHE195      0.2595
     79  O         38.1570  -24.4990    6.0280 O.2   195  PHE195     -0.2718
     80  CB        35.9370  -22.0200    5.6090 C.3   195  PHE195      0.0547
     81  CG        36.9730  -21.6990    4.5810 C.ar  195  PHE195     -0.0202
     82  CD1       36.7190  -21.9060    3.2300 C.ar  195  PHE195     -0.0042
     83  CD2       38.2090  -21.1880    4.9610 C.ar  195  PHE195     -0.0042
     84  CE1       37.6790  -21.6230    2.2760 C.ar  195  PHE195     -0.0003
     85  CE2       39.1750  -20.9070    4.0100 C.ar  195  PHE195     -0.0003
     86  CZ        38.9070  -21.1080    2.6660 C.ar  195  PHE195     -0.0000
     87  N         37.6010  -23.4120    7.9140 N.am  196  TYR196     -0.1976
     88  CA        38.9670  -23.4030    8.4670 C.3   196  TYR196      0.1639
     89  C         39.5440  -24.7300    9.0050 C.2   196  TYR196      0.2290
     90  O         40.7350  -24.7970    9.3370 O.2   196  TYR196     -0.2864
     91  CB        39.0730  -22.3350    9.5670 C.3   196  TYR196      0.0560
     92  CG        38.8720  -20.9200    9.0910 C.ar  196  TYR196     -0.0198
     93  CD1       39.8150  -20.2890    8.2790 C.ar  196  TYR196     -0.0009
     94  CD2       37.7520  -20.1910    9.4800 C.ar  196  TYR196     -0.0009
     95  CE1       39.6330  -18.9660    7.8570 C.ar  196  TYR196      0.0417
     96  CE2       37.5610  -18.8860    9.0620 C.ar  196  TYR196      0.0417
     97  CZ        38.4980  -18.2740    8.2480 C.ar  196  TYR196      0.1957
     98  OH        38.2950  -16.9500    7.8690 O.3   196  TYR196     -0.2866
     99  N         44.4510  -26.5380    3.9160 N.3   201  TRP201     -0.1241
    100  CA        44.4050  -25.1010    4.0260 C.3   201  TRP201      0.1605
    101  C         45.2590  -24.6010    5.1940 C.2   201  TRP201      0.2264
    102  O         46.0340  -23.6390    5.0430 O.2   201  TRP201     -0.2867
    103  CB        42.9720  -24.6060    4.2050 C.3   201  TRP201      0.0550
    104  CG        42.8990  -23.1600    4.1870 C.ar  201  TRP201      0.0003
    105  CD1       42.6790  -22.3820    3.1070 C.ar  201  TRP201      0.0946
    106  CD2       43.0810  -22.2750    5.3010 C.ar  201  TRP201      0.0152
    107  NE1       42.6940  -21.0680    3.4630 N.ar  201  TRP201     -0.2442
    108  CE2       42.9470  -20.9690    4.8100 C.ar  201  TRP201      0.0810
    109  CE3       43.3350  -22.4640    6.6650 C.ar  201  TRP201      0.0012
    110  CZ2       43.0620  -19.8390    5.6340 C.ar  201  TRP201      0.0191
    111  CZ3       43.4660  -21.3400    7.4890 C.ar  201  TRP201      0.0001
    112  CH2       43.3150  -20.0460    6.9720 C.ar  201  TRP201      0.0015
    113  N         48.9350  -24.9510    4.5540 N.3   204  ARG204     -0.1245
    114  CA        49.3340  -23.9710    3.5330 C.3   204  ARG204      0.1563
    115  C         49.4290  -22.5510    4.0900 C.2   204  ARG204      0.2260
    116  O         50.3790  -21.8320    3.7790 O.2   204  ARG204     -0.2867
    117  CB        48.3950  -23.9960    2.3070 C.3   204  ARG204      0.0307
    118  CG        48.5800  -25.2360    1.4370 C.3   204  ARG204      0.0489
    119  CD        47.8560  -25.1850    0.0910 C.3   204  ARG204      0.2205
    120  NE        46.4360  -24.8380    0.2000 N.pl3 204  ARG204     -0.0865
    121  CZ        45.4170  -25.7010    0.2740 C.cat 204  ARG204      0.5346
    122  NH1       44.1740  -25.2270    0.3690 N.pl3 204  ARG204      0.1354
    123  NH2       45.6090  -27.0230    0.2590 N.pl3 204  ARG204      0.1354
    124  N         52.8130  -19.6970    5.1620 N.3   207  LYS207     -0.1245
    125  CA        52.9220  -18.2940    4.7460 C.3   207  LYS207      0.1561
    126  C         53.1290  -17.3250    5.9240 C.2   207  LYS207      0.2260
    127  O         53.3170  -16.1300    5.7160 O.2   207  LYS207     -0.2867
    128  CB        51.6930  -17.8800    3.9400 C.3   207  LYS207      0.0271
    129  CG        51.4710  -18.7500    2.7290 C.3   207  LYS207      0.0035
    130  CD        50.7230  -18.0330    1.6260 C.3   207  LYS207      0.0206
    131  CE        49.2250  -18.2490    1.6900 C.3   207  LYS207      0.1093
    132  NZ        48.7180  -18.5440    0.3130 N.3   207  LYS207     -0.1314
@<TRIPOS>BOND
     1    44    41    1
     2    44    45    1
     3    41    42    1
     4    41    40    1
     5    45    46    1
     6    42    43    2
     7    40    46    1
     8    40    34   am
     9    34    35    2
    10    34    33    1
    11    47    48    1
    12    32    33    1
    13    33    36    1
    14    49    48    1
    15    49    50    2
    16    48    51    1
    17   119   120    1
    18   119   118    1
    19    20    21    2
    20    20    19    1
    21   120   121    2
    22    36    38    1
    23    36    37    1
    24   123   121    1
    25   121   122    1
    26   132   131    1
    27    52    53    1
    28    19    22    1
    29    19    18    1
    30    28    27    2
    31    16    15    2
    32    37    39    1
    33    22    23    1
    34    22    24    1
    35   118   117    1
    36   130   131    1
    37   130   129    1
    38    54    53    1
    39    54    55    2
    40    53    56    1
    41    27    26    1
    42    84    86   ar
    43    84    82   ar
    44    18    12   am
    45   117   114    1
    46    13    12    2
    47    15    17   am
    48    15    14    1
    49    29    26    1
    50    29    31    1
    51    29    30    1
    52    26    25    1
    53    86    85   ar
    54   129   128    1
    55    12    11    1
    56    56    57    1
    57   105   107   ar
    58   105   104   ar
    59    82    81   ar
    60    14    11    1
    61   107   108   ar
    62   114   115    1
    63   114   113    1
    64   116   115    2
    65    99   100    1
    66    11    10    1
    67   128   125    1
    68    85    83   ar
    69   100   103    1
    70   100   101    1
    71    57    59   ar
    72    57    58   ar
    73   104   103    1
    74   104   106   ar
    75    59    61   ar
    76    81    83   ar
    77    81    80    1
    78   125   124    1
    79   125   126    1
    80   108   106   ar
    81   108   110   ar
    82    10     3   am
    83   102   101    2
    84    75    74    1
    85   106   109   ar
    86    58    60   ar
    87    61    62   ar
    88    80    77    1
    89   110   112   ar
    90   127   126    2
    91    79    78    2
    92    77    78    1
    93    77    76    1
    94     3     4    2
    95     3     2    1
    96    74    73   ar
    97    74    72   ar
    98    73    71   ar
    99    60    62   ar
   100   109   111   ar
   101    78    87   am
   102    62    63    1
   103   112   111   ar
   104     2     1    1
   105     2     5    1
   106    72    70   ar
   107     8     7   ar
   108    71    69   ar
   109    95    97   ar
   110    95    93   ar
   111    98    97    1
   112    87    88    1
   113     5     6    1
   114    97    96   ar
   115    93    92   ar
   116    88    89    1
   117    88    91    1
   118    70    69   ar
   119     7     6    1
   120     7     9   ar
   121    69    68    1
   122    89    90    2
   123    96    94   ar
   124    92    94   ar
   125    92    91    1
   126    68    65    1
   127    64    65    1
   128    65    66    1
   129    66    67    2
